2:1:0
     RDKit          3D

 77 80  0  0  1  0  0  0  0  0999 V2000
    3.1740   -3.0090   -3.6621 C   0  0  0  0  0  0  0  0  0  0  0  0
    3.4959   -1.7264   -2.8764 C   0  0  0  0  0  0  0  0  0  0  0  0
    3.7479   -0.5539   -3.8359 C   0  0  0  0  0  0  0  0  0  0  0  0
    4.6833   -1.8904   -1.9079 C   0  0  0  0  0  0  0  0  0  0  0  0
    4.4665   -2.9624   -0.8470 C   0  0  0  0  0  0  0  0  0  0  0  0
    4.4416   -2.8103    0.4888 C   0  0  0  0  0  0  0  0  0  0  0  0
    4.6451   -1.5299    1.2866 C   0  0  0  0  0  0  0  0  0  0  0  0
    3.4225   -1.1864    2.1543 C   0  0  0  0  0  0  0  0  0  0  0  0
    3.5058    0.2025    2.8514 C   0  0  2  0  0  0  0  0  0  0  0  0
    4.5731    0.1575    3.9662 C   0  0  0  0  0  0  0  0  0  0  0  0
    2.1046    0.6863    3.3585 C   0  0  2  0  0  0  0  0  0  0  0  0
    1.0370    0.6736    2.2484 C   0  0  0  0  0  0  0  0  0  0  0  0
    0.0305    1.7809    2.5557 C   0  0  1  0  0  0  0  0  0  0  0  0
   -1.2616    1.2367    2.5402 O   0  0  0  0  0  0  0  0  0  0  0  0
    0.4731    2.3875    3.8799 C   0  0  0  0  0  0  0  0  0  0  0  0
   -0.2804    2.9979    4.8393 C   0  0  0  0  0  0  0  0  0  0  0  0
   -1.7584    3.3316    4.7187 C   0  0  0  0  0  0  0  0  0  0  0  0
   -2.5488    2.6959    5.8667 C   0  0  0  0  0  0  0  0  0  0  0  0
   -2.0052    3.1625    7.2265 C   0  0  1  0  0  0  0  0  0  0  0  0
   -2.8943    2.6672    8.3841 C   0  0  0  0  0  0  0  0  0  0  0  0
   -2.3567    3.1131    9.7396 C   0  0  0  0  0  0  0  0  0  0  0  0
   -3.1066    3.5462   10.6081 O   0  0  0  0  0  0  0  0  0  0  0  0
   -0.8524    2.9816    9.9693 C   0  0  0  0  0  0  0  0  0  0  0  0
   -0.0609    3.5042    8.7556 C   0  0  0  0  0  0  0  0  0  0  0  0
   -0.4818    2.8443    7.4054 C   0  0  1  0  0  0  0  0  0  0  0  0
   -0.2199    1.3197    7.4835 C   0  0  0  0  0  0  0  0  0  0  0  0
    0.3003    3.4707    6.1879 C   0  0  1  0  0  0  0  0  0  0  0  0
    1.8415    3.3560    6.2383 C   0  0  0  0  0  0  0  0  0  0  0  0
    2.4015    2.1442    5.4885 C   0  0  0  0  0  0  0  0  0  0  0  0
    1.9685    2.1055    4.0011 C   0  0  1  0  0  0  0  0  0  0  0  0
    2.7168    3.1859    3.1891 C   0  0  0  0  0  0  0  0  0  0  0  0
    4.0229   -3.3325   -4.2664 H   0  0  0  0  0  0  0  0  0  0  0  0
    2.3223   -2.8515   -4.3237 H   0  0  0  0  0  0  0  0  0  0  0  0
    2.8980   -3.8309   -3.0024 H   0  0  0  0  0  0  0  0  0  0  0  0
    2.6156   -1.4754   -2.2829 H   0  0  0  0  0  0  0  0  0  0  0  0
    4.6121   -0.7417   -4.4748 H   0  0  0  0  0  0  0  0  0  0  0  0
    3.9330    0.3717   -3.2878 H   0  0  0  0  0  0  0  0  0  0  0  0
    2.8847   -0.3822   -4.4791 H   0  0  0  0  0  0  0  0  0  0  0  0
    5.5883   -2.1537   -2.4551 H   0  0  0  0  0  0  0  0  0  0  0  0
    4.8740   -0.9151   -1.4543 H   0  0  0  0  0  0  0  0  0  0  0  0
    4.3153   -3.9612   -1.2347 H   0  0  0  0  0  0  0  0  0  0  0  0
    4.2657   -3.6961    1.0838 H   0  0  0  0  0  0  0  0  0  0  0  0
    5.5332   -1.6732    1.9025 H   0  0  0  0  0  0  0  0  0  0  0  0
    4.8570   -0.6814    0.6369 H   0  0  0  0  0  0  0  0  0  0  0  0
    2.5678   -1.2268    1.4805 H   0  0  0  0  0  0  0  0  0  0  0  0
    3.2508   -1.9675    2.8975 H   0  0  0  0  0  0  0  0  0  0  0  0
    3.8352    0.9192    2.0961 H   0  0  0  0  0  0  0  0  0  0  0  0
    4.2273   -0.4114    4.8284 H   0  0  0  0  0  0  0  0  0  0  0  0
    4.8498    1.1526    4.3001 H   0  0  0  0  0  0  0  0  0  0  0  0
    5.5012   -0.3002    3.6299 H   0  0  0  0  0  0  0  0  0  0  0  0
    1.7726   -0.0314    4.1065 H   0  0  0  0  0  0  0  0  0  0  0  0
    1.4814    0.8680    1.2688 H   0  0  0  0  0  0  0  0  0  0  0  0
    0.5656   -0.3112    2.1859 H   0  0  0  0  0  0  0  0  0  0  0  0
    0.0973    2.5301    1.7799 H   0  0  0  0  0  0  0  0  0  0  0  0
   -1.5197    1.1750    1.6267 H   0  0  0  0  0  0  0  0  0  0  0  0
   -1.8554    4.4140    4.7795 H   0  0  0  0  0  0  0  0  0  0  0  0
   -2.1923    3.0582    3.7604 H   0  0  0  0  0  0  0  0  0  0  0  0
   -3.6050    2.9632    5.7784 H   0  0  0  0  0  0  0  0  0  0  0  0
   -2.4930    1.6098    5.7899 H   0  0  0  0  0  0  0  0  0  0  0  0
   -2.1062    4.2468    7.2376 H   0  0  0  0  0  0  0  0  0  0  0  0
   -3.9073    3.0567    8.2784 H   0  0  0  0  0  0  0  0  0  0  0  0
   -2.9721    1.5838    8.3843 H   0  0  0  0  0  0  0  0  0  0  0  0
   -0.5764    3.5245   10.8732 H   0  0  0  0  0  0  0  0  0  0  0  0
   -0.6228    1.9350   10.1574 H   0  0  0  0  0  0  0  0  0  0  0  0
   -0.2073    4.5817    8.6918 H   0  0  0  0  0  0  0  0  0  0  0  0
    0.9980    3.3598    8.9699 H   0  0  0  0  0  0  0  0  0  0  0  0
    0.7944    1.1206    7.8288 H   0  0  0  0  0  0  0  0  0  0  0  0
   -0.3431    0.8329    6.5158 H   0  0  0  0  0  0  0  0  0  0  0  0
   -0.8857    0.8200    8.1853 H   0  0  0  0  0  0  0  0  0  0  0  0
    0.0952    4.5412    6.2263 H   0  0  0  0  0  0  0  0  0  0  0  0
    2.2643    4.2552    5.7946 H   0  0  0  0  0  0  0  0  0  0  0  0
    2.2224    3.3495    7.2556 H   0  0  0  0  0  0  0  0  0  0  0  0
    3.4833    2.1741    5.5702 H   0  0  0  0  0  0  0  0  0  0  0  0
    2.0906    1.2290    5.9854 H   0  0  0  0  0  0  0  0  0  0  0  0
    3.7912    3.1044    3.3235 H   0  0  0  0  0  0  0  0  0  0  0  0
    2.4282    4.1941    3.4899 H   0  0  0  0  0  0  0  0  0  0  0  0
    2.5067    3.1075    2.1220 H   0  0  0  0  0  0  0  0  0  0  0  0
  1  2  1  0
  1 32  1  0
  1 33  1  0
  1 34  1  0
  2  3  1  0
  2  4  1  0
  2 35  1  0
  3 36  1  0
  3 37  1  0
  3 38  1  0
  4  5  1  0
  4 39  1  0
  4 40  1  0
  5  6  2  3
  5 41  1  0
  6  7  1  0
  6 42  1  0
  7  8  1  0
  7 43  1  0
  7 44  1  0
  8  9  1  0
  8 45  1  0
  8 46  1  0
  9 10  1  0
  9 11  1  0
  9 47  1  6
 10 48  1  0
 10 49  1  0
 10 50  1  0
 11 30  1  0
 11 12  1  0
 11 51  1  1
 12 13  1  0
 12 52  1  0
 12 53  1  0
 13 14  1  0
 13 15  1  0
 13 54  1  6
 14 55  1  0
 15 30  1  0
 15 16  2  0
 16 27  1  0
 16 17  1  0
 17 18  1  0
 17 56  1  0
 17 57  1  0
 18 19  1  0
 18 58  1  0
 18 59  1  0
 19 25  1  0
 19 20  1  0
 19 60  1  6
 20 21  1  0
 20 61  1  0
 20 62  1  0
 21 22  2  0
 21 23  1  0
 23 24  1  0
 23 63  1  0
 23 64  1  0
 24 25  1  0
 24 65  1  0
 24 66  1  0
 25 26  1  1
 25 27  1  0
 26 67  1  0
 26 68  1  0
 26 69  1  0
 27 28  1  0
 27 70  1  6
 28 29  1  0
 28 71  1  0
 28 72  1  0
 29 30  1  0
 29 73  1  0
 29 74  1  0
 30 31  1  6
 31 75  1  0
 31 76  1  0
 31 77  1  0
M  END
>  <i_m_ct_stereo_status>  (1) 
1

>  <s_m_source_file>  (1) 
/var/tmp/pbs.5076255.sched01/tmp9stzsw2m/06nqgg2pe.sdf

>  <i_m_source_file_index>  (1) 
4

>  <i_lp_mmshare_version>  (1) 
48012

>  <i_f3d_flags>  (1) 
0

>  <s_epik_input>  (1) 
W0NIM11bQ0hdKFtDSDNdKVtDSDJdL1tDSF09W0NIXS9bQ0gyXVtDSDJdW0NASF0oW0NIM10pW0NASF0oW0NIMl1bQ0BIXTFbT0hdKVtDQF0oW0NIM10pKFtDSDJdW0NIMl1bQ0BASF0yMylDMT1DMltDSDJdW0NIMl1bQ0BIXShbQ0BAXTM0W0NIM10pW0NIMl1DKD1PKVtDSDJdW0NIMl00

>  <s_epik_cmdline>  (1) 
J2VwaWtfcHl0aG9uJywgJy1waHQnLCAnMi4wJywgJy1waCcsICc3LjAnLCAnLXRuJywgJzgnLCAnLW1hJywgJzIwMCcsICctaW1hZScsICc8aW5maWxlLm1hZT4nLCAnLW9tYWUnLCAnPG91dGZpbGUubWFlPic=

>  <r_lp_tautomer_probability>  (1) 
1

>  <r_epik_Ionization_Penalty>  (1) 
1.28727e-06

>  <r_epik_Ionization_Penalty_Charging>  (1) 
0

>  <r_epik_Ionization_Penalty_Neutral>  (1) 
1.28727e-06

>  <r_epik_State_Penalty>  (1) 
-0

>  <r_epik_Charging_Adjusted_Penalty>  (1) 
0

>  <i_epik_Tot_Q>  (1) 
0

>  <i_epik_Tot_abs_Q>  (1) 
0

>  <s_lp_Force_Field>  (1) 
OPLS3e

>  <r_lp_Energy>  (1) 
28.425

>  <b_lp_Chiralities_Consistent>  (1) 
1

>  <s_lp_Variant>  (1) 
2:0-2

>  <s_i_glide_gridfile>  (1) 
pfpi4k_grid

>  <i_i_glide_lignum>  (1) 
4

>  <i_i_glide_rotatable_bonds>  (1) 
7

>  <r_i_docking_score>  (1) 
-2.1176

>  <r_i_glide_ligand_efficiency>  (1) 
-0.0683096

>  <r_i_glide_ligand_efficiency_sa>  (1) 
-0.214586

>  <r_i_glide_ligand_efficiency_ln>  (1) 
-0.477583

>  <r_i_glide_gscore>  (1) 
-2.1176

>  <r_i_glide_lipo>  (1) 
-0.802229

>  <r_i_glide_hbond>  (1) 
0

>  <r_i_glide_metal>  (1) 
-0

>  <r_i_glide_rewards>  (1) 
-0.499948

>  <r_i_glide_evdw>  (1) 
-28.8181

>  <r_i_glide_ecoul>  (1) 
0.870169

>  <r_i_glide_erotb>  (1) 
0.545127

>  <r_i_glide_esite>  (1) 
-0.0501649

>  <r_i_glide_emodel>  (1) 
-30.7596

>  <r_i_glide_energy>  (1) 
-27.948

>  <r_i_glide_einternal>  (1) 
1.18033

>  <r_i_glide_intrahb_reward>  (1) 
-0

>  <i_i_glide_confnum>  (1) 
2

>  <i_i_glide_posenum>  (1) 
28

>  <r_i_glide_eff_state_penalty>  (1) 
0

>  <ligand_id>  (1) 
2

>  <original_smiles>  (1) 
CC(C)CC=CCCC(C)C1CC(O)C2=C3CCC4CC(=O)CCC4(C)C3CCC21C

>  <smiles>  (1) 
[H]OC1([H])C2=C3C([H])([H])C([H])([H])C4([H])C([H])([H])C(=O)C([H])([H])C([H])([H])C4(C([H])([H])[H])C3([H])C([H])([H])C([H])([H])C2(C([H])([H])[H])C([H])(C([H])(C([H])([H])[H])C([H])([H])C([H])([H])C([H])=C([H])C([H])([H])C([H])(C([H])([H])[H])C([H])([H])[H])C1([H])[H]

$$$$
2:1:1
     RDKit          3D

 77 80  0  0  1  0  0  0  0  0999 V2000
    2.7092   -2.9648   -2.9814 C   0  0  0  0  0  0  0  0  0  0  0  0
    4.0002   -2.5360   -2.2669 C   0  0  0  0  0  0  0  0  0  0  0  0
    4.5179   -1.2106   -2.8498 C   0  0  0  0  0  0  0  0  0  0  0  0
    5.0592   -3.6583   -2.3161 C   0  0  0  0  0  0  0  0  0  0  0  0
    6.3142   -3.3458   -1.5123 C   0  0  0  0  0  0  0  0  0  0  0  0
    6.6573   -3.8214   -0.2969 C   0  0  0  0  0  0  0  0  0  0  0  0
    5.8586   -4.7721    0.5774 C   0  0  0  0  0  0  0  0  0  0  0  0
    6.6658   -6.0179    1.0062 C   0  0  0  0  0  0  0  0  0  0  0  0
    5.8527   -7.0712    1.8130 C   0  0  2  0  0  0  0  0  0  0  0  0
    4.6186   -7.5220    1.0012 C   0  0  0  0  0  0  0  0  0  0  0  0
    5.5532   -6.5834    3.2695 C   0  0  2  0  0  0  0  0  0  0  0  0
    6.8354   -6.4374    4.1299 C   0  0  0  0  0  0  0  0  0  0  0  0
    6.4279   -6.6708    5.5978 C   0  0  1  0  0  0  0  0  0  0  0  0
    6.8617   -5.5844    6.3856 O   0  0  0  0  0  0  0  0  0  0  0  0
    4.9174   -6.8898    5.5677 C   0  0  0  0  0  0  0  0  0  0  0  0
    3.9998   -6.6246    6.5397 C   0  0  0  0  0  0  0  0  0  0  0  0
    4.3198   -6.1816    7.9603 C   0  0  0  0  0  0  0  0  0  0  0  0
    3.6124   -4.8626    8.2877 C   0  0  0  0  0  0  0  0  0  0  0  0
    2.0898   -5.0046    8.1047 C   0  0  1  0  0  0  0  0  0  0  0  0
    1.3448   -3.7433    8.5960 C   0  0  0  0  0  0  0  0  0  0  0  0
   -0.1691   -3.8612    8.3991 C   0  0  0  0  0  0  0  0  0  0  0  0
   -0.9711   -3.4580    9.2380 O   0  0  0  0  0  0  0  0  0  0  0  0
   -0.6499   -4.4475    7.0755 C   0  0  0  0  0  0  0  0  0  0  0  0
    0.1571   -5.6974    6.6819 C   0  0  0  0  0  0  0  0  0  0  0  0
    1.6988   -5.4638    6.6593 C   0  0  1  0  0  0  0  0  0  0  0  0
    2.0326   -4.3762    5.6066 C   0  0  0  0  0  0  0  0  0  0  0  0
    2.4803   -6.7923    6.3327 C   0  0  1  0  0  0  0  0  0  0  0  0
    2.1398   -7.4656    4.9812 C   0  0  0  0  0  0  0  0  0  0  0  0
    3.0883   -7.0868    3.8409 C   0  0  0  0  0  0  0  0  0  0  0  0
    4.5710   -7.3926    4.1684 C   0  0  1  0  0  0  0  0  0  0  0  0
    4.8586   -8.9170    4.1393 C   0  0  0  0  0  0  0  0  0  0  0  0
    2.8816   -3.1846   -4.0349 H   0  0  0  0  0  0  0  0  0  0  0  0
    1.9486   -2.1894   -2.9182 H   0  0  0  0  0  0  0  0  0  0  0  0
    2.2815   -3.8568   -2.5199 H   0  0  0  0  0  0  0  0  0  0  0  0
    3.7430   -2.3617   -1.2209 H   0  0  0  0  0  0  0  0  0  0  0  0
    4.7694   -1.3257   -3.9032 H   0  0  0  0  0  0  0  0  0  0  0  0
    5.4018   -0.8528   -2.3232 H   0  0  0  0  0  0  0  0  0  0  0  0
    3.7642   -0.4264   -2.7748 H   0  0  0  0  0  0  0  0  0  0  0  0
    4.6132   -4.5950   -1.9834 H   0  0  0  0  0  0  0  0  0  0  0  0
    5.3572   -3.8407   -3.3504 H   0  0  0  0  0  0  0  0  0  0  0  0
    6.9968   -2.6623   -1.9908 H   0  0  0  0  0  0  0  0  0  0  0  0
    7.5945   -3.4936    0.1279 H   0  0  0  0  0  0  0  0  0  0  0  0
    5.5343   -4.2176    1.4591 H   0  0  0  0  0  0  0  0  0  0  0  0
    4.9502   -5.0639    0.0576 H   0  0  0  0  0  0  0  0  0  0  0  0
    7.0761   -6.4877    0.1139 H   0  0  0  0  0  0  0  0  0  0  0  0
    7.5475   -5.7061    1.5650 H   0  0  0  0  0  0  0  0  0  0  0  0
    6.4932   -7.9509    1.8974 H   0  0  0  0  0  0  0  0  0  0  0  0
    3.8363   -6.7645    0.9980 H   0  0  0  0  0  0  0  0  0  0  0  0
    4.1766   -8.4438    1.3713 H   0  0  0  0  0  0  0  0  0  0  0  0
    4.8892   -7.7213   -0.0344 H   0  0  0  0  0  0  0  0  0  0  0  0
    5.1237   -5.5848    3.2063 H   0  0  0  0  0  0  0  0  0  0  0  0
    7.5852   -7.1765    3.8437 H   0  0  0  0  0  0  0  0  0  0  0  0
    7.2935   -5.4606    3.9690 H   0  0  0  0  0  0  0  0  0  0  0  0
    6.8931   -7.5887    5.9603 H   0  0  0  0  0  0  0  0  0  0  0  0
    6.4929   -4.7883    6.0349 H   0  0  0  0  0  0  0  0  0  0  0  0
    3.9548   -6.9570    8.6348 H   0  0  0  0  0  0  0  0  0  0  0  0
    5.3838   -6.1099    8.1689 H   0  0  0  0  0  0  0  0  0  0  0  0
    3.8386   -4.5764    9.3149 H   0  0  0  0  0  0  0  0  0  0  0  0
    4.0056   -4.0641    7.6532 H   0  0  0  0  0  0  0  0  0  0  0  0
    1.7852   -5.8003    8.7850 H   0  0  0  0  0  0  0  0  0  0  0  0
    1.5494   -3.5803    9.6559 H   0  0  0  0  0  0  0  0  0  0  0  0
    1.6902   -2.8537    8.0735 H   0  0  0  0  0  0  0  0  0  0  0  0
   -1.7110   -4.6873    7.1524 H   0  0  0  0  0  0  0  0  0  0  0  0
   -0.5505   -3.6765    6.3142 H   0  0  0  0  0  0  0  0  0  0  0  0
   -0.0745   -6.4947    7.3894 H   0  0  0  0  0  0  0  0  0  0  0  0
   -0.2192   -6.0363    5.7192 H   0  0  0  0  0  0  0  0  0  0  0  0
    1.5589   -4.6047    4.6511 H   0  0  0  0  0  0  0  0  0  0  0  0
    3.1061   -4.2890    5.4335 H   0  0  0  0  0  0  0  0  0  0  0  0
    1.6762   -3.3889    5.9000 H   0  0  0  0  0  0  0  0  0  0  0  0
    2.1656   -7.5115    7.0914 H   0  0  0  0  0  0  0  0  0  0  0  0
    2.1950   -8.5430    5.1159 H   0  0  0  0  0  0  0  0  0  0  0  0
    1.1170   -7.2793    4.6706 H   0  0  0  0  0  0  0  0  0  0  0  0
    2.7766   -7.6212    2.9484 H   0  0  0  0  0  0  0  0  0  0  0  0
    2.9696   -6.0307    3.6079 H   0  0  0  0  0  0  0  0  0  0  0  0
    4.5484   -9.3980    3.2152 H   0  0  0  0  0  0  0  0  0  0  0  0
    4.3367   -9.4278    4.9509 H   0  0  0  0  0  0  0  0  0  0  0  0
    5.9220   -9.1189    4.2678 H   0  0  0  0  0  0  0  0  0  0  0  0
  1  2  1  0
  1 32  1  0
  1 33  1  0
  1 34  1  0
  2  3  1  0
  2  4  1  0
  2 35  1  0
  3 36  1  0
  3 37  1  0
  3 38  1  0
  4  5  1  0
  4 39  1  0
  4 40  1  0
  5  6  2  3
  5 41  1  0
  6  7  1  0
  6 42  1  0
  7  8  1  0
  7 43  1  0
  7 44  1  0
  8  9  1  0
  8 45  1  0
  8 46  1  0
  9 10  1  0
  9 11  1  0
  9 47  1  1
 10 48  1  0
 10 49  1  0
 10 50  1  0
 11 30  1  0
 11 12  1  0
 11 51  1  6
 12 13  1  0
 12 52  1  0
 12 53  1  0
 13 14  1  0
 13 15  1  0
 13 54  1  1
 14 55  1  0
 15 30  1  0
 15 16  2  0
 16 27  1  0
 16 17  1  0
 17 18  1  0
 17 56  1  0
 17 57  1  0
 18 19  1  0
 18 58  1  0
 18 59  1  0
 19 25  1  0
 19 20  1  0
 19 60  1  1
 20 21  1  0
 20 61  1  0
 20 62  1  0
 21 22  2  0
 21 23  1  0
 23 24  1  0
 23 63  1  0
 23 64  1  0
 24 25  1  0
 24 65  1  0
 24 66  1  0
 25 26  1  6
 25 27  1  0
 26 67  1  0
 26 68  1  0
 26 69  1  0
 27 28  1  0
 27 70  1  1
 28 29  1  0
 28 71  1  0
 28 72  1  0
 29 30  1  0
 29 73  1  0
 29 74  1  0
 30 31  1  1
 31 75  1  0
 31 76  1  0
 31 77  1  0
M  END
>  <i_m_ct_stereo_status>  (2) 
1

>  <s_m_source_file>  (2) 
/var/tmp/pbs.5076255.sched01/tmp9stzsw2m/06nqgg2pe.sdf

>  <i_m_source_file_index>  (2) 
4

>  <i_lp_mmshare_version>  (2) 
48012

>  <i_f3d_flags>  (2) 
0

>  <s_epik_input>  (2) 
W0NIM11bQ0hdKFtDSDNdKVtDSDJdL1tDSF09W0NIXS9bQ0gyXVtDSDJdW0NASF0oW0NIM10pW0NASF0oW0NIMl1bQ0BIXTFbT0hdKVtDQF0oW0NIM10pKFtDSDJdW0NIMl1bQ0BASF0yMylDMT1DMltDSDJdW0NIMl1bQ0BIXShbQ0BAXTM0W0NIM10pW0NIMl1DKD1PKVtDSDJdW0NIMl00

>  <s_epik_cmdline>  (2) 
J2VwaWtfcHl0aG9uJywgJy1waHQnLCAnMi4wJywgJy1waCcsICc3LjAnLCAnLXRuJywgJzgnLCAnLW1hJywgJzIwMCcsICctaW1hZScsICc8aW5maWxlLm1hZT4nLCAnLW9tYWUnLCAnPG91dGZpbGUubWFlPic=

>  <r_lp_tautomer_probability>  (2) 
1

>  <r_epik_Ionization_Penalty>  (2) 
1.28727e-06

>  <r_epik_Ionization_Penalty_Charging>  (2) 
0

>  <r_epik_Ionization_Penalty_Neutral>  (2) 
1.28727e-06

>  <r_epik_State_Penalty>  (2) 
-0

>  <r_epik_Charging_Adjusted_Penalty>  (2) 
0

>  <i_epik_Tot_Q>  (2) 
0

>  <i_epik_Tot_abs_Q>  (2) 
0

>  <s_lp_Force_Field>  (2) 
OPLS3e

>  <r_lp_Energy>  (2) 
28.425

>  <b_lp_Chiralities_Consistent>  (2) 
1

>  <s_lp_Variant>  (2) 
2:0-2

>  <s_i_glide_gridfile>  (2) 
pfpi4k_grid

>  <i_i_glide_lignum>  (2) 
4

>  <i_i_glide_rotatable_bonds>  (2) 
7

>  <r_i_docking_score>  (2) 
-2.11341

>  <r_i_glide_ligand_efficiency>  (2) 
-0.0681747

>  <r_i_glide_ligand_efficiency_sa>  (2) 
-0.214163

>  <r_i_glide_ligand_efficiency_ln>  (2) 
-0.47664

>  <r_i_glide_gscore>  (2) 
-2.11341

>  <r_i_glide_lipo>  (2) 
-0.684125

>  <r_i_glide_hbond>  (2) 
-0.149705

>  <r_i_glide_metal>  (2) 
-0

>  <r_i_glide_rewards>  (2) 
-0.499948

>  <r_i_glide_evdw>  (2) 
-19.4016

>  <r_i_glide_ecoul>  (2) 
-2.1516

>  <r_i_glide_erotb>  (2) 
0.545127

>  <r_i_glide_esite>  (2) 
-0.0319463

>  <r_i_glide_emodel>  (2) 
-23.951

>  <r_i_glide_energy>  (2) 
-21.5532

>  <r_i_glide_einternal>  (2) 
1.97218

>  <r_i_glide_intrahb_reward>  (2) 
-0

>  <i_i_glide_confnum>  (2) 
3

>  <i_i_glide_posenum>  (2) 
2

>  <r_i_glide_eff_state_penalty>  (2) 
0

>  <ligand_id>  (2) 
2

>  <original_smiles>  (2) 
CC(C)CC=CCCC(C)C1CC(O)C2=C3CCC4CC(=O)CCC4(C)C3CCC21C

>  <smiles>  (2) 
[H]OC1([H])C2=C3C([H])([H])C([H])([H])C4([H])C([H])([H])C(=O)C([H])([H])C([H])([H])C4(C([H])([H])[H])C3([H])C([H])([H])C([H])([H])C2(C([H])([H])[H])C([H])(C([H])(C([H])([H])[H])C([H])([H])C([H])([H])C([H])=C([H])C([H])([H])C([H])(C([H])([H])[H])C([H])([H])[H])C1([H])[H]

$$$$
3:0:0
     RDKit          3D

 26 28  0  0  1  0  0  0  0  0999 V2000
    4.9874   -4.2549   -4.6292 O   0  0  0  0  0  0  0  0  0  0  0  0
    4.5739   -3.7165   -3.6121 C   0  0  0  0  0  0  0  0  0  0  0  0
    3.1492   -3.3705   -3.4771 C   0  0  0  0  0  0  0  0  0  0  0  0
    2.6828   -2.8700   -2.3230 C   0  0  0  0  0  0  0  0  0  0  0  0
    3.5247   -2.5863   -1.0835 C   0  0  0  0  0  0  0  0  0  0  0  0
    3.4154   -1.2078   -0.8277 O   0  0  0  0  0  0  0  0  0  0  0  0
    3.0325   -3.3867    0.0956 C   0  0  0  0  0  0  0  0  0  0  0  0
    2.7948   -2.9542    1.3410 N   0  0  0  0  0  0  0  0  0  0  0  0
    2.4086   -4.1189    1.9380 C   0  0  0  0  0  0  0  0  0  0  0  0
    1.9783   -4.1496    3.3339 C   0  0  0  0  0  0  0  0  0  0  0  0
    1.9515   -3.1113    4.2279 C   0  0  0  0  0  0  0  0  0  0  0  0
    1.4885   -3.4995    5.5174 C   0  0  0  0  0  0  0  0  0  0  0  0
    1.1539   -4.8262    5.5910 C   0  0  0  0  0  0  0  0  0  0  0  0
    1.4033   -5.6295    4.0640 S   0  0  0  0  0  0  0  0  0  0  0  0
    2.3563   -5.2050    1.1733 N   0  0  0  0  0  0  0  0  0  0  0  0
    2.8003   -4.7203   -0.0671 O   0  0  0  0  0  0  0  0  0  0  0  0
    4.9976   -2.8959   -1.3478 C   0  0  0  0  0  0  0  0  0  0  0  0
    5.4790   -3.4134   -2.4916 C   0  0  0  0  0  0  0  0  0  0  0  0
    2.4842   -3.5829   -4.3038 H   0  0  0  0  0  0  0  0  0  0  0  0
    1.6285   -2.6560   -2.2365 H   0  0  0  0  0  0  0  0  0  0  0  0
    2.4741   -1.0228   -0.7168 H   0  0  0  0  0  0  0  0  0  0  0  0
    2.2600   -2.1023    3.9954 H   0  0  0  0  0  0  0  0  0  0  0  0
    1.4308   -2.7978    6.3349 H   0  0  0  0  0  0  0  0  0  0  0  0
    0.7924   -5.3788    6.4471 H   0  0  0  0  0  0  0  0  0  0  0  0
    5.6780   -2.6783   -0.5368 H   0  0  0  0  0  0  0  0  0  0  0  0
    6.5325   -3.6268   -2.6246 H   0  0  0  0  0  0  0  0  0  0  0  0
  1  2  2  0
  2 18  1  0
  2  3  1  0
  3  4  2  0
  3 19  1  0
  4  5  1  0
  4 20  1  0
  5  6  1  0
  5  7  1  0
  5 17  1  0
  6 21  1  0
  7 16  1  0
  7  8  2  0
  8  9  1  0
  9 10  1  0
  9 15  2  0
 10 14  1  0
 10 11  2  0
 11 12  1  0
 11 22  1  0
 12 13  2  0
 12 23  1  0
 13 14  1  0
 13 24  1  0
 15 16  1  0
 17 18  2  0
 17 25  1  0
 18 26  1  0
M  END
>  <i_m_ct_stereo_status>  (3) 
1

>  <s_m_source_file>  (3) 
/var/tmp/pbs.5076255.sched01/tmp9stzsw2m/06nqgg2pe.sdf

>  <i_m_source_file_index>  (3) 
5

>  <i_lp_mmshare_version>  (3) 
48012

>  <i_f3d_flags>  (3) 
0

>  <s_epik_input>  (3) 
W0NIXTE9W0NIXUMoPU8pW0NIXT1bQ0hdQzEoW09IXSljMm5jKG5vMiktYzNbY0hdW2NIXVtjSF1zMw==

>  <s_epik_cmdline>  (3) 
J2VwaWtfcHl0aG9uJywgJy1waHQnLCAnMi4wJywgJy1waCcsICc3LjAnLCAnLXRuJywgJzgnLCAnLW1hJywgJzIwMCcsICctaW1hZScsICc8aW5maWxlLm1hZT4nLCAnLW9tYWUnLCAnPG91dGZpbGUubWFlPic=

>  <r_lp_tautomer_probability>  (3) 
1

>  <r_epik_Ionization_Penalty>  (3) 
0.0889396

>  <r_epik_Ionization_Penalty_Charging>  (3) 
0

>  <r_epik_Ionization_Penalty_Neutral>  (3) 
0.0889396

>  <r_epik_State_Penalty>  (3) 
0.0793695

>  <r_epik_Charging_Adjusted_Penalty>  (3) 
0.0793695

>  <i_epik_Tot_Q>  (3) 
0

>  <i_epik_Tot_abs_Q>  (3) 
0

>  <s_lp_Force_Field>  (3) 
OPLS3e

>  <r_lp_Energy>  (3) 
18.0658

>  <b_lp_Chiralities_Consistent>  (3) 
1

>  <s_lp_Variant>  (3) 
3:0-1

>  <s_i_glide_gridfile>  (3) 
pfpi4k_grid

>  <i_i_glide_lignum>  (3) 
5

>  <i_i_glide_rotatable_bonds>  (3) 
3

>  <r_i_docking_score>  (3) 
-3.90804

>  <r_i_glide_ligand_efficiency>  (3) 
-0.217113

>  <r_i_glide_ligand_efficiency_sa>  (3) 
-0.568997

>  <r_i_glide_ligand_efficiency_ln>  (3) 
-1.00454

>  <r_i_glide_gscore>  (3) 
-3.90804

>  <r_i_glide_lipo>  (3) 
-0.411222

>  <r_i_glide_hbond>  (3) 
-0.16

>  <r_i_glide_metal>  (3) 
-0

>  <r_i_glide_rewards>  (3) 
-1.7511

>  <r_i_glide_evdw>  (3) 
-18.5377

>  <r_i_glide_ecoul>  (3) 
-7.2307

>  <r_i_glide_erotb>  (3) 
0.522571

>  <r_i_glide_esite>  (3) 
-0.0967968

>  <r_i_glide_emodel>  (3) 
-32.4128

>  <r_i_glide_energy>  (3) 
-25.7684

>  <r_i_glide_einternal>  (3) 
0.778754

>  <r_i_glide_intrahb_reward>  (3) 
-0

>  <i_i_glide_confnum>  (3) 
1

>  <i_i_glide_posenum>  (3) 
40

>  <r_i_glide_eff_state_penalty>  (3) 
0

>  <ligand_id>  (3) 
3

>  <original_smiles>  (3) 
O=C1C=CC(O)(c2nc(-c3cccs3)no2)C=C1

>  <smiles>  (3) 
[H]OC1(c2nc(-c3sc([H])c([H])c3[H])no2)C([H])=C([H])C(=O)C([H])=C1[H]

$$$$
3:0:1
     RDKit          3D

 26 28  0  0  1  0  0  0  0  0999 V2000
    2.7570   -8.9333    5.2403 O   0  0  0  0  0  0  0  0  0  0  0  0
    2.3772   -8.2965    4.2624 C   0  0  0  0  0  0  0  0  0  0  0  0
    1.8315   -6.9352    4.4070 C   0  0  0  0  0  0  0  0  0  0  0  0
    1.4649   -6.2157    3.3285 C   0  0  0  0  0  0  0  0  0  0  0  0
    1.5726   -6.6913    1.8835 C   0  0  0  0  0  0  0  0  0  0  0  0
    0.2622   -6.6650    1.3355 O   0  0  0  0  0  0  0  0  0  0  0  0
    2.5013   -5.7899    1.1069 C   0  0  0  0  0  0  0  0  0  0  0  0
    2.1884   -5.0029    0.0788 N   0  0  0  0  0  0  0  0  0  0  0  0
    3.3937   -4.4200   -0.1757 C   0  0  0  0  0  0  0  0  0  0  0  0
    3.5444   -3.4443   -1.2591 C   0  0  0  0  0  0  0  0  0  0  0  0
    2.6149   -3.0561   -2.1926 C   0  0  0  0  0  0  0  0  0  0  0  0
    3.1072   -2.0909   -3.1132 C   0  0  0  0  0  0  0  0  0  0  0  0
    4.4077   -1.7475   -2.8730 C   0  0  0  0  0  0  0  0  0  0  0  0
    5.0665   -2.6248   -1.5165 S   0  0  0  0  0  0  0  0  0  0  0  0
    4.4101   -4.7977    0.5878 N   0  0  0  0  0  0  0  0  0  0  0  0
    3.8127   -5.7259    1.4604 O   0  0  0  0  0  0  0  0  0  0  0  0
    2.0775   -8.1319    1.8440 C   0  0  0  0  0  0  0  0  0  0  0  0
    2.4566   -8.8605    2.9078 C   0  0  0  0  0  0  0  0  0  0  0  0
    1.7440   -6.5354    5.4058 H   0  0  0  0  0  0  0  0  0  0  0  0
    1.0677   -5.2188    3.4684 H   0  0  0  0  0  0  0  0  0  0  0  0
   -0.0374   -7.5593    1.2312 H   0  0  0  0  0  0  0  0  0  0  0  0
    1.6026   -3.4341   -2.2475 H   0  0  0  0  0  0  0  0  0  0  0  0
    2.4924   -1.6860   -3.9024 H   0  0  0  0  0  0  0  0  0  0  0  0
    5.0092   -1.0293   -3.4079 H   0  0  0  0  0  0  0  0  0  0  0  0
    2.1558   -8.5936    0.8799 H   0  0  0  0  0  0  0  0  0  0  0  0
    2.8299   -9.8693    2.7920 H   0  0  0  0  0  0  0  0  0  0  0  0
  1  2  2  0
  2 18  1  0
  2  3  1  0
  3  4  2  0
  3 19  1  0
  4  5  1  0
  4 20  1  0
  5  6  1  0
  5  7  1  0
  5 17  1  0
  6 21  1  0
  7 16  1  0
  7  8  2  0
  8  9  1  0
  9 10  1  0
  9 15  2  0
 10 14  1  0
 10 11  2  0
 11 12  1  0
 11 22  1  0
 12 13  2  0
 12 23  1  0
 13 14  1  0
 13 24  1  0
 15 16  1  0
 17 18  2  0
 17 25  1  0
 18 26  1  0
M  END
>  <i_m_ct_stereo_status>  (4) 
1

>  <s_m_source_file>  (4) 
/var/tmp/pbs.5076255.sched01/tmp9stzsw2m/06nqgg2pe.sdf

>  <i_m_source_file_index>  (4) 
5

>  <i_lp_mmshare_version>  (4) 
48012

>  <i_f3d_flags>  (4) 
0

>  <s_epik_input>  (4) 
W0NIXTE9W0NIXUMoPU8pW0NIXT1bQ0hdQzEoW09IXSljMm5jKG5vMiktYzNbY0hdW2NIXVtjSF1zMw==

>  <s_epik_cmdline>  (4) 
J2VwaWtfcHl0aG9uJywgJy1waHQnLCAnMi4wJywgJy1waCcsICc3LjAnLCAnLXRuJywgJzgnLCAnLW1hJywgJzIwMCcsICctaW1hZScsICc8aW5maWxlLm1hZT4nLCAnLW9tYWUnLCAnPG91dGZpbGUubWFlPic=

>  <r_lp_tautomer_probability>  (4) 
1

>  <r_epik_Ionization_Penalty>  (4) 
0.0889396

>  <r_epik_Ionization_Penalty_Charging>  (4) 
0

>  <r_epik_Ionization_Penalty_Neutral>  (4) 
0.0889396

>  <r_epik_State_Penalty>  (4) 
0.0793695

>  <r_epik_Charging_Adjusted_Penalty>  (4) 
0.0793695

>  <i_epik_Tot_Q>  (4) 
0

>  <i_epik_Tot_abs_Q>  (4) 
0

>  <s_lp_Force_Field>  (4) 
OPLS3e

>  <r_lp_Energy>  (4) 
18.0658

>  <b_lp_Chiralities_Consistent>  (4) 
1

>  <s_lp_Variant>  (4) 
3:0-1

>  <s_i_glide_gridfile>  (4) 
pfpi4k_grid

>  <i_i_glide_lignum>  (4) 
5

>  <i_i_glide_rotatable_bonds>  (4) 
3

>  <r_i_docking_score>  (4) 
-3.18762

>  <r_i_glide_ligand_efficiency>  (4) 
-0.17709

>  <r_i_glide_ligand_efficiency_sa>  (4) 
-0.464107

>  <r_i_glide_ligand_efficiency_ln>  (4) 
-0.819362

>  <r_i_glide_gscore>  (4) 
-3.18762

>  <r_i_glide_lipo>  (4) 
-0.101636

>  <r_i_glide_hbond>  (4) 
-0.133841

>  <r_i_glide_metal>  (4) 
-0

>  <r_i_glide_rewards>  (4) 
-1.63453

>  <r_i_glide_evdw>  (4) 
-23.278

>  <r_i_glide_ecoul>  (4) 
-4.29133

>  <r_i_glide_erotb>  (4) 
0.522571

>  <r_i_glide_esite>  (4) 
-0.0325875

>  <r_i_glide_emodel>  (4) 
-32.7589

>  <r_i_glide_energy>  (4) 
-27.5694

>  <r_i_glide_einternal>  (4) 
0.8412

>  <r_i_glide_intrahb_reward>  (4) 
-0

>  <i_i_glide_confnum>  (4) 
3

>  <i_i_glide_posenum>  (4) 
28

>  <r_i_glide_eff_state_penalty>  (4) 
0

>  <ligand_id>  (4) 
3

>  <original_smiles>  (4) 
O=C1C=CC(O)(c2nc(-c3cccs3)no2)C=C1

>  <smiles>  (4) 
[H]OC1(c2nc(-c3sc([H])c([H])c3[H])no2)C([H])=C([H])C(=O)C([H])=C1[H]

$$$$
3:0:2
     RDKit          3D

 26 28  0  0  1  0  0  0  0  0999 V2000
    0.2445   -6.3192    2.9676 O   0  0  0  0  0  0  0  0  0  0  0  0
    1.4026   -6.0750    2.6309 C   0  0  0  0  0  0  0  0  0  0  0  0
    1.9855   -6.6839    1.4254 C   0  0  0  0  0  0  0  0  0  0  0  0
    3.2191   -6.3361    1.0077 C   0  0  0  0  0  0  0  0  0  0  0  0
    4.1239   -5.3116    1.6857 C   0  0  0  0  0  0  0  0  0  0  0  0
    5.3058   -5.9852    2.0676 O   0  0  0  0  0  0  0  0  0  0  0  0
    4.4327   -4.1790    0.7405 C   0  0  0  0  0  0  0  0  0  0  0  0
    3.7208   -3.8027   -0.3210 N   0  0  0  0  0  0  0  0  0  0  0  0
    4.4575   -2.7470   -0.7497 C   0  0  0  0  0  0  0  0  0  0  0  0
    4.0780   -1.9772   -1.9320 C   0  0  0  0  0  0  0  0  0  0  0  0
    4.5220   -0.7371   -2.3184 C   0  0  0  0  0  0  0  0  0  0  0  0
    3.9055   -0.2666   -3.5134 C   0  0  0  0  0  0  0  0  0  0  0  0
    3.0195   -1.1633   -4.0341 C   0  0  0  0  0  0  0  0  0  0  0  0
    2.8951   -2.6038   -3.0612 S   0  0  0  0  0  0  0  0  0  0  0  0
    5.5408   -2.4349   -0.0502 N   0  0  0  0  0  0  0  0  0  0  0  0
    5.5324   -3.4074    0.9634 O   0  0  0  0  0  0  0  0  0  0  0  0
    3.4636   -4.7832    2.9560 C   0  0  0  0  0  0  0  0  0  0  0  0
    2.2335   -5.1252    3.3888 C   0  0  0  0  0  0  0  0  0  0  0  0
    1.3924   -7.4080    0.8862 H   0  0  0  0  0  0  0  0  0  0  0  0
    3.6233   -6.7856    0.1105 H   0  0  0  0  0  0  0  0  0  0  0  0
    5.8713   -5.3711    2.5114 H   0  0  0  0  0  0  0  0  0  0  0  0
    5.2422   -0.1553   -1.7693 H   0  0  0  0  0  0  0  0  0  0  0  0
    4.1290    0.7021   -3.9376 H   0  0  0  0  0  0  0  0  0  0  0  0
    2.4134   -1.0560   -4.9170 H   0  0  0  0  0  0  0  0  0  0  0  0
    4.0466   -4.0814    3.5380 H   0  0  0  0  0  0  0  0  0  0  0  0
    1.8268   -4.7097    4.2983 H   0  0  0  0  0  0  0  0  0  0  0  0
  1  2  2  0
  2 18  1  0
  2  3  1  0
  3  4  2  0
  3 19  1  0
  4  5  1  0
  4 20  1  0
  5  6  1  0
  5  7  1  0
  5 17  1  0
  6 21  1  0
  7 16  1  0
  7  8  2  0
  8  9  1  0
  9 10  1  0
  9 15  2  0
 10 14  1  0
 10 11  2  0
 11 12  1  0
 11 22  1  0
 12 13  2  0
 12 23  1  0
 13 14  1  0
 13 24  1  0
 15 16  1  0
 17 18  2  0
 17 25  1  0
 18 26  1  0
M  END
>  <i_m_ct_stereo_status>  (5) 
1

>  <s_m_source_file>  (5) 
/var/tmp/pbs.5076255.sched01/tmp9stzsw2m/06nqgg2pe.sdf

>  <i_m_source_file_index>  (5) 
5

>  <i_lp_mmshare_version>  (5) 
48012

>  <i_f3d_flags>  (5) 
0

>  <s_epik_input>  (5) 
W0NIXTE9W0NIXUMoPU8pW0NIXT1bQ0hdQzEoW09IXSljMm5jKG5vMiktYzNbY0hdW2NIXVtjSF1zMw==

>  <s_epik_cmdline>  (5) 
J2VwaWtfcHl0aG9uJywgJy1waHQnLCAnMi4wJywgJy1waCcsICc3LjAnLCAnLXRuJywgJzgnLCAnLW1hJywgJzIwMCcsICctaW1hZScsICc8aW5maWxlLm1hZT4nLCAnLW9tYWUnLCAnPG91dGZpbGUubWFlPic=

>  <r_lp_tautomer_probability>  (5) 
1

>  <r_epik_Ionization_Penalty>  (5) 
0.0889396

>  <r_epik_Ionization_Penalty_Charging>  (5) 
0

>  <r_epik_Ionization_Penalty_Neutral>  (5) 
0.0889396

>  <r_epik_State_Penalty>  (5) 
0.0793695

>  <r_epik_Charging_Adjusted_Penalty>  (5) 
0.0793695

>  <i_epik_Tot_Q>  (5) 
0

>  <i_epik_Tot_abs_Q>  (5) 
0

>  <s_lp_Force_Field>  (5) 
OPLS3e

>  <r_lp_Energy>  (5) 
18.0658

>  <b_lp_Chiralities_Consistent>  (5) 
1

>  <s_lp_Variant>  (5) 
3:0-1

>  <s_i_glide_gridfile>  (5) 
pfpi4k_grid

>  <i_i_glide_lignum>  (5) 
5

>  <i_i_glide_rotatable_bonds>  (5) 
3

>  <r_i_docking_score>  (5) 
-3.18247

>  <r_i_glide_ligand_efficiency>  (5) 
-0.176804

>  <r_i_glide_ligand_efficiency_sa>  (5) 
-0.463357

>  <r_i_glide_ligand_efficiency_ln>  (5) 
-0.818038

>  <r_i_glide_gscore>  (5) 
-3.18247

>  <r_i_glide_lipo>  (5) 
-0.413361

>  <r_i_glide_hbond>  (5) 
-0.10083

>  <r_i_glide_metal>  (5) 
-0

>  <r_i_glide_rewards>  (5) 
-1.63453

>  <r_i_glide_evdw>  (5) 
-23.9313

>  <r_i_glide_ecoul>  (5) 
-2.12014

>  <r_i_glide_erotb>  (5) 
0.522571

>  <r_i_glide_esite>  (5) 
-0.0417387

>  <r_i_glide_emodel>  (5) 
-30.9489

>  <r_i_glide_energy>  (5) 
-26.0514

>  <r_i_glide_einternal>  (5) 
1.42416

>  <r_i_glide_intrahb_reward>  (5) 
-0

>  <i_i_glide_confnum>  (5) 
6

>  <i_i_glide_posenum>  (5) 
8

>  <r_i_glide_eff_state_penalty>  (5) 
0

>  <ligand_id>  (5) 
3

>  <original_smiles>  (5) 
O=C1C=CC(O)(c2nc(-c3cccs3)no2)C=C1

>  <smiles>  (5) 
[H]OC1(c2nc(-c3sc([H])c([H])c3[H])no2)C([H])=C([H])C(=O)C([H])=C1[H]

$$$$
3:1:0
     RDKit          3D

 25 27  0  0  1  0  0  0  0  0999 V2000
    1.2548  -11.2084    4.7061 O   0  0  0  0  0  0  0  0  0  0  0  0
    0.9511  -10.1133    4.2512 C   0  0  0  0  0  0  0  0  0  0  0  0
    1.3572   -8.8386    4.8985 C   0  0  0  0  0  0  0  0  0  0  0  0
    1.0582   -7.6346    4.3453 C   0  0  0  0  0  0  0  0  0  0  0  0
    0.3117   -7.4011    3.0251 C   0  0  0  0  0  0  0  0  0  0  0  0
   -0.7463   -6.6571    3.2284 O   0  0  0  0  0  0  0  0  0  0  0  0
    1.1412   -6.6381    2.0277 C   0  0  0  0  0  0  0  0  0  0  0  0
    2.3783   -6.1603    2.1989 N   0  0  0  0  0  0  0  0  0  0  0  0
    2.6079   -5.5988    0.9827 C   0  0  0  0  0  0  0  0  0  0  0  0
    3.8772   -4.9343    0.6905 C   0  0  0  0  0  0  0  0  0  0  0  0
    5.0611   -5.0365    1.3855 C   0  0  0  0  0  0  0  0  0  0  0  0
    6.1158   -4.2601    0.8225 C   0  0  0  0  0  0  0  0  0  0  0  0
    5.7329   -3.5678   -0.2994 C   0  0  0  0  0  0  0  0  0  0  0  0
    4.0525   -3.8543   -0.6739 S   0  0  0  0  0  0  0  0  0  0  0  0
    1.6218   -5.6678    0.0903 N   0  0  0  0  0  0  0  0  0  0  0  0
    0.6216   -6.3633    0.7899 O   0  0  0  0  0  0  0  0  0  0  0  0
   -0.1247   -8.7570    2.4760 C   0  0  0  0  0  0  0  0  0  0  0  0
    0.1748   -9.9751    2.9985 C   0  0  0  0  0  0  0  0  0  0  0  0
    1.9220   -8.9073    5.8198 H   0  0  0  0  0  0  0  0  0  0  0  0
    1.3838   -6.7434    4.8531 H   0  0  0  0  0  0  0  0  0  0  0  0
    5.1988   -5.6451    2.2693 H   0  0  0  0  0  0  0  0  0  0  0  0
    7.1064   -4.2377    1.2544 H   0  0  0  0  0  0  0  0  0  0  0  0
    6.3295   -2.9142   -0.9174 H   0  0  0  0  0  0  0  0  0  0  0  0
   -0.7114   -8.7191    1.5801 H   0  0  0  0  0  0  0  0  0  0  0  0
   -0.1591  -10.8850    2.5160 H   0  0  0  0  0  0  0  0  0  0  0  0
  1  2  2  0
  2 18  1  0
  2  3  1  0
  3  4  2  0
  3 19  1  0
  4  5  1  0
  4 20  1  0
  5  6  1  0
  5  7  1  0
  5 17  1  0
  7 16  1  0
  7  8  2  0
  8  9  1  0
  9 10  1  0
  9 15  2  0
 10 14  1  0
 10 11  2  0
 11 12  1  0
 11 21  1  0
 12 13  2  0
 12 22  1  0
 13 14  1  0
 13 23  1  0
 15 16  1  0
 17 18  2  0
 17 24  1  0
 18 25  1  0
M  CHG  1   6  -1
M  END
>  <i_m_ct_stereo_status>  (6) 
1

>  <s_m_source_file>  (6) 
/var/tmp/pbs.5076255.sched01/tmp9stzsw2m/06nqgg2pe.sdf

>  <i_m_source_file_index>  (6) 
6

>  <i_lp_mmshare_version>  (6) 
48012

>  <i_f3d_flags>  (6) 
0

>  <s_epik_input>  (6) 
W0NIXTE9W0NIXUMoPU8pW0NIXT1bQ0hdQzEoW09IXSljMm5jKG5vMiktYzNbY0hdW2NIXVtjSF1zMw==

>  <s_epik_cmdline>  (6) 
J2VwaWtfcHl0aG9uJywgJy1waHQnLCAnMi4wJywgJy1waCcsICc3LjAnLCAnLXRuJywgJzgnLCAnLW1hJywgJzIwMCcsICctaW1hZScsICc8aW5maWxlLm1hZT4nLCAnLW9tYWUnLCAnPG91dGZpbGUubWFlPic=

>  <r_lp_tautomer_probability>  (6) 
1

>  <r_epik_Ionization_Penalty>  (6) 
1.16749

>  <r_epik_Ionization_Penalty_Charging>  (6) 
1.16749

>  <r_epik_Ionization_Penalty_Neutral>  (6) 
4.07831e-15

>  <r_epik_State_Penalty>  (6) 
1.23026

>  <r_epik_Charging_Adjusted_Penalty>  (6) 
2.39775

>  <i_epik_Tot_Q>  (6) 
-1

>  <i_epik_Tot_abs_Q>  (6) 
1

>  <s_lp_Force_Field>  (6) 
OPLS3e

>  <r_lp_Energy>  (6) 
24.3501

>  <b_lp_Chiralities_Consistent>  (6) 
1

>  <s_lp_Variant>  (6) 
3:0-2

>  <s_i_glide_gridfile>  (6) 
pfpi4k_grid

>  <i_i_glide_lignum>  (6) 
6

>  <i_i_glide_rotatable_bonds>  (6) 
2

>  <r_i_docking_score>  (6) 
-3.36729

>  <r_i_glide_ligand_efficiency>  (6) 
-0.187071

>  <r_i_glide_ligand_efficiency_sa>  (6) 
-0.490266

>  <r_i_glide_ligand_efficiency_ln>  (6) 
-0.865543

>  <r_i_glide_gscore>  (6) 
-3.36729

>  <r_i_glide_lipo>  (6) 
-0.210723

>  <r_i_glide_hbond>  (6) 
-0.194415

>  <r_i_glide_metal>  (6) 
-0

>  <r_i_glide_rewards>  (6) 
-1.6414

>  <r_i_glide_evdw>  (6) 
-22.8139

>  <r_i_glide_ecoul>  (6) 
-2.97897

>  <r_i_glide_erotb>  (6) 
0.526074

>  <r_i_glide_esite>  (6) 
-0.259281

>  <r_i_glide_emodel>  (6) 
-34.1267

>  <r_i_glide_energy>  (6) 
-25.7929

>  <r_i_glide_einternal>  (6) 
0.510215

>  <r_i_glide_intrahb_reward>  (6) 
-0

>  <i_i_glide_confnum>  (6) 
2

>  <i_i_glide_posenum>  (6) 
4

>  <r_i_glide_eff_state_penalty>  (6) 
0

>  <ligand_id>  (6) 
3

>  <original_smiles>  (6) 
O=C1C=CC(O)(c2nc(-c3cccs3)no2)C=C1

>  <smiles>  (6) 
[H]C1=C([H])C([O-])(c2nc(-c3sc([H])c([H])c3[H])no2)C([H])=C([H])C1=O

$$$$
3:1:1
     RDKit          3D

 25 27  0  0  1  0  0  0  0  0999 V2000
    4.3819   -2.0980   -3.3777 O   0  0  0  0  0  0  0  0  0  0  0  0
    4.3020   -2.6305   -2.2706 C   0  0  0  0  0  0  0  0  0  0  0  0
    3.4528   -2.0996   -1.1809 C   0  0  0  0  0  0  0  0  0  0  0  0
    3.3415   -2.7249    0.0185 C   0  0  0  0  0  0  0  0  0  0  0  0
    4.0366   -4.0285    0.4414 C   0  0  0  0  0  0  0  0  0  0  0  0
    4.7989   -3.7800    1.4797 O   0  0  0  0  0  0  0  0  0  0  0  0
    3.0352   -5.1062    0.8275 C   0  0  0  0  0  0  0  0  0  0  0  0
    3.1029   -6.0109    1.8106 N   0  0  0  0  0  0  0  0  0  0  0  0
    1.9258   -6.6709    1.6279 C   0  0  0  0  0  0  0  0  0  0  0  0
    1.5072   -7.7782    2.4921 C   0  0  0  0  0  0  0  0  0  0  0  0
    0.3278   -8.4860    2.4768 C   0  0  0  0  0  0  0  0  0  0  0  0
    0.2742   -9.5102    3.4668 C   0  0  0  0  0  0  0  0  0  0  0  0
    1.4091   -9.5690    4.2314 C   0  0  0  0  0  0  0  0  0  0  0  0
    2.5743   -8.3668    3.7462 S   0  0  0  0  0  0  0  0  0  0  0  0
    1.1417   -6.2560    0.6443 N   0  0  0  0  0  0  0  0  0  0  0  0
    1.8986   -5.2179    0.0800 O   0  0  0  0  0  0  0  0  0  0  0  0
    4.9220   -4.4798   -0.7276 C   0  0  0  0  0  0  0  0  0  0  0  0
    5.0459   -3.8613   -1.9313 C   0  0  0  0  0  0  0  0  0  0  0  0
    2.9074   -1.1881   -1.3758 H   0  0  0  0  0  0  0  0  0  0  0  0
    2.7101   -2.2754    0.7710 H   0  0  0  0  0  0  0  0  0  0  0  0
   -0.4842   -8.3191    1.7822 H   0  0  0  0  0  0  0  0  0  0  0  0
   -0.5792  -10.1636    3.5838 H   0  0  0  0  0  0  0  0  0  0  0  0
    1.6329  -10.2475    5.0436 H   0  0  0  0  0  0  0  0  0  0  0  0
    5.4938   -5.3792   -0.5482 H   0  0  0  0  0  0  0  0  0  0  0  0
    5.6872   -4.2682   -2.6969 H   0  0  0  0  0  0  0  0  0  0  0  0
  1  2  2  0
  2 18  1  0
  2  3  1  0
  3  4  2  0
  3 19  1  0
  4  5  1  0
  4 20  1  0
  5  6  1  0
  5  7  1  0
  5 17  1  0
  7 16  1  0
  7  8  2  0
  8  9  1  0
  9 10  1  0
  9 15  2  0
 10 14  1  0
 10 11  2  0
 11 12  1  0
 11 21  1  0
 12 13  2  0
 12 22  1  0
 13 14  1  0
 13 23  1  0
 15 16  1  0
 17 18  2  0
 17 24  1  0
 18 25  1  0
M  CHG  1   6  -1
M  END
>  <i_m_ct_stereo_status>  (7) 
1

>  <s_m_source_file>  (7) 
/var/tmp/pbs.5076255.sched01/tmp9stzsw2m/06nqgg2pe.sdf

>  <i_m_source_file_index>  (7) 
6

>  <i_lp_mmshare_version>  (7) 
48012

>  <i_f3d_flags>  (7) 
0

>  <s_epik_input>  (7) 
W0NIXTE9W0NIXUMoPU8pW0NIXT1bQ0hdQzEoW09IXSljMm5jKG5vMiktYzNbY0hdW2NIXVtjSF1zMw==

>  <s_epik_cmdline>  (7) 
J2VwaWtfcHl0aG9uJywgJy1waHQnLCAnMi4wJywgJy1waCcsICc3LjAnLCAnLXRuJywgJzgnLCAnLW1hJywgJzIwMCcsICctaW1hZScsICc8aW5maWxlLm1hZT4nLCAnLW9tYWUnLCAnPG91dGZpbGUubWFlPic=

>  <r_lp_tautomer_probability>  (7) 
1

>  <r_epik_Ionization_Penalty>  (7) 
1.16749

>  <r_epik_Ionization_Penalty_Charging>  (7) 
1.16749

>  <r_epik_Ionization_Penalty_Neutral>  (7) 
4.07831e-15

>  <r_epik_State_Penalty>  (7) 
1.23026

>  <r_epik_Charging_Adjusted_Penalty>  (7) 
2.39775

>  <i_epik_Tot_Q>  (7) 
-1

>  <i_epik_Tot_abs_Q>  (7) 
1

>  <s_lp_Force_Field>  (7) 
OPLS3e

>  <r_lp_Energy>  (7) 
24.3501

>  <b_lp_Chiralities_Consistent>  (7) 
1

>  <s_lp_Variant>  (7) 
3:0-2

>  <s_i_glide_gridfile>  (7) 
pfpi4k_grid

>  <i_i_glide_lignum>  (7) 
6

>  <i_i_glide_rotatable_bonds>  (7) 
2

>  <r_i_docking_score>  (7) 
-3.28865

>  <r_i_glide_ligand_efficiency>  (7) 
-0.182703

>  <r_i_glide_ligand_efficiency_sa>  (7) 
-0.478816

>  <r_i_glide_ligand_efficiency_ln>  (7) 
-0.84533

>  <r_i_glide_gscore>  (7) 
-3.28865

>  <r_i_glide_lipo>  (7) 
-0.0244623

>  <r_i_glide_hbond>  (7) 
0

>  <r_i_glide_metal>  (7) 
-0

>  <r_i_glide_rewards>  (7) 
-1.6746

>  <r_i_glide_evdw>  (7) 
-24.3886

>  <r_i_glide_ecoul>  (7) 
-4.51523

>  <r_i_glide_erotb>  (7) 
0.526074

>  <r_i_glide_esite>  (7) 
-0.218941

>  <r_i_glide_emodel>  (7) 
-37.3835

>  <r_i_glide_energy>  (7) 
-28.9038

>  <r_i_glide_einternal>  (7) 
0.13679

>  <r_i_glide_intrahb_reward>  (7) 
-0

>  <i_i_glide_confnum>  (7) 
4

>  <i_i_glide_posenum>  (7) 
5

>  <r_i_glide_eff_state_penalty>  (7) 
0

>  <ligand_id>  (7) 
3

>  <original_smiles>  (7) 
O=C1C=CC(O)(c2nc(-c3cccs3)no2)C=C1

>  <smiles>  (7) 
[H]C1=C([H])C([O-])(c2nc(-c3sc([H])c([H])c3[H])no2)C([H])=C([H])C1=O

$$$$
3:1:2
     RDKit          3D

 25 27  0  0  1  0  0  0  0  0999 V2000
    4.6974   -1.7944   -2.5610 O   0  0  0  0  0  0  0  0  0  0  0  0
    4.4980   -2.4883   -1.5623 C   0  0  0  0  0  0  0  0  0  0  0  0
    3.7005   -2.0154   -0.4065 C   0  0  0  0  0  0  0  0  0  0  0  0
    3.4628   -2.8038    0.6736 C   0  0  0  0  0  0  0  0  0  0  0  0
    3.9571   -4.2438    0.8833 C   0  0  0  0  0  0  0  0  0  0  0  0
    4.7226   -4.2750    1.9466 O   0  0  0  0  0  0  0  0  0  0  0  0
    2.8026   -5.2072    1.0904 C   0  0  0  0  0  0  0  0  0  0  0  0
    2.4956   -5.9603    2.1567 N   0  0  0  0  0  0  0  0  0  0  0  0
    1.3782   -6.5907    1.7074 C   0  0  0  0  0  0  0  0  0  0  0  0
    0.6250   -7.5276    2.5319 C   0  0  0  0  0  0  0  0  0  0  0  0
   -0.5442   -8.1887    2.2342 C   0  0  0  0  0  0  0  0  0  0  0  0
   -0.9750   -9.0471    3.2842 C   0  0  0  0  0  0  0  0  0  0  0  0
   -0.1394   -9.0249    4.3689 C   0  0  0  0  0  0  0  0  0  0  0  0
    1.2056   -7.9489    4.1256 S   0  0  0  0  0  0  0  0  0  0  0  0
    0.9404   -6.2632    0.5011 N   0  0  0  0  0  0  0  0  0  0  0  0
    1.9041   -5.3403    0.0745 O   0  0  0  0  0  0  0  0  0  0  0  0
    4.7982   -4.6314   -0.3416 C   0  0  0  0  0  0  0  0  0  0  0  0
    5.0420   -3.8579   -1.4320 C   0  0  0  0  0  0  0  0  0  0  0  0
    3.2862   -1.0180   -0.4503 H   0  0  0  0  0  0  0  0  0  0  0  0
    2.8820   -2.3906    1.4849 H   0  0  0  0  0  0  0  0  0  0  0  0
   -1.0867   -8.1089    1.3044 H   0  0  0  0  0  0  0  0  0  0  0  0
   -1.8655   -9.6561    3.2194 H   0  0  0  0  0  0  0  0  0  0  0  0
   -0.2305   -9.5961    5.2838 H   0  0  0  0  0  0  0  0  0  0  0  0
    5.2336   -5.6192   -0.3084 H   0  0  0  0  0  0  0  0  0  0  0  0
    5.6381   -4.2451   -2.2462 H   0  0  0  0  0  0  0  0  0  0  0  0
  1  2  2  0
  2 18  1  0
  2  3  1  0
  3  4  2  0
  3 19  1  0
  4  5  1  0
  4 20  1  0
  5  6  1  0
  5  7  1  0
  5 17  1  0
  7 16  1  0
  7  8  2  0
  8  9  1  0
  9 10  1  0
  9 15  2  0
 10 14  1  0
 10 11  2  0
 11 12  1  0
 11 21  1  0
 12 13  2  0
 12 22  1  0
 13 14  1  0
 13 23  1  0
 15 16  1  0
 17 18  2  0
 17 24  1  0
 18 25  1  0
M  CHG  1   6  -1
M  END
>  <i_m_ct_stereo_status>  (8) 
1

>  <s_m_source_file>  (8) 
/var/tmp/pbs.5076255.sched01/tmp9stzsw2m/06nqgg2pe.sdf

>  <i_m_source_file_index>  (8) 
6

>  <i_lp_mmshare_version>  (8) 
48012

>  <i_f3d_flags>  (8) 
0

>  <s_epik_input>  (8) 
W0NIXTE9W0NIXUMoPU8pW0NIXT1bQ0hdQzEoW09IXSljMm5jKG5vMiktYzNbY0hdW2NIXVtjSF1zMw==

>  <s_epik_cmdline>  (8) 
J2VwaWtfcHl0aG9uJywgJy1waHQnLCAnMi4wJywgJy1waCcsICc3LjAnLCAnLXRuJywgJzgnLCAnLW1hJywgJzIwMCcsICctaW1hZScsICc8aW5maWxlLm1hZT4nLCAnLW9tYWUnLCAnPG91dGZpbGUubWFlPic=

>  <r_lp_tautomer_probability>  (8) 
1

>  <r_epik_Ionization_Penalty>  (8) 
1.16749

>  <r_epik_Ionization_Penalty_Charging>  (8) 
1.16749

>  <r_epik_Ionization_Penalty_Neutral>  (8) 
4.07831e-15

>  <r_epik_State_Penalty>  (8) 
1.23026

>  <r_epik_Charging_Adjusted_Penalty>  (8) 
2.39775

>  <i_epik_Tot_Q>  (8) 
-1

>  <i_epik_Tot_abs_Q>  (8) 
1

>  <s_lp_Force_Field>  (8) 
OPLS3e

>  <r_lp_Energy>  (8) 
24.3501

>  <b_lp_Chiralities_Consistent>  (8) 
1

>  <s_lp_Variant>  (8) 
3:0-2

>  <s_i_glide_gridfile>  (8) 
pfpi4k_grid

>  <i_i_glide_lignum>  (8) 
6

>  <i_i_glide_rotatable_bonds>  (8) 
2

>  <r_i_docking_score>  (8) 
-3.21857

>  <r_i_glide_ligand_efficiency>  (8) 
-0.17881

>  <r_i_glide_ligand_efficiency_sa>  (8) 
-0.468614

>  <r_i_glide_ligand_efficiency_ln>  (8) 
-0.827318

>  <r_i_glide_gscore>  (8) 
-3.21857

>  <r_i_glide_lipo>  (8) 
-0.0153262

>  <r_i_glide_hbond>  (8) 
0

>  <r_i_glide_metal>  (8) 
-0

>  <r_i_glide_rewards>  (8) 
-1.6414

>  <r_i_glide_evdw>  (8) 
-24.951

>  <r_i_glide_ecoul>  (8) 
-3.78688

>  <r_i_glide_erotb>  (8) 
0.526074

>  <r_i_glide_esite>  (8) 
-0.272341

>  <r_i_glide_emodel>  (8) 
-37.1198

>  <r_i_glide_energy>  (8) 
-28.7379

>  <r_i_glide_einternal>  (8) 
0.0164732

>  <r_i_glide_intrahb_reward>  (8) 
-0

>  <i_i_glide_confnum>  (8) 
4

>  <i_i_glide_posenum>  (8) 
18

>  <r_i_glide_eff_state_penalty>  (8) 
0

>  <ligand_id>  (8) 
3

>  <original_smiles>  (8) 
O=C1C=CC(O)(c2nc(-c3cccs3)no2)C=C1

>  <smiles>  (8) 
[H]C1=C([H])C([O-])(c2nc(-c3sc([H])c([H])c3[H])no2)C([H])=C([H])C1=O

$$$$
4:0:0
     RDKit          3D

 33 35  0  0  1  0  0  0  0  0999 V2000
    8.3945   -4.9384    0.5190 C   0  0  0  0  0  0  0  0  0  0  0  0
    8.1224   -4.0932   -0.3191 C   0  0  0  0  0  0  0  0  0  0  0  0
    7.7374   -3.0908   -1.3319 C   0  0  0  0  0  0  0  0  0  0  0  0
    6.2667   -2.6294   -1.2604 C   0  0  2  0  0  0  0  0  0  0  0  0
    5.9333   -2.2275    0.0699 O   0  0  0  0  0  0  0  0  0  0  0  0
    4.6614   -2.6961    0.4177 C   0  0  1  0  0  0  0  0  0  0  0  0
    3.8956   -1.5645    1.0017 N   0  0  0  0  0  0  0  0  0  0  0  0
    4.0556   -0.2296    0.7398 C   0  0  0  0  0  0  0  0  0  0  0  0
    3.2144    0.5608    1.3480 N   0  0  0  0  0  0  0  0  0  0  0  0
    2.4322   -0.2931    2.1006 C   0  0  0  0  0  0  0  0  0  0  0  0
    1.3556   -0.0992    3.0008 C   0  0  0  0  0  0  0  0  0  0  0  0
    0.8762    1.1148    3.2923 N   0  0  0  0  0  0  0  0  0  0  0  0
    0.8132   -1.1825    3.6057 N   0  0  0  0  0  0  0  0  0  0  0  0
    1.2962   -2.3980    3.3173 C   0  0  0  0  0  0  0  0  0  0  0  0
    2.2895   -2.7362    2.4809 N   0  0  0  0  0  0  0  0  0  0  0  0
    2.8456   -1.6356    1.8949 C   0  0  0  0  0  0  0  0  0  0  0  0
    3.9980   -3.2201   -0.8664 C   0  0  1  0  0  0  0  0  0  0  0  0
    3.2850   -2.2289   -1.6038 O   0  0  0  0  0  0  0  0  0  0  0  0
    5.2278   -3.7007   -1.6151 C   0  0  1  0  0  0  0  0  0  0  0  0
    5.0144   -3.8523   -3.0085 O   0  0  0  0  0  0  0  0  0  0  0  0
    0.1076    1.2214    3.9323 H   0  0  0  0  0  0  0  0  0  0  0  0
    8.6203   -5.6847    1.2492 H   0  0  0  0  0  0  0  0  0  0  0  0
    8.4246   -2.2502   -1.2292 H   0  0  0  0  0  0  0  0  0  0  0  0
    7.9201   -3.5230   -2.3162 H   0  0  0  0  0  0  0  0  0  0  0  0
    6.1198   -1.7651   -1.9113 H   0  0  0  0  0  0  0  0  0  0  0  0
    4.7597   -3.4378    1.2130 H   0  0  0  0  0  0  0  0  0  0  0  0
    4.7896    0.1498    0.0413 H   0  0  0  0  0  0  0  0  0  0  0  0
    1.2776    1.9125    2.8195 H   0  0  0  0  0  0  0  0  0  0  0  0
    0.8175   -3.2191    3.8267 H   0  0  0  0  0  0  0  0  0  0  0  0
    3.3170   -4.0305   -0.6231 H   0  0  0  0  0  0  0  0  0  0  0  0
    2.5316   -1.9124   -1.1134 H   0  0  0  0  0  0  0  0  0  0  0  0
    5.5253   -4.6621   -1.2003 H   0  0  0  0  0  0  0  0  0  0  0  0
    4.3259   -4.4975   -3.1210 H   0  0  0  0  0  0  0  0  0  0  0  0
  1  2  3  0
  1 22  1  0
  2  3  1  0
  3  4  1  0
  3 23  1  0
  3 24  1  0
  4 19  1  0
  4  5  1  0
  4 25  1  6
  5  6  1  0
  6 17  1  0
  6 26  1  1
  6  7  1  0
  7  8  1  0
  7 16  1  0
  8  9  2  0
  8 27  1  0
  9 10  1  0
 10 11  1  0
 10 16  2  0
 11 13  2  0
 11 12  1  0
 12 28  1  0
 12 21  1  0
 13 14  1  0
 14 29  1  0
 14 15  2  0
 15 16  1  0
 17 18  1  0
 17 19  1  0
 17 30  1  1
 18 31  1  0
 19 20  1  0
 19 32  1  1
 20 33  1  0
M  END
>  <i_m_ct_stereo_status>  (9) 
1

>  <s_m_source_file>  (9) 
/var/tmp/pbs.5076255.sched01/tmp9stzsw2m/06nqgg2pe.sdf

>  <i_m_source_file_index>  (9) 
7

>  <i_lp_mmshare_version>  (9) 
48012

>  <i_f3d_flags>  (9) 
0

>  <s_epik_input>  (9) 
W0NIXSNDW0NIMl1bQ0BASF0xT1tDQEhdKFtDQEBIXShbT0hdKVtDQEhdMVtPSF0pbihbY0hdbjIpYyhjMjMpbltjSF1bbkhdY1wzPU5cW0hd

>  <s_epik_cmdline>  (9) 
J2VwaWtfcHl0aG9uJywgJy1waHQnLCAnMi4wJywgJy1waCcsICc3LjAnLCAnLXRuJywgJzgnLCAnLW1hJywgJzIwMCcsICctaW1hZScsICc8aW5maWxlLm1hZT4nLCAnLW9tYWUnLCAnPG91dGZpbGUubWFlPic=

>  <r_lp_tautomer_probability>  (9) 
1

>  <r_epik_Ionization_Penalty>  (9) 
0.0004221

>  <r_epik_Ionization_Penalty_Charging>  (9) 
0

>  <r_epik_Ionization_Penalty_Neutral>  (9) 
0.0004221

>  <r_epik_State_Penalty>  (9) 
-0

>  <r_epik_Charging_Adjusted_Penalty>  (9) 
0

>  <i_epik_Tot_Q>  (9) 
0

>  <i_epik_Tot_abs_Q>  (9) 
0

>  <s_epik_Chemistry_Notes>  (9) 
This compound contains an acetal/aminal-like group ( X-CH(R)-Y where X, Y are N, S, or O) that may be acid/base labile, releasing an aldehyde.

>  <s_lp_Force_Field>  (9) 
OPLS3e

>  <r_lp_Energy>  (9) 
15.7919

>  <b_lp_Chiralities_Consistent>  (9) 
1

>  <s_lp_Variant>  (9) 
4:0-1

>  <s_i_glide_gridfile>  (9) 
pfpi4k_grid

>  <i_i_glide_lignum>  (9) 
7

>  <i_i_glide_rotatable_bonds>  (9) 
5

>  <r_i_docking_score>  (9) 
-3.32879

>  <r_i_glide_ligand_efficiency>  (9) 
-0.166439

>  <r_i_glide_ligand_efficiency_sa>  (9) 
-0.451786

>  <r_i_glide_ligand_efficiency_ln>  (9) 
-0.833086

>  <r_i_glide_gscore>  (9) 
-3.32879

>  <r_i_glide_lipo>  (9) 
-0.194525

>  <r_i_glide_hbond>  (9) 
0

>  <r_i_glide_metal>  (9) 
-0

>  <r_i_glide_rewards>  (9) 
-1.74934

>  <r_i_glide_evdw>  (9) 
-23.2137

>  <r_i_glide_ecoul>  (9) 
-5.77776

>  <r_i_glide_erotb>  (9) 
0.711546

>  <r_i_glide_esite>  (9) 
-0.0691231

>  <r_i_glide_emodel>  (9) 
-34.948

>  <r_i_glide_energy>  (9) 
-28.9914

>  <r_i_glide_einternal>  (9) 
1.78062

>  <r_i_glide_intrahb_reward>  (9) 
-0

>  <i_i_glide_confnum>  (9) 
2

>  <i_i_glide_posenum>  (9) 
3

>  <r_i_glide_eff_state_penalty>  (9) 
0

>  <ligand_id>  (9) 
4

>  <original_smiles>  (9) 
C#CCC1OC(n2cnc3c(=N)[nH]cnc32)C(O)C1O

>  <smiles>  (9) 
[H]C#CC([H])([H])C1([H])OC([H])(n2c([H])nc3c(N([H])[H])nc([H])nc32)C([H])(O[H])C1([H])O[H]

$$$$
4:0:1
     RDKit          3D

 33 35  0  0  1  0  0  0  0  0999 V2000
    3.7832  -11.1480    2.8960 C   0  0  0  0  0  0  0  0  0  0  0  0
    2.6060  -10.8753    3.0819 C   0  0  0  0  0  0  0  0  0  0  0  0
    1.1881  -10.5627    3.3112 C   0  0  0  0  0  0  0  0  0  0  0  0
    0.7952   -9.1387    2.9023 C   0  0  2  0  0  0  0  0  0  0  0  0
    1.4862   -8.1816    3.7157 O   0  0  0  0  0  0  0  0  0  0  0  0
    0.6220   -7.1471    4.0734 C   0  0  1  0  0  0  0  0  0  0  0  0
    1.2378   -5.8215    3.7815 N   0  0  0  0  0  0  0  0  0  0  0  0
    1.0955   -4.6557    4.4998 C   0  0  0  0  0  0  0  0  0  0  0  0
    1.6758   -3.6064    3.9768 N   0  0  0  0  0  0  0  0  0  0  0  0
    2.2610   -4.0981    2.8172 C   0  0  0  0  0  0  0  0  0  0  0  0
    3.0280   -3.5178    1.7776 C   0  0  0  0  0  0  0  0  0  0  0  0
    3.3683   -2.2262    1.7762 N   0  0  0  0  0  0  0  0  0  0  0  0
    3.4262   -4.2936    0.7436 N   0  0  0  0  0  0  0  0  0  0  0  0
    3.0897   -5.5869    0.7266 C   0  0  0  0  0  0  0  0  0  0  0  0
    2.3778   -6.2690    1.6339 N   0  0  0  0  0  0  0  0  0  0  0  0
    1.9918   -5.4813    2.6803 C   0  0  0  0  0  0  0  0  0  0  0  0
   -0.6851   -7.3390    3.2954 C   0  0  1  0  0  0  0  0  0  0  0  0
   -0.6729   -6.6880    2.0351 O   0  0  0  0  0  0  0  0  0  0  0  0
   -0.6875   -8.8438    3.1392 C   0  0  1  0  0  0  0  0  0  0  0  0
   -1.5110   -9.2792    2.0832 O   0  0  0  0  0  0  0  0  0  0  0  0
    3.9003   -1.8471    1.0076 H   0  0  0  0  0  0  0  0  0  0  0  0
    4.7959  -11.4189    2.7102 H   0  0  0  0  0  0  0  0  0  0  0  0
    0.5967  -11.2835    2.7450 H   0  0  0  0  0  0  0  0  0  0  0  0
    0.9749  -10.7244    4.3699 H   0  0  0  0  0  0  0  0  0  0  0  0
    1.0593   -8.9441    1.8598 H   0  0  0  0  0  0  0  0  0  0  0  0
    0.4940   -7.1765    5.1540 H   0  0  0  0  0  0  0  0  0  0  0  0
    0.5139   -4.5949    5.4116 H   0  0  0  0  0  0  0  0  0  0  0  0
    3.0482   -1.6490    2.5382 H   0  0  0  0  0  0  0  0  0  0  0  0
    3.4367   -6.1586   -0.1239 H   0  0  0  0  0  0  0  0  0  0  0  0
   -1.5203   -6.9650    3.8833 H   0  0  0  0  0  0  0  0  0  0  0  0
    0.0252   -7.0820    1.5276 H   0  0  0  0  0  0  0  0  0  0  0  0
   -1.0071   -9.2943    4.0760 H   0  0  0  0  0  0  0  0  0  0  0  0
   -0.9647   -9.4567    1.3241 H   0  0  0  0  0  0  0  0  0  0  0  0
  1  2  3  0
  1 22  1  0
  2  3  1  0
  3  4  1  0
  3 23  1  0
  3 24  1  0
  4 19  1  0
  4  5  1  0
  4 25  1  6
  5  6  1  0
  6 17  1  0
  6 26  1  1
  6  7  1  0
  7  8  1  0
  7 16  1  0
  8  9  2  0
  8 27  1  0
  9 10  1  0
 10 11  1  0
 10 16  2  0
 11 13  2  0
 11 12  1  0
 12 28  1  0
 12 21  1  0
 13 14  1  0
 14 29  1  0
 14 15  2  0
 15 16  1  0
 17 18  1  0
 17 19  1  0
 17 30  1  1
 18 31  1  0
 19 20  1  0
 19 32  1  1
 20 33  1  0
M  END
>  <i_m_ct_stereo_status>  (10) 
1

>  <s_m_source_file>  (10) 
/var/tmp/pbs.5076255.sched01/tmp9stzsw2m/06nqgg2pe.sdf

>  <i_m_source_file_index>  (10) 
7

>  <i_lp_mmshare_version>  (10) 
48012

>  <i_f3d_flags>  (10) 
0

>  <s_epik_input>  (10) 
W0NIXSNDW0NIMl1bQ0BASF0xT1tDQEhdKFtDQEBIXShbT0hdKVtDQEhdMVtPSF0pbihbY0hdbjIpYyhjMjMpbltjSF1bbkhdY1wzPU5cW0hd

>  <s_epik_cmdline>  (10) 
J2VwaWtfcHl0aG9uJywgJy1waHQnLCAnMi4wJywgJy1waCcsICc3LjAnLCAnLXRuJywgJzgnLCAnLW1hJywgJzIwMCcsICctaW1hZScsICc8aW5maWxlLm1hZT4nLCAnLW9tYWUnLCAnPG91dGZpbGUubWFlPic=

>  <r_lp_tautomer_probability>  (10) 
1

>  <r_epik_Ionization_Penalty>  (10) 
0.0004221

>  <r_epik_Ionization_Penalty_Charging>  (10) 
0

>  <r_epik_Ionization_Penalty_Neutral>  (10) 
0.0004221

>  <r_epik_State_Penalty>  (10) 
-0

>  <r_epik_Charging_Adjusted_Penalty>  (10) 
0

>  <i_epik_Tot_Q>  (10) 
0

>  <i_epik_Tot_abs_Q>  (10) 
0

>  <s_epik_Chemistry_Notes>  (10) 
This compound contains an acetal/aminal-like group ( X-CH(R)-Y where X, Y are N, S, or O) that may be acid/base labile, releasing an aldehyde.

>  <s_lp_Force_Field>  (10) 
OPLS3e

>  <r_lp_Energy>  (10) 
15.7919

>  <b_lp_Chiralities_Consistent>  (10) 
1

>  <s_lp_Variant>  (10) 
4:0-1

>  <s_i_glide_gridfile>  (10) 
pfpi4k_grid

>  <i_i_glide_lignum>  (10) 
7

>  <i_i_glide_rotatable_bonds>  (10) 
5

>  <r_i_docking_score>  (10) 
-3.28516

>  <r_i_glide_ligand_efficiency>  (10) 
-0.164258

>  <r_i_glide_ligand_efficiency_sa>  (10) 
-0.445864

>  <r_i_glide_ligand_efficiency_ln>  (10) 
-0.822166

>  <r_i_glide_gscore>  (10) 
-3.28516

>  <r_i_glide_lipo>  (10) 
-0.161279

>  <r_i_glide_hbond>  (10) 
0

>  <r_i_glide_metal>  (10) 
-0

>  <r_i_glide_rewards>  (10) 
-1.5323

>  <r_i_glide_evdw>  (10) 
-19.8806

>  <r_i_glide_ecoul>  (10) 
-8.21111

>  <r_i_glide_erotb>  (10) 
0.711546

>  <r_i_glide_esite>  (10) 
-0.0774297

>  <r_i_glide_emodel>  (10) 
-32.9199

>  <r_i_glide_energy>  (10) 
-28.0917

>  <r_i_glide_einternal>  (10) 
2.79627

>  <r_i_glide_intrahb_reward>  (10) 
-0

>  <i_i_glide_confnum>  (10) 
6

>  <i_i_glide_posenum>  (10) 
14

>  <r_i_glide_eff_state_penalty>  (10) 
0

>  <ligand_id>  (10) 
4

>  <original_smiles>  (10) 
C#CCC1OC(n2cnc3c(=N)[nH]cnc32)C(O)C1O

>  <smiles>  (10) 
[H]C#CC([H])([H])C1([H])OC([H])(n2c([H])nc3c(N([H])[H])nc([H])nc32)C([H])(O[H])C1([H])O[H]

$$$$
4:0:2
     RDKit          3D

 33 35  0  0  1  0  0  0  0  0999 V2000
   -4.2722    3.3456    2.0782 C   0  0  0  0  0  0  0  0  0  0  0  0
   -3.4381    3.3200    2.9695 C   0  0  0  0  0  0  0  0  0  0  0  0
   -2.4347    3.3025    4.0460 C   0  0  0  0  0  0  0  0  0  0  0  0
   -0.9873    3.3171    3.5347 C   0  0  2  0  0  0  0  0  0  0  0  0
   -0.4125    2.0153    3.6712 O   0  0  0  0  0  0  0  0  0  0  0  0
    0.9021    2.1118    4.1308 C   0  0  1  0  0  0  0  0  0  0  0  0
    1.7808    1.3039    3.2390 N   0  0  0  0  0  0  0  0  0  0  0  0
    1.5774    0.9574    1.9235 C   0  0  0  0  0  0  0  0  0  0  0  0
    2.5529    0.2789    1.3732 N   0  0  0  0  0  0  0  0  0  0  0  0
    3.4750    0.1228    2.3927 C   0  0  0  0  0  0  0  0  0  0  0  0
    4.7377   -0.5107    2.4795 C   0  0  0  0  0  0  0  0  0  0  0  0
    5.2858   -1.1458    1.4406 N   0  0  0  0  0  0  0  0  0  0  0  0
    5.4072   -0.4710    3.6527 N   0  0  0  0  0  0  0  0  0  0  0  0
    4.8645    0.1728    4.6917 C   0  0  0  0  0  0  0  0  0  0  0  0
    3.6868    0.8151    4.7574 N   0  0  0  0  0  0  0  0  0  0  0  0
    3.0111    0.7652    3.5687 C   0  0  0  0  0  0  0  0  0  0  0  0
    1.2814    3.6007    4.1176 C   0  0  1  0  0  0  0  0  0  0  0  0
    1.8214    4.0603    2.8820 O   0  0  0  0  0  0  0  0  0  0  0  0
   -0.0715    4.2281    4.3609 C   0  0  1  0  0  0  0  0  0  0  0  0
   -0.1586    5.5809    3.9383 O   0  0  0  0  0  0  0  0  0  0  0  0
    6.1738   -1.6082    1.5406 H   0  0  0  0  0  0  0  0  0  0  0  0
   -4.9943    3.3463    1.2963 H   0  0  0  0  0  0  0  0  0  0  0  0
   -2.6004    4.1801    4.6657 H   0  0  0  0  0  0  0  0  0  0  0  0
   -2.6112    2.4303    4.6750 H   0  0  0  0  0  0  0  0  0  0  0  0
   -0.9515    3.6158    2.4871 H   0  0  0  0  0  0  0  0  0  0  0  0
    0.9575    1.6466    5.1170 H   0  0  0  0  0  0  0  0  0  0  0  0
    0.6987    1.2589    1.3679 H   0  0  0  0  0  0  0  0  0  0  0  0
    4.7615   -1.1733    0.5783 H   0  0  0  0  0  0  0  0  0  0  0  0
    5.4492    0.1546    5.6024 H   0  0  0  0  0  0  0  0  0  0  0  0
    1.9984    3.7990    4.9165 H   0  0  0  0  0  0  0  0  0  0  0  0
    1.1667    3.9828    2.1834 H   0  0  0  0  0  0  0  0  0  0  0  0
   -0.3226    4.1451    5.4191 H   0  0  0  0  0  0  0  0  0  0  0  0
    0.2126    5.6326    3.0642 H   0  0  0  0  0  0  0  0  0  0  0  0
  1  2  3  0
  1 22  1  0
  2  3  1  0
  3  4  1  0
  3 23  1  0
  3 24  1  0
  4 19  1  0
  4  5  1  0
  4 25  1  6
  5  6  1  0
  6 17  1  0
  6 26  1  1
  6  7  1  0
  7  8  1  0
  7 16  1  0
  8  9  2  0
  8 27  1  0
  9 10  1  0
 10 11  1  0
 10 16  2  0
 11 13  2  0
 11 12  1  0
 12 28  1  0
 12 21  1  0
 13 14  1  0
 14 29  1  0
 14 15  2  0
 15 16  1  0
 17 18  1  0
 17 19  1  0
 17 30  1  1
 18 31  1  0
 19 20  1  0
 19 32  1  1
 20 33  1  0
M  END
>  <i_m_ct_stereo_status>  (11) 
1

>  <s_m_source_file>  (11) 
/var/tmp/pbs.5076255.sched01/tmp9stzsw2m/06nqgg2pe.sdf

>  <i_m_source_file_index>  (11) 
7

>  <i_lp_mmshare_version>  (11) 
48012

>  <i_f3d_flags>  (11) 
0

>  <s_epik_input>  (11) 
W0NIXSNDW0NIMl1bQ0BASF0xT1tDQEhdKFtDQEBIXShbT0hdKVtDQEhdMVtPSF0pbihbY0hdbjIpYyhjMjMpbltjSF1bbkhdY1wzPU5cW0hd

>  <s_epik_cmdline>  (11) 
J2VwaWtfcHl0aG9uJywgJy1waHQnLCAnMi4wJywgJy1waCcsICc3LjAnLCAnLXRuJywgJzgnLCAnLW1hJywgJzIwMCcsICctaW1hZScsICc8aW5maWxlLm1hZT4nLCAnLW9tYWUnLCAnPG91dGZpbGUubWFlPic=

>  <r_lp_tautomer_probability>  (11) 
1

>  <r_epik_Ionization_Penalty>  (11) 
0.0004221

>  <r_epik_Ionization_Penalty_Charging>  (11) 
0

>  <r_epik_Ionization_Penalty_Neutral>  (11) 
0.0004221

>  <r_epik_State_Penalty>  (11) 
-0

>  <r_epik_Charging_Adjusted_Penalty>  (11) 
0

>  <i_epik_Tot_Q>  (11) 
0

>  <i_epik_Tot_abs_Q>  (11) 
0

>  <s_epik_Chemistry_Notes>  (11) 
This compound contains an acetal/aminal-like group ( X-CH(R)-Y where X, Y are N, S, or O) that may be acid/base labile, releasing an aldehyde.

>  <s_lp_Force_Field>  (11) 
OPLS3e

>  <r_lp_Energy>  (11) 
15.7919

>  <b_lp_Chiralities_Consistent>  (11) 
1

>  <s_lp_Variant>  (11) 
4:0-1

>  <s_i_glide_gridfile>  (11) 
pfpi4k_grid

>  <i_i_glide_lignum>  (11) 
7

>  <i_i_glide_rotatable_bonds>  (11) 
5

>  <r_i_docking_score>  (11) 
-3.23541

>  <r_i_glide_ligand_efficiency>  (11) 
-0.16177

>  <r_i_glide_ligand_efficiency_sa>  (11) 
-0.439113

>  <r_i_glide_ligand_efficiency_ln>  (11) 
-0.809716

>  <r_i_glide_gscore>  (11) 
-3.23541

>  <r_i_glide_lipo>  (11) 
-0.29965

>  <r_i_glide_hbond>  (11) 
0

>  <r_i_glide_metal>  (11) 
-0

>  <r_i_glide_rewards>  (11) 
-1.61535

>  <r_i_glide_evdw>  (11) 
-23.5284

>  <r_i_glide_ecoul>  (11) 
-5.20119

>  <r_i_glide_erotb>  (11) 
0.711546

>  <r_i_glide_esite>  (11) 
-0.0753559

>  <r_i_glide_emodel>  (11) 
-33.3553

>  <r_i_glide_energy>  (11) 
-28.7296

>  <r_i_glide_einternal>  (11) 
3.8084

>  <r_i_glide_intrahb_reward>  (11) 
-0

>  <i_i_glide_confnum>  (11) 
2

>  <i_i_glide_posenum>  (11) 
8

>  <r_i_glide_eff_state_penalty>  (11) 
0

>  <ligand_id>  (11) 
4

>  <original_smiles>  (11) 
C#CCC1OC(n2cnc3c(=N)[nH]cnc32)C(O)C1O

>  <smiles>  (11) 
[H]C#CC([H])([H])C1([H])OC([H])(n2c([H])nc3c(N([H])[H])nc([H])nc32)C([H])(O[H])C1([H])O[H]

$$$$
6:0:0
     RDKit          3D

 35 37  0  0  1  0  0  0  0  0999 V2000
    2.9087    0.4008    2.8139 C   0  0  0  0  0  0  0  0  0  0  0  0
    3.2063   -0.0365    1.3789 C   0  0  0  0  0  0  0  0  0  0  0  0
    4.1408   -1.2157    1.3114 C   0  0  0  0  0  0  0  0  0  0  0  0
    3.7730   -2.5538    1.9193 C   0  0  0  0  0  0  0  0  0  0  0  0
    3.9048   -3.6342    0.9043 N   0  0  0  0  0  0  0  0  0  0  0  0
    3.0726   -3.3105   -0.2763 C   0  0  0  0  0  0  0  0  0  0  0  0
    4.0451   -2.7545   -1.3394 C   0  0  1  0  0  0  0  0  0  0  0  0
    3.4377   -2.7473   -2.7473 C   0  0  0  0  0  0  0  0  0  0  0  0
    4.6088   -1.3355   -0.9827 C   0  0  0  0  0  0  0  0  0  0  0  0
    5.0879   -1.2947    0.4272 N   0  0  0  0  0  0  0  0  0  0  0  0
    6.0635   -2.3942    0.6465 C   0  0  0  0  0  0  0  0  0  0  0  0
    5.2985   -3.7342    0.3791 C   0  0  1  0  0  0  0  0  0  0  0  0
    6.0042   -4.9791    0.9614 C   0  0  0  0  0  0  0  0  0  0  0  0
    6.0660   -4.8886    2.2924 F   0  0  0  0  0  0  0  0  0  0  0  0
    5.3289   -6.0826    0.6418 F   0  0  0  0  0  0  0  0  0  0  0  0
    7.2431   -5.0751    0.4825 F   0  0  0  0  0  0  0  0  0  0  0  0
    5.1313   -3.7989   -1.1545 C   0  0  0  0  0  0  0  0  0  0  0  0
    2.2199    1.2457    2.7869 H   0  0  0  0  0  0  0  0  0  0  0  0
    3.8073    0.7264    3.3285 H   0  0  0  0  0  0  0  0  0  0  0  0
    2.4288   -0.3842    3.3904 H   0  0  0  0  0  0  0  0  0  0  0  0
    2.2714   -0.3257    0.8883 H   0  0  0  0  0  0  0  0  0  0  0  0
    4.4488   -2.7609    2.7555 H   0  0  0  0  0  0  0  0  0  0  0  0
    2.7509   -2.5258    2.2991 H   0  0  0  0  0  0  0  0  0  0  0  0
    2.6385   -4.2406   -0.6378 H   0  0  0  0  0  0  0  0  0  0  0  0
    2.2421   -2.6401   -0.0335 H   0  0  0  0  0  0  0  0  0  0  0  0
    4.1739   -2.4512   -3.4933 H   0  0  0  0  0  0  0  0  0  0  0  0
    2.6028   -2.0470   -2.8055 H   0  0  0  0  0  0  0  0  0  0  0  0
    3.0622   -3.7317   -3.0173 H   0  0  0  0  0  0  0  0  0  0  0  0
    5.4639   -1.0663   -1.6092 H   0  0  0  0  0  0  0  0  0  0  0  0
    3.8337   -0.5771   -1.1164 H   0  0  0  0  0  0  0  0  0  0  0  0
    6.8992   -2.2455   -0.0412 H   0  0  0  0  0  0  0  0  0  0  0  0
    6.4395   -2.3265    1.6730 H   0  0  0  0  0  0  0  0  0  0  0  0
    4.7872   -4.7813   -1.4828 H   0  0  0  0  0  0  0  0  0  0  0  0
    6.0466   -3.5647   -1.7017 H   0  0  0  0  0  0  0  0  0  0  0  0
    3.6130    0.8094    0.8217 H   0  0  0  0  0  0  0  0  0  0  0  0
  1  2  1  0
  1 18  1  0
  1 19  1  0
  1 20  1  0
  2  3  1  0
  2 21  1  0
  2 35  1  0
  3 10  2  0
  3  4  1  0
  4  5  1  0
  4 22  1  0
  4 23  1  0
  5 12  1  0
  5  6  1  0
  6  7  1  0
  6 24  1  0
  6 25  1  0
  7 17  1  0
  7  8  1  6
  7  9  1  0
  8 26  1  0
  8 27  1  0
  8 28  1  0
  9 10  1  0
  9 29  1  0
  9 30  1  0
 10 11  1  0
 11 12  1  0
 11 31  1  0
 11 32  1  0
 12 13  1  1
 12 17  1  0
 13 14  1  0
 13 15  1  0
 13 16  1  0
 17 33  1  0
 17 34  1  0
M  CHG  1  10   1
M  END
>  <i_m_ct_stereo_status>  (12) 
1

>  <s_m_source_file>  (12) 
/var/tmp/pbs.5076255.sched01/tmp9stzsw2m/06nqgg2pe.sdf

>  <i_m_source_file_index>  (12) 
9

>  <i_lp_mmshare_version>  (12) 
48012

>  <i_f3d_flags>  (12) 
0

>  <s_epik_input>  (12) 
W0NIM10vW0NIXT1DKC9bQ0gyXTEpTihbQ0gyXTIpW0NIMl1bQ0BdKEMoRikoRilGKShbQ0gyXTMpTjFbQ0gyXVtDQEBdMjNbQ0gzXQ==

>  <s_epik_cmdline>  (12) 
J2VwaWtfcHl0aG9uJywgJy1waHQnLCAnMi4wJywgJy1waCcsICc3LjAnLCAnLXRuJywgJzgnLCAnLW1hJywgJzIwMCcsICctaW1hZScsICc8aW5maWxlLm1hZT4nLCAnLW9tYWUnLCAnPG91dGZpbGUubWFlPic=

>  <r_epik_Ionization_Penalty>  (12) 
0.0240581

>  <r_epik_Ionization_Penalty_Charging>  (12) 
0

>  <r_epik_Ionization_Penalty_Neutral>  (12) 
0.0240581

>  <r_epik_State_Penalty>  (12) 
0.0184358

>  <r_epik_Charging_Adjusted_Penalty>  (12) 
0.0184358

>  <i_epik_Tot_Q>  (12) 
1

>  <i_epik_Tot_abs_Q>  (12) 
1

>  <s_epik_Chemistry_Notes>  (12) 
This compound has an imine and may undergo hydrolysis.

>  <s_lp_Force_Field>  (12) 
OPLS3e

>  <r_lp_Energy>  (12) 
91.2899

>  <b_lp_Chiralities_Consistent>  (12) 
1

>  <s_lp_Variant>  (12) 
6:0-1

>  <s_i_glide_gridfile>  (12) 
pfpi4k_grid

>  <i_i_glide_lignum>  (12) 
9

>  <i_i_glide_rotatable_bonds>  (12) 
2

>  <r_i_docking_score>  (12) 
-3.909

>  <r_i_glide_ligand_efficiency>  (12) 
-0.229941

>  <r_i_glide_ligand_efficiency_sa>  (12) 
-0.591244

>  <r_i_glide_ligand_efficiency_ln>  (12) 
-1.01977

>  <r_i_glide_gscore>  (12) 
-3.909

>  <r_i_glide_lipo>  (12) 
-0.284159

>  <r_i_glide_hbond>  (12) 
0

>  <r_i_glide_metal>  (12) 
-0

>  <r_i_glide_rewards>  (12) 
-2.17269

>  <r_i_glide_evdw>  (12) 
-19.7928

>  <r_i_glide_ecoul>  (12) 
-3.0748

>  <r_i_glide_erotb>  (12) 
0

>  <r_i_glide_esite>  (12) 
-0.00129566

>  <r_i_glide_emodel>  (12) 
-27.6527

>  <r_i_glide_energy>  (12) 
-22.8676

>  <r_i_glide_einternal>  (12) 
0.180978

>  <r_i_glide_intrahb_reward>  (12) 
-0

>  <i_i_glide_confnum>  (12) 
1

>  <i_i_glide_posenum>  (12) 
36

>  <r_i_glide_eff_state_penalty>  (12) 
0

>  <ligand_id>  (12) 
6

>  <original_smiles>  (12) 
CC=C1CN2CC3(C)CN1CC2(C(F)(F)F)C3

>  <smiles>  (12) 
[H]C1([H])C(C([H])([H])C([H])([H])[H])=[N+]2C([H])([H])C3(C(F)(F)F)N1C([H])([H])C(C([H])([H])[H])(C2([H])[H])C3([H])[H]

$$$$
6:1:0
     RDKit          3D

 34 36  0  0  1  0  0  0  0  0999 V2000
   -3.8016  -12.6912   -8.2813 C   0  0  0  0  0  0  0  0  0  0  0  0
   -5.1105  -12.9260   -7.5562 C   0  0  0  0  0  0  0  0  0  0  0  0
   -6.2637  -12.2599   -7.7519 C   0  0  0  0  0  0  0  0  0  0  0  0
   -7.5441  -12.5839   -6.9677 C   0  0  0  0  0  0  0  0  0  0  0  0
   -8.4912  -11.4494   -6.9298 N   0  0  0  0  0  0  0  0  0  0  0  0
   -7.8321  -10.3369   -6.2248 C   0  0  0  0  0  0  0  0  0  0  0  0
   -7.4289   -9.3309   -7.3049 C   0  0  1  0  0  0  0  0  0  0  0  0
   -7.1609   -7.9220   -6.7486 C   0  0  0  0  0  0  0  0  0  0  0  0
   -6.2067   -9.8509   -8.1215 C   0  0  0  0  0  0  0  0  0  0  0  0
   -6.4317  -11.2087   -8.6423 N   0  0  0  0  0  0  0  0  0  0  0  0
   -7.7224  -11.3060   -9.3123 C   0  0  0  0  0  0  0  0  0  0  0  0
   -8.8226  -10.9185   -8.2868 C   0  0  1  0  0  0  0  0  0  0  0  0
  -10.2254  -11.3687   -8.7530 C   0  0  0  0  0  0  0  0  0  0  0  0
  -10.4744  -10.8912   -9.9718 F   0  0  0  0  0  0  0  0  0  0  0  0
  -10.2921  -12.7012   -8.7988 F   0  0  0  0  0  0  0  0  0  0  0  0
  -11.1699  -10.9240   -7.9231 F   0  0  0  0  0  0  0  0  0  0  0  0
   -8.6973   -9.3968   -8.1387 C   0  0  0  0  0  0  0  0  0  0  0  0
   -3.0189  -12.4436   -7.5615 H   0  0  0  0  0  0  0  0  0  0  0  0
   -3.8778  -11.8783   -9.0050 H   0  0  0  0  0  0  0  0  0  0  0  0
   -3.5065  -13.6001   -8.8091 H   0  0  0  0  0  0  0  0  0  0  0  0
   -5.0954  -13.7246   -6.8267 H   0  0  0  0  0  0  0  0  0  0  0  0
   -8.0253  -13.4483   -7.4321 H   0  0  0  0  0  0  0  0  0  0  0  0
   -7.2895  -12.8696   -5.9453 H   0  0  0  0  0  0  0  0  0  0  0  0
   -8.5803   -9.8815   -5.5797 H   0  0  0  0  0  0  0  0  0  0  0  0
   -7.0025  -10.6399   -5.5841 H   0  0  0  0  0  0  0  0  0  0  0  0
   -6.9510   -7.2147   -7.5504 H   0  0  0  0  0  0  0  0  0  0  0  0
   -6.3078   -7.9240   -6.0700 H   0  0  0  0  0  0  0  0  0  0  0  0
   -8.0193   -7.5363   -6.2003 H   0  0  0  0  0  0  0  0  0  0  0  0
   -6.0295   -9.1788   -8.9615 H   0  0  0  0  0  0  0  0  0  0  0  0
   -5.3079   -9.8393   -7.5016 H   0  0  0  0  0  0  0  0  0  0  0  0
   -7.7475  -10.6513  -10.1831 H   0  0  0  0  0  0  0  0  0  0  0  0
   -7.8723  -12.3247   -9.6771 H   0  0  0  0  0  0  0  0  0  0  0  0
   -9.5518   -8.9796   -7.6001 H   0  0  0  0  0  0  0  0  0  0  0  0
   -8.6179   -8.8693   -9.0887 H   0  0  0  0  0  0  0  0  0  0  0  0
  1  2  1  0
  1 18  1  0
  1 19  1  0
  1 20  1  0
  2  3  2  3
  2 21  1  0
  3 10  1  0
  3  4  1  0
  4  5  1  0
  4 22  1  0
  4 23  1  0
  5 12  1  0
  5  6  1  0
  6  7  1  0
  6 24  1  0
  6 25  1  0
  7 17  1  0
  7  8  1  1
  7  9  1  0
  8 26  1  0
  8 27  1  0
  8 28  1  0
  9 10  1  0
  9 29  1  0
  9 30  1  0
 10 11  1  0
 11 12  1  0
 11 31  1  0
 11 32  1  0
 12 13  1  6
 12 17  1  0
 13 14  1  0
 13 15  1  0
 13 16  1  0
 17 33  1  0
 17 34  1  0
M  END
>  <i_m_ct_stereo_status>  (13) 
1

>  <s_m_source_file>  (13) 
/var/tmp/pbs.5076255.sched01/tmp9stzsw2m/06nqgg2pe.sdf

>  <i_m_source_file_index>  (13) 
10

>  <i_lp_mmshare_version>  (13) 
48012

>  <i_f3d_flags>  (13) 
0

>  <s_epik_input>  (13) 
W0NIM10vW0NIXT1DKC9bQ0gyXTEpTihbQ0gyXTIpW0NIMl1bQ0BdKEMoRikoRilGKShbQ0gyXTMpTjFbQ0gyXVtDQEBdMjNbQ0gzXQ==

>  <s_epik_cmdline>  (13) 
J2VwaWtfcHl0aG9uJywgJy1waHQnLCAnMi4wJywgJy1waCcsICc3LjAnLCAnLXRuJywgJzgnLCAnLW1hJywgJzIwMCcsICctaW1hZScsICc8aW5maWxlLm1hZT4nLCAnLW9tYWUnLCAnPG91dGZpbGUubWFlPic=

>  <r_epik_Ionization_Penalty>  (13) 
2.3152

>  <r_epik_Ionization_Penalty_Charging>  (13) 
2.31493

>  <r_epik_Ionization_Penalty_Neutral>  (13) 
0.000268238

>  <r_epik_State_Penalty>  (13) 
2.47582

>  <r_epik_Charging_Adjusted_Penalty>  (13) 
4.79075

>  <i_epik_Tot_Q>  (13) 
0

>  <i_epik_Tot_abs_Q>  (13) 
0

>  <s_epik_Chemistry_Notes>  (13) 
This compound has an imine and may undergo hydrolysis.

>  <s_lp_Force_Field>  (13) 
OPLS3e

>  <r_lp_Energy>  (13) 
39.5993

>  <b_lp_Chiralities_Consistent>  (13) 
1

>  <s_lp_Variant>  (13) 
6:0-2

>  <s_i_glide_gridfile>  (13) 
pfpi4k_grid

>  <i_i_glide_lignum>  (13) 
10

>  <i_i_glide_rotatable_bonds>  (13) 
1

>  <r_i_docking_score>  (13) 
-3.57587

>  <r_i_glide_ligand_efficiency>  (13) 
-0.210345

>  <r_i_glide_ligand_efficiency_sa>  (13) 
-0.540857

>  <r_i_glide_ligand_efficiency_ln>  (13) 
-0.932864

>  <r_i_glide_gscore>  (13) 
-3.57587

>  <r_i_glide_lipo>  (13) 
-0.868699

>  <r_i_glide_hbond>  (13) 
0

>  <r_i_glide_metal>  (13) 
-0

>  <r_i_glide_rewards>  (13) 
-1.93746

>  <r_i_glide_evdw>  (13) 
-16.2345

>  <r_i_glide_ecoul>  (13) 
0.464586

>  <r_i_glide_erotb>  (13) 
0

>  <r_i_glide_esite>  (13) 
-0.0276728

>  <r_i_glide_emodel>  (13) 
-19.2741

>  <r_i_glide_energy>  (13) 
-15.7699

>  <r_i_glide_einternal>  (13) 
0.0983168

>  <r_i_glide_intrahb_reward>  (13) 
-0

>  <i_i_glide_confnum>  (13) 
1

>  <i_i_glide_posenum>  (13) 
9

>  <r_i_glide_eff_state_penalty>  (13) 
0

>  <ligand_id>  (13) 
6

>  <original_smiles>  (13) 
CC=C1CN2CC3(C)CN1CC2(C(F)(F)F)C3

>  <smiles>  (13) 
[H]C(=C1N2C([H])([H])C3(C(F)(F)F)N(C1([H])[H])C([H])([H])C(C([H])([H])[H])(C2([H])[H])C3([H])[H])C([H])([H])[H]

$$$$
6:1:1
     RDKit          3D

 34 36  0  0  1  0  0  0  0  0999 V2000
    2.3951   -0.0059    1.8586 C   0  0  0  0  0  0  0  0  0  0  0  0
    2.4930    1.1264    2.8615 C   0  0  0  0  0  0  0  0  0  0  0  0
    1.5713    1.4585    3.7813 C   0  0  0  0  0  0  0  0  0  0  0  0
    1.7770    2.6194    4.7658 C   0  0  0  0  0  0  0  0  0  0  0  0
    0.5050    3.1477    5.3011 N   0  0  0  0  0  0  0  0  0  0  0  0
   -0.2652    3.6994    4.1737 C   0  0  0  0  0  0  0  0  0  0  0  0
   -1.3665    2.6707    3.8850 C   0  0  1  0  0  0  0  0  0  0  0  0
   -2.5355    3.2635    3.0841 C   0  0  0  0  0  0  0  0  0  0  0  0
   -0.7876    1.3949    3.1865 C   0  0  0  0  0  0  0  0  0  0  0  0
    0.3435    0.8300    3.9372 N   0  0  0  0  0  0  0  0  0  0  0  0
    0.0254    0.6789    5.3487 C   0  0  0  0  0  0  0  0  0  0  0  0
   -0.3551    2.0841    5.8986 C   0  0  1  0  0  0  0  0  0  0  0  0
   -0.3207    2.1338    7.4400 C   0  0  0  0  0  0  0  0  0  0  0  0
    0.9096    1.8831    7.8902 F   0  0  0  0  0  0  0  0  0  0  0  0
   -0.6981    3.3347    7.8825 F   0  0  0  0  0  0  0  0  0  0  0  0
   -1.1500    1.2162    7.9380 F   0  0  0  0  0  0  0  0  0  0  0  0
   -1.7468    2.3642    5.3242 C   0  0  0  0  0  0  0  0  0  0  0  0
    2.4775    0.3969    0.8505 H   0  0  0  0  0  0  0  0  0  0  0  0
    1.4505   -0.5517    1.9293 H   0  0  0  0  0  0  0  0  0  0  0  0
    3.2155   -0.7110    2.0052 H   0  0  0  0  0  0  0  0  0  0  0  0
    3.4069    1.7025    2.8258 H   0  0  0  0  0  0  0  0  0  0  0  0
    2.4004    2.2650    5.5906 H   0  0  0  0  0  0  0  0  0  0  0  0
    2.3252    3.4284    4.2782 H   0  0  0  0  0  0  0  0  0  0  0  0
   -0.7234    4.6227    4.5261 H   0  0  0  0  0  0  0  0  0  0  0  0
    0.3351    3.9515    3.2984 H   0  0  0  0  0  0  0  0  0  0  0  0
   -3.3433    2.5456    2.9661 H   0  0  0  0  0  0  0  0  0  0  0  0
   -2.2053    3.5616    2.0889 H   0  0  0  0  0  0  0  0  0  0  0  0
   -2.9485    4.1428    3.5736 H   0  0  0  0  0  0  0  0  0  0  0  0
   -1.5616    0.6315    3.1093 H   0  0  0  0  0  0  0  0  0  0  0  0
   -0.4711    1.6316    2.1691 H   0  0  0  0  0  0  0  0  0  0  0  0
   -0.7848   -0.0383    5.4727 H   0  0  0  0  0  0  0  0  0  0  0  0
    0.8904    0.2731    5.8783 H   0  0  0  0  0  0  0  0  0  0  0  0
   -2.2130    3.2226    5.8112 H   0  0  0  0  0  0  0  0  0  0  0  0
   -2.4265    1.5198    5.4200 H   0  0  0  0  0  0  0  0  0  0  0  0
  1  2  1  0
  1 18  1  0
  1 19  1  0
  1 20  1  0
  2  3  2  3
  2 21  1  0
  3 10  1  0
  3  4  1  0
  4  5  1  0
  4 22  1  0
  4 23  1  0
  5 12  1  0
  5  6  1  0
  6  7  1  0
  6 24  1  0
  6 25  1  0
  7 17  1  0
  7  8  1  6
  7  9  1  0
  8 26  1  0
  8 27  1  0
  8 28  1  0
  9 10  1  0
  9 29  1  0
  9 30  1  0
 10 11  1  0
 11 12  1  0
 11 31  1  0
 11 32  1  0
 12 13  1  1
 12 17  1  0
 13 14  1  0
 13 15  1  0
 13 16  1  0
 17 33  1  0
 17 34  1  0
M  END
>  <i_m_ct_stereo_status>  (14) 
1

>  <s_m_source_file>  (14) 
/var/tmp/pbs.5076255.sched01/tmp9stzsw2m/06nqgg2pe.sdf

>  <i_m_source_file_index>  (14) 
10

>  <i_lp_mmshare_version>  (14) 
48012

>  <i_f3d_flags>  (14) 
0

>  <s_epik_input>  (14) 
W0NIM10vW0NIXT1DKC9bQ0gyXTEpTihbQ0gyXTIpW0NIMl1bQ0BdKEMoRikoRilGKShbQ0gyXTMpTjFbQ0gyXVtDQEBdMjNbQ0gzXQ==

>  <s_epik_cmdline>  (14) 
J2VwaWtfcHl0aG9uJywgJy1waHQnLCAnMi4wJywgJy1waCcsICc3LjAnLCAnLXRuJywgJzgnLCAnLW1hJywgJzIwMCcsICctaW1hZScsICc8aW5maWxlLm1hZT4nLCAnLW9tYWUnLCAnPG91dGZpbGUubWFlPic=

>  <r_epik_Ionization_Penalty>  (14) 
2.3152

>  <r_epik_Ionization_Penalty_Charging>  (14) 
2.31493

>  <r_epik_Ionization_Penalty_Neutral>  (14) 
0.000268238

>  <r_epik_State_Penalty>  (14) 
2.47582

>  <r_epik_Charging_Adjusted_Penalty>  (14) 
4.79075

>  <i_epik_Tot_Q>  (14) 
0

>  <i_epik_Tot_abs_Q>  (14) 
0

>  <s_epik_Chemistry_Notes>  (14) 
This compound has an imine and may undergo hydrolysis.

>  <s_lp_Force_Field>  (14) 
OPLS3e

>  <r_lp_Energy>  (14) 
39.5993

>  <b_lp_Chiralities_Consistent>  (14) 
1

>  <s_lp_Variant>  (14) 
6:0-2

>  <s_i_glide_gridfile>  (14) 
pfpi4k_grid

>  <i_i_glide_lignum>  (14) 
10

>  <i_i_glide_rotatable_bonds>  (14) 
1

>  <r_i_docking_score>  (14) 
-2.70093

>  <r_i_glide_ligand_efficiency>  (14) 
-0.158878

>  <r_i_glide_ligand_efficiency_sa>  (14) 
-0.408521

>  <r_i_glide_ligand_efficiency_ln>  (14) 
-0.704613

>  <r_i_glide_gscore>  (14) 
-2.70093

>  <r_i_glide_lipo>  (14) 
-0.0109065

>  <r_i_glide_hbond>  (14) 
0

>  <r_i_glide_metal>  (14) 
-0

>  <r_i_glide_rewards>  (14) 
-1.72996

>  <r_i_glide_evdw>  (14) 
-15.2561

>  <r_i_glide_ecoul>  (14) 
-0.835285

>  <r_i_glide_erotb>  (14) 
0

>  <r_i_glide_esite>  (14) 
-0.0719635

>  <r_i_glide_emodel>  (14) 
-18.7888

>  <r_i_glide_energy>  (14) 
-16.0914

>  <r_i_glide_einternal>  (14) 
0.00475607

>  <r_i_glide_intrahb_reward>  (14) 
-0

>  <i_i_glide_confnum>  (14) 
1

>  <i_i_glide_posenum>  (14) 
39

>  <r_i_glide_eff_state_penalty>  (14) 
0

>  <ligand_id>  (14) 
6

>  <original_smiles>  (14) 
CC=C1CN2CC3(C)CN1CC2(C(F)(F)F)C3

>  <smiles>  (14) 
[H]C(=C1N2C([H])([H])C3(C(F)(F)F)N(C1([H])[H])C([H])([H])C(C([H])([H])[H])(C2([H])[H])C3([H])[H])C([H])([H])[H]

$$$$
6:2:0
     RDKit          3D

 34 36  0  0  1  0  0  0  0  0999 V2000
   -6.7064   -5.4823   -4.8582 C   0  0  0  0  0  0  0  0  0  0  0  0
   -6.9289   -6.9905   -4.9175 C   0  0  0  0  0  0  0  0  0  0  0  0
   -7.1535   -7.7627   -5.9803 C   0  0  0  0  0  0  0  0  0  0  0  0
   -7.1888   -7.2378   -7.4130 C   0  0  0  0  0  0  0  0  0  0  0  0
   -6.8467   -8.3046   -8.3508 N   0  0  0  0  0  0  0  0  0  0  0  0
   -5.4938   -8.7744   -8.0193 C   0  0  0  0  0  0  0  0  0  0  0  0
   -5.6668  -10.1713   -7.4139 C   0  0  1  0  0  0  0  0  0  0  0  0
   -4.4437  -11.0998   -7.4351 C   0  0  0  0  0  0  0  0  0  0  0  0
   -6.1456  -10.0169   -5.9591 C   0  0  0  0  0  0  0  0  0  0  0  0
   -7.3174   -9.1445   -5.9066 N   0  0  0  0  0  0  0  0  0  0  0  0
   -8.3423   -9.5770   -6.8405 C   0  0  0  0  0  0  0  0  0  0  0  0
   -7.7325   -9.5113   -8.2441 C   0  0  1  0  0  0  0  0  0  0  0  0
   -8.8039   -9.4969   -9.3464 C   0  0  0  0  0  0  0  0  0  0  0  0
   -9.5670  -10.5887   -9.2463 F   0  0  0  0  0  0  0  0  0  0  0  0
   -9.5884   -8.4239   -9.2286 F   0  0  0  0  0  0  0  0  0  0  0  0
   -8.2471   -9.4840  -10.5583 F   0  0  0  0  0  0  0  0  0  0  0  0
   -6.7827  -10.6946   -8.3144 C   0  0  0  0  0  0  0  0  0  0  0  0
   -7.4916   -5.0583   -4.2238 H   0  0  0  0  0  0  0  0  0  0  0  0
   -6.7412   -4.9881   -5.8341 H   0  0  0  0  0  0  0  0  0  0  0  0
   -5.7478   -5.2603   -4.3698 H   0  0  0  0  0  0  0  0  0  0  0  0
   -6.9451   -7.4514   -3.9479 H   0  0  0  0  0  0  0  0  0  0  0  0
   -8.1584   -6.7575   -7.6070 H   0  0  0  0  0  0  0  0  0  0  0  0
   -6.4101   -6.4800   -7.4688 H   0  0  0  0  0  0  0  0  0  0  0  0
   -5.0306   -8.8089   -8.9860 H   0  0  0  0  0  0  0  0  0  0  0  0
   -4.9012   -8.0835   -7.4093 H   0  0  0  0  0  0  0  0  0  0  0  0
   -4.6543  -12.0753   -6.9842 H   0  0  0  0  0  0  0  0  0  0  0  0
   -3.6160  -10.6676   -6.8728 H   0  0  0  0  0  0  0  0  0  0  0  0
   -4.0747  -11.3331   -8.4322 H   0  0  0  0  0  0  0  0  0  0  0  0
   -6.4033  -10.9872   -5.5512 H   0  0  0  0  0  0  0  0  0  0  0  0
   -5.3482   -9.5980   -5.3466 H   0  0  0  0  0  0  0  0  0  0  0  0
   -8.7032  -10.5707   -6.6127 H   0  0  0  0  0  0  0  0  0  0  0  0
   -9.1797   -8.8949   -6.7447 H   0  0  0  0  0  0  0  0  0  0  0  0
   -6.4382  -10.8889   -9.3276 H   0  0  0  0  0  0  0  0  0  0  0  0
   -7.2379  -11.6169   -7.9523 H   0  0  0  0  0  0  0  0  0  0  0  0
  1  2  1  0
  1 18  1  0
  1 19  1  0
  1 20  1  0
  2  3  2  3
  2 21  1  0
  3 10  1  0
  3  4  1  0
  4  5  1  0
  4 22  1  0
  4 23  1  0
  5 12  1  0
  5  6  1  0
  6  7  1  0
  6 24  1  0
  6 25  1  0
  7 17  1  0
  7  8  1  1
  7  9  1  0
  8 26  1  0
  8 27  1  0
  8 28  1  0
  9 10  1  0
  9 29  1  0
  9 30  1  0
 10 11  1  0
 11 12  1  0
 11 31  1  0
 11 32  1  0
 12 13  1  6
 12 17  1  0
 13 14  1  0
 13 15  1  0
 13 16  1  0
 17 33  1  0
 17 34  1  0
M  END
>  <i_m_ct_stereo_status>  (15) 
1

>  <s_m_source_file>  (15) 
/var/tmp/pbs.5076255.sched01/tmp9stzsw2m/06nqgg2pe.sdf

>  <i_m_source_file_index>  (15) 
11

>  <i_lp_mmshare_version>  (15) 
48012

>  <i_f3d_flags>  (15) 
0

>  <s_epik_input>  (15) 
W0NIM10vW0NIXT1DKC9bQ0gyXTEpTihbQ0gyXTIpW0NIMl1bQ0BdKEMoRikoRilGKShbQ0gyXTMpTjFbQ0gyXVtDQEBdMjNbQ0gzXQ==

>  <s_epik_cmdline>  (15) 
J2VwaWtfcHl0aG9uJywgJy1waHQnLCAnMi4wJywgJy1waCcsICc3LjAnLCAnLXRuJywgJzgnLCAnLW1hJywgJzIwMCcsICctaW1hZScsICc8aW5maWxlLm1hZT4nLCAnLW9tYWUnLCAnPG91dGZpbGUubWFlPic=

>  <r_epik_Ionization_Penalty>  (15) 
2.3152

>  <r_epik_Ionization_Penalty_Charging>  (15) 
2.31493

>  <r_epik_Ionization_Penalty_Neutral>  (15) 
0.000268238

>  <r_epik_State_Penalty>  (15) 
2.47582

>  <r_epik_Charging_Adjusted_Penalty>  (15) 
4.79075

>  <i_epik_Tot_Q>  (15) 
0

>  <i_epik_Tot_abs_Q>  (15) 
0

>  <s_epik_Chemistry_Notes>  (15) 
This compound has an imine and may undergo hydrolysis.

>  <s_lp_Force_Field>  (15) 
OPLS3e

>  <r_lp_Energy>  (15) 
39.9077

>  <b_lp_Chiralities_Consistent>  (15) 
1

>  <s_lp_Variant>  (15) 
6:0-3

>  <s_i_glide_gridfile>  (15) 
pfpi4k_grid

>  <i_i_glide_lignum>  (15) 
11

>  <i_i_glide_rotatable_bonds>  (15) 
1

>  <r_i_docking_score>  (15) 
-4.03568

>  <r_i_glide_ligand_efficiency>  (15) 
-0.237393

>  <r_i_glide_ligand_efficiency_sa>  (15) 
-0.610404

>  <r_i_glide_ligand_efficiency_ln>  (15) 
-1.05282

>  <r_i_glide_gscore>  (15) 
-4.03568

>  <r_i_glide_lipo>  (15) 
-1.56281

>  <r_i_glide_hbond>  (15) 
0

>  <r_i_glide_metal>  (15) 
-0

>  <r_i_glide_rewards>  (15) 
-2.10346

>  <r_i_glide_evdw>  (15) 
-7.83677

>  <r_i_glide_ecoul>  (15) 
0.14955

>  <r_i_glide_erotb>  (15) 
0

>  <r_i_glide_esite>  (15) 
0

>  <r_i_glide_emodel>  (15) 
-7.96008

>  <r_i_glide_energy>  (15) 
-7.68722

>  <r_i_glide_einternal>  (15) 
0.000545315

>  <r_i_glide_intrahb_reward>  (15) 
-0

>  <i_i_glide_confnum>  (15) 
1

>  <i_i_glide_posenum>  (15) 
1

>  <r_i_glide_eff_state_penalty>  (15) 
0

>  <ligand_id>  (15) 
6

>  <original_smiles>  (15) 
CC=C1CN2CC3(C)CN1CC2(C(F)(F)F)C3

>  <smiles>  (15) 
[H]C(=C1N2C([H])([H])C3(C(F)(F)F)N(C1([H])[H])C([H])([H])C(C([H])([H])[H])(C2([H])[H])C3([H])[H])C([H])([H])[H]

$$$$
6:2:1
     RDKit          3D

 34 36  0  0  1  0  0  0  0  0999 V2000
   -6.9494   -5.1883   -5.5254 C   0  0  0  0  0  0  0  0  0  0  0  0
   -7.4233   -6.6307   -5.6560 C   0  0  0  0  0  0  0  0  0  0  0  0
   -7.8376   -7.2588   -6.7525 C   0  0  0  0  0  0  0  0  0  0  0  0
   -7.8752   -6.6366   -8.1625 C   0  0  0  0  0  0  0  0  0  0  0  0
   -7.8697   -7.6649   -9.2141 N   0  0  0  0  0  0  0  0  0  0  0  0
   -6.6466   -8.4569   -9.0602 C   0  0  0  0  0  0  0  0  0  0  0  0
   -7.0465   -9.8244   -8.4743 C   0  0  1  0  0  0  0  0  0  0  0  0
   -6.0578  -10.9720   -8.6537 C   0  0  0  0  0  0  0  0  0  0  0  0
   -7.3378   -9.6810   -6.9724 C   0  0  0  0  0  0  0  0  0  0  0  0
   -8.2664   -8.5657   -6.7825 N   0  0  0  0  0  0  0  0  0  0  0  0
   -9.4428   -8.7170   -7.6415 C   0  0  0  0  0  0  0  0  0  0  0  0
   -8.9699   -8.6647   -9.1008 C   0  0  1  0  0  0  0  0  0  0  0  0
  -10.1112   -8.3703  -10.0933 C   0  0  0  0  0  0  0  0  0  0  0  0
  -11.0526   -9.3058  -10.0009 F   0  0  0  0  0  0  0  0  0  0  0  0
  -10.6615   -7.1789   -9.8438 F   0  0  0  0  0  0  0  0  0  0  0  0
   -9.6402   -8.3606  -11.3472 F   0  0  0  0  0  0  0  0  0  0  0  0
   -8.3083  -10.0274   -9.2982 C   0  0  0  0  0  0  0  0  0  0  0  0
   -7.5750   -4.6413   -4.8184 H   0  0  0  0  0  0  0  0  0  0  0  0
   -6.9679   -4.6551   -6.4779 H   0  0  0  0  0  0  0  0  0  0  0  0
   -5.9306   -5.1858   -5.1396 H   0  0  0  0  0  0  0  0  0  0  0  0
   -7.4328   -7.1720   -4.7218 H   0  0  0  0  0  0  0  0  0  0  0  0
   -8.7447   -5.9863   -8.2370 H   0  0  0  0  0  0  0  0  0  0  0  0
   -6.9931   -6.0153   -8.2598 H   0  0  0  0  0  0  0  0  0  0  0  0
   -6.3296   -8.5888  -10.0635 H   0  0  0  0  0  0  0  0  0  0  0  0
   -5.8426   -7.9447   -8.5104 H   0  0  0  0  0  0  0  0  0  0  0  0
   -6.4258  -11.9072   -8.2370 H   0  0  0  0  0  0  0  0  0  0  0  0
   -5.1128  -10.7310   -8.1729 H   0  0  0  0  0  0  0  0  0  0  0  0
   -5.8311  -11.1668   -9.6938 H   0  0  0  0  0  0  0  0  0  0  0  0
   -7.7958  -10.5787   -6.5703 H   0  0  0  0  0  0  0  0  0  0  0  0
   -6.4334   -9.4865   -6.4002 H   0  0  0  0  0  0  0  0  0  0  0  0
   -9.9862   -9.6272   -7.4211 H   0  0  0  0  0  0  0  0  0  0  0  0
  -10.1474   -7.8919   -7.5259 H   0  0  0  0  0  0  0  0  0  0  0  0
   -8.0887  -10.2000  -10.3528 H   0  0  0  0  0  0  0  0  0  0  0  0
   -8.9199  -10.8540   -8.9478 H   0  0  0  0  0  0  0  0  0  0  0  0
  1  2  1  0
  1 18  1  0
  1 19  1  0
  1 20  1  0
  2  3  2  3
  2 21  1  0
  3 10  1  0
  3  4  1  0
  4  5  1  0
  4 22  1  0
  4 23  1  0
  5 12  1  0
  5  6  1  0
  6  7  1  0
  6 24  1  0
  6 25  1  0
  7 17  1  0
  7  8  1  1
  7  9  1  0
  8 26  1  0
  8 27  1  0
  8 28  1  0
  9 10  1  0
  9 29  1  0
  9 30  1  0
 10 11  1  0
 11 12  1  0
 11 31  1  0
 11 32  1  0
 12 13  1  6
 12 17  1  0
 13 14  1  0
 13 15  1  0
 13 16  1  0
 17 33  1  0
 17 34  1  0
M  END
>  <i_m_ct_stereo_status>  (16) 
1

>  <s_m_source_file>  (16) 
/var/tmp/pbs.5076255.sched01/tmp9stzsw2m/06nqgg2pe.sdf

>  <i_m_source_file_index>  (16) 
11

>  <i_lp_mmshare_version>  (16) 
48012

>  <i_f3d_flags>  (16) 
0

>  <s_epik_input>  (16) 
W0NIM10vW0NIXT1DKC9bQ0gyXTEpTihbQ0gyXTIpW0NIMl1bQ0BdKEMoRikoRilGKShbQ0gyXTMpTjFbQ0gyXVtDQEBdMjNbQ0gzXQ==

>  <s_epik_cmdline>  (16) 
J2VwaWtfcHl0aG9uJywgJy1waHQnLCAnMi4wJywgJy1waCcsICc3LjAnLCAnLXRuJywgJzgnLCAnLW1hJywgJzIwMCcsICctaW1hZScsICc8aW5maWxlLm1hZT4nLCAnLW9tYWUnLCAnPG91dGZpbGUubWFlPic=

>  <r_epik_Ionization_Penalty>  (16) 
2.3152

>  <r_epik_Ionization_Penalty_Charging>  (16) 
2.31493

>  <r_epik_Ionization_Penalty_Neutral>  (16) 
0.000268238

>  <r_epik_State_Penalty>  (16) 
2.47582

>  <r_epik_Charging_Adjusted_Penalty>  (16) 
4.79075

>  <i_epik_Tot_Q>  (16) 
0

>  <i_epik_Tot_abs_Q>  (16) 
0

>  <s_epik_Chemistry_Notes>  (16) 
This compound has an imine and may undergo hydrolysis.

>  <s_lp_Force_Field>  (16) 
OPLS3e

>  <r_lp_Energy>  (16) 
39.9077

>  <b_lp_Chiralities_Consistent>  (16) 
1

>  <s_lp_Variant>  (16) 
6:0-3

>  <s_i_glide_gridfile>  (16) 
pfpi4k_grid

>  <i_i_glide_lignum>  (16) 
11

>  <i_i_glide_rotatable_bonds>  (16) 
1

>  <r_i_docking_score>  (16) 
-3.70354

>  <r_i_glide_ligand_efficiency>  (16) 
-0.217855

>  <r_i_glide_ligand_efficiency_sa>  (16) 
-0.560168

>  <r_i_glide_ligand_efficiency_ln>  (16) 
-0.966172

>  <r_i_glide_gscore>  (16) 
-3.70354

>  <r_i_glide_lipo>  (16) 
-1.56589

>  <r_i_glide_hbond>  (16) 
0

>  <r_i_glide_metal>  (16) 
-0

>  <r_i_glide_rewards>  (16) 
-1.94866

>  <r_i_glide_evdw>  (16) 
-3.37

>  <r_i_glide_ecoul>  (16) 
-0.0446026

>  <r_i_glide_erotb>  (16) 
0

>  <r_i_glide_esite>  (16) 
-0.0138081

>  <r_i_glide_emodel>  (16) 
-3.52166

>  <r_i_glide_energy>  (16) 
-3.4146

>  <r_i_glide_einternal>  (16) 
0.00304406

>  <r_i_glide_intrahb_reward>  (16) 
-0

>  <i_i_glide_confnum>  (16) 
1

>  <i_i_glide_posenum>  (16) 
31

>  <r_i_glide_eff_state_penalty>  (16) 
0

>  <ligand_id>  (16) 
6

>  <original_smiles>  (16) 
CC=C1CN2CC3(C)CN1CC2(C(F)(F)F)C3

>  <smiles>  (16) 
[H]C(=C1N2C([H])([H])C3(C(F)(F)F)N(C1([H])[H])C([H])([H])C(C([H])([H])[H])(C2([H])[H])C3([H])[H])C([H])([H])[H]

$$$$
6:3:0
     RDKit          3D

 34 36  0  0  1  0  0  0  0  0999 V2000
    2.5124    0.1479   -5.0129 C   0  0  0  0  0  0  0  0  0  0  0  0
    3.9353   -0.3717   -4.9225 C   0  0  0  0  0  0  0  0  0  0  0  0
    4.2122   -1.1408   -3.6489 C   0  0  0  0  0  0  0  0  0  0  0  0
    4.5707   -0.5660   -2.4890 C   0  0  0  0  0  0  0  0  0  0  0  0
    4.7426   -1.3498   -1.3553 N   0  0  0  0  0  0  0  0  0  0  0  0
    3.4159   -1.6715   -0.8503 C   0  0  0  0  0  0  0  0  0  0  0  0
    3.1145   -3.0763   -1.3939 C   0  0  1  0  0  0  0  0  0  0  0  0
    1.8787   -3.7068   -0.7735 C   0  0  0  0  0  0  0  0  0  0  0  0
    2.9945   -3.1002   -2.9709 C   0  0  0  0  0  0  0  0  0  0  0  0
    4.1704   -2.5316   -3.6544 N   0  0  0  0  0  0  0  0  0  0  0  0
    5.3721   -3.0947   -3.0266 C   0  0  0  0  0  0  0  0  0  0  0  0
    5.3842   -2.6816   -1.5184 C   0  0  1  0  0  0  0  0  0  0  0  0
    6.7855   -2.7243   -0.8507 C   0  0  0  0  0  0  0  0  0  0  0  0
    7.1229   -3.9631   -0.5119 F   0  0  0  0  0  0  0  0  0  0  0  0
    7.7120   -2.2635   -1.6729 F   0  0  0  0  0  0  0  0  0  0  0  0
    6.8021   -1.9958    0.2666 F   0  0  0  0  0  0  0  0  0  0  0  0
    4.4092   -3.7030   -0.9145 C   0  0  0  0  0  0  0  0  0  0  0  0
    2.3632    0.6785   -5.9433 H   0  0  0  0  0  0  0  0  0  0  0  0
    2.2940    0.8592   -4.2300 H   0  0  0  0  0  0  0  0  0  0  0  0
    1.8071   -0.6670   -4.9451 H   0  0  0  0  0  0  0  0  0  0  0  0
    4.1031   -1.0242   -5.7668 H   0  0  0  0  0  0  0  0  0  0  0  0
    4.6184    0.4982   -2.3476 H   0  0  0  0  0  0  0  0  0  0  0  0
    3.4438   -1.6590    0.2404 H   0  0  0  0  0  0  0  0  0  0  0  0
    2.6855   -0.9308   -1.1695 H   0  0  0  0  0  0  0  0  0  0  0  0
    1.7500   -4.7409   -1.0796 H   0  0  0  0  0  0  0  0  0  0  0  0
    1.0248   -3.1538   -1.1490 H   0  0  0  0  0  0  0  0  0  0  0  0
    1.9172   -3.6659    0.3142 H   0  0  0  0  0  0  0  0  0  0  0  0
    2.8813   -4.1198   -3.3300 H   0  0  0  0  0  0  0  0  0  0  0  0
    2.0931   -2.5691   -3.2881 H   0  0  0  0  0  0  0  0  0  0  0  0
    5.4247   -4.1750   -3.1669 H   0  0  0  0  0  0  0  0  0  0  0  0
    6.2443   -2.6731   -3.5139 H   0  0  0  0  0  0  0  0  0  0  0  0
    4.4719   -3.7133    0.1758 H   0  0  0  0  0  0  0  0  0  0  0  0
    4.5498   -4.7236   -1.2719 H   0  0  0  0  0  0  0  0  0  0  0  0
    4.6124    0.4791   -5.0173 H   0  0  0  0  0  0  0  0  0  0  0  0
  1  2  1  0
  1 18  1  0
  1 19  1  0
  1 20  1  0
  2  3  1  0
  2 21  1  0
  2 34  1  0
  3 10  1  0
  3  4  2  0
  4  5  1  0
  4 22  1  0
  5 12  1  0
  5  6  1  0
  6  7  1  0
  6 23  1  0
  6 24  1  0
  7 17  1  0
  7  8  1  1
  7  9  1  0
  8 25  1  0
  8 26  1  0
  8 27  1  0
  9 10  1  0
  9 28  1  0
  9 29  1  0
 10 11  1  0
 11 12  1  0
 11 30  1  0
 11 31  1  0
 12 13  1  1
 12 17  1  0
 13 14  1  0
 13 15  1  0
 13 16  1  0
 17 32  1  0
 17 33  1  0
M  END
>  <i_m_ct_stereo_status>  (17) 
1

>  <s_m_source_file>  (17) 
/var/tmp/pbs.5076255.sched01/tmp9stzsw2m/06nqgg2pe.sdf

>  <i_m_source_file_index>  (17) 
12

>  <i_lp_mmshare_version>  (17) 
48012

>  <i_f3d_flags>  (17) 
0

>  <s_epik_input>  (17) 
W0NIM10vW0NIXT1DKC9bQ0gyXTEpTihbQ0gyXTIpW0NIMl1bQ0BdKEMoRikoRilGKShbQ0gyXTMpTjFbQ0gyXVtDQEBdMjNbQ0gzXQ==

>  <s_epik_cmdline>  (17) 
J2VwaWtfcHl0aG9uJywgJy1waHQnLCAnMi4wJywgJy1waCcsICc3LjAnLCAnLXRuJywgJzgnLCAnLW1hJywgJzIwMCcsICctaW1hZScsICc8aW5maWxlLm1hZT4nLCAnLW9tYWUnLCAnPG91dGZpbGUubWFlPic=

>  <r_epik_Ionization_Penalty>  (17) 
7.33341e-05

>  <r_epik_Ionization_Penalty_Charging>  (17) 
3.07089e-07

>  <r_epik_Ionization_Penalty_Neutral>  (17) 
7.3027e-05

>  <r_epik_State_Penalty>  (17) 
2.47582

>  <r_epik_Charging_Adjusted_Penalty>  (17) 
2.47582

>  <i_epik_Tot_Q>  (17) 
0

>  <i_epik_Tot_abs_Q>  (17) 
0

>  <s_epik_Chemistry_Notes>  (17) 
This compound has an imine and may undergo hydrolysis.

>  <s_lp_Force_Field>  (17) 
OPLS3e

>  <r_lp_Energy>  (17) 
67.8824

>  <b_lp_Chiralities_Consistent>  (17) 
1

>  <s_lp_Variant>  (17) 
6:0-4

>  <s_i_glide_gridfile>  (17) 
pfpi4k_grid

>  <i_i_glide_lignum>  (17) 
12

>  <i_i_glide_rotatable_bonds>  (17) 
2

>  <r_i_docking_score>  (17) 
-4.369

>  <r_i_glide_ligand_efficiency>  (17) 
-0.257

>  <r_i_glide_ligand_efficiency_sa>  (17) 
-0.66082

>  <r_i_glide_ligand_efficiency_ln>  (17) 
-1.13978

>  <r_i_glide_gscore>  (17) 
-4.369

>  <r_i_glide_lipo>  (17) 
-0.644362

>  <r_i_glide_hbond>  (17) 
0

>  <r_i_glide_metal>  (17) 
-0

>  <r_i_glide_rewards>  (17) 
-2.09427

>  <r_i_glide_evdw>  (17) 
-16.259

>  <r_i_glide_ecoul>  (17) 
-4.48134

>  <r_i_glide_erotb>  (17) 
0

>  <r_i_glide_esite>  (17) 
-0.145219

>  <r_i_glide_emodel>  (17) 
-22.8001

>  <r_i_glide_energy>  (17) 
-20.7404

>  <r_i_glide_einternal>  (17) 
3.7351

>  <r_i_glide_intrahb_reward>  (17) 
-0

>  <i_i_glide_confnum>  (17) 
2

>  <i_i_glide_posenum>  (17) 
18

>  <r_i_glide_eff_state_penalty>  (17) 
0

>  <ligand_id>  (17) 
6

>  <original_smiles>  (17) 
CC=C1CN2CC3(C)CN1CC2(C(F)(F)F)C3

>  <smiles>  (17) 
[H]C1=C(C([H])([H])C([H])([H])[H])N2C([H])([H])C3(C(F)(F)F)N1C([H])([H])C(C([H])([H])[H])(C2([H])[H])C3([H])[H]

$$$$
6:3:1
     RDKit          3D

 34 36  0  0  1  0  0  0  0  0999 V2000
    3.9686   -0.5484   -4.4793 C   0  0  0  0  0  0  0  0  0  0  0  0
    3.9257   -0.1045   -3.0149 C   0  0  0  0  0  0  0  0  0  0  0  0
    4.4894   -1.1107   -2.0263 C   0  0  0  0  0  0  0  0  0  0  0  0
    4.9282   -0.8466   -0.7757 C   0  0  0  0  0  0  0  0  0  0  0  0
    5.3163   -1.9066    0.0426 N   0  0  0  0  0  0  0  0  0  0  0  0
    4.1025   -2.5438    0.5476 C   0  0  0  0  0  0  0  0  0  0  0  0
    3.8777   -3.7599   -0.3610 C   0  0  1  0  0  0  0  0  0  0  0  0
    2.8095   -4.7034    0.2065 C   0  0  0  0  0  0  0  0  0  0  0  0
    3.5711   -3.3303   -1.8497 C   0  0  0  0  0  0  0  0  0  0  0  0
    4.5805   -2.4328   -2.4319 N   0  0  0  0  0  0  0  0  0  0  0  0
    5.9158   -2.9494   -2.1489 C   0  0  0  0  0  0  0  0  0  0  0  0
    6.0707   -3.0273   -0.5983 C   0  0  1  0  0  0  0  0  0  0  0  0
    7.5575   -3.0637   -0.1673 C   0  0  0  0  0  0  0  0  0  0  0  0
    8.2793   -3.8626   -0.9385 F   0  0  0  0  0  0  0  0  0  0  0  0
    8.0955   -1.8542   -0.2514 F   0  0  0  0  0  0  0  0  0  0  0  0
    7.6552   -3.4866    1.0924 F   0  0  0  0  0  0  0  0  0  0  0  0
    5.2896   -4.3131   -0.2551 C   0  0  0  0  0  0  0  0  0  0  0  0
    3.5759    0.2267   -5.1391 H   0  0  0  0  0  0  0  0  0  0  0  0
    3.3783   -1.4493   -4.6436 H   0  0  0  0  0  0  0  0  0  0  0  0
    4.9993   -0.7577   -4.7498 H   0  0  0  0  0  0  0  0  0  0  0  0
    4.4845    0.8282   -2.9256 H   0  0  0  0  0  0  0  0  0  0  0  0
    4.9030    0.1204   -0.2966 H   0  0  0  0  0  0  0  0  0  0  0  0
    4.2837   -2.8450    1.5801 H   0  0  0  0  0  0  0  0  0  0  0  0
    3.2419   -1.8679    0.5511 H   0  0  0  0  0  0  0  0  0  0  0  0
    2.7506   -5.6284   -0.3540 H   0  0  0  0  0  0  0  0  0  0  0  0
    1.8293   -4.2326    0.1787 H   0  0  0  0  0  0  0  0  0  0  0  0
    3.0245   -4.9831    1.2367 H   0  0  0  0  0  0  0  0  0  0  0  0
    3.5612   -4.1891   -2.5016 H   0  0  0  0  0  0  0  0  0  0  0  0
    2.5945   -2.8519   -1.9116 H   0  0  0  0  0  0  0  0  0  0  0  0
    6.0695   -3.9137   -2.6316 H   0  0  0  0  0  0  0  0  0  0  0  0
    6.6653   -2.2741   -2.5569 H   0  0  0  0  0  0  0  0  0  0  0  0
    5.5013   -4.6463    0.7623 H   0  0  0  0  0  0  0  0  0  0  0  0
    5.4711   -5.1559   -0.9230 H   0  0  0  0  0  0  0  0  0  0  0  0
    2.8919    0.1032   -2.7430 H   0  0  0  0  0  0  0  0  0  0  0  0
  1  2  1  0
  1 18  1  0
  1 19  1  0
  1 20  1  0
  2  3  1  0
  2 21  1  0
  2 34  1  0
  3 10  1  0
  3  4  2  0
  4  5  1  0
  4 22  1  0
  5 12  1  0
  5  6  1  0
  6  7  1  0
  6 23  1  0
  6 24  1  0
  7 17  1  0
  7  8  1  1
  7  9  1  0
  8 25  1  0
  8 26  1  0
  8 27  1  0
  9 10  1  0
  9 28  1  0
  9 29  1  0
 10 11  1  0
 11 12  1  0
 11 30  1  0
 11 31  1  0
 12 13  1  6
 12 17  1  0
 13 14  1  0
 13 15  1  0
 13 16  1  0
 17 32  1  0
 17 33  1  0
M  END
>  <i_m_ct_stereo_status>  (18) 
1

>  <s_m_source_file>  (18) 
/var/tmp/pbs.5076255.sched01/tmp9stzsw2m/06nqgg2pe.sdf

>  <i_m_source_file_index>  (18) 
12

>  <i_lp_mmshare_version>  (18) 
48012

>  <i_f3d_flags>  (18) 
0

>  <s_epik_input>  (18) 
W0NIM10vW0NIXT1DKC9bQ0gyXTEpTihbQ0gyXTIpW0NIMl1bQ0BdKEMoRikoRilGKShbQ0gyXTMpTjFbQ0gyXVtDQEBdMjNbQ0gzXQ==

>  <s_epik_cmdline>  (18) 
J2VwaWtfcHl0aG9uJywgJy1waHQnLCAnMi4wJywgJy1waCcsICc3LjAnLCAnLXRuJywgJzgnLCAnLW1hJywgJzIwMCcsICctaW1hZScsICc8aW5maWxlLm1hZT4nLCAnLW9tYWUnLCAnPG91dGZpbGUubWFlPic=

>  <r_epik_Ionization_Penalty>  (18) 
7.33341e-05

>  <r_epik_Ionization_Penalty_Charging>  (18) 
3.07089e-07

>  <r_epik_Ionization_Penalty_Neutral>  (18) 
7.3027e-05

>  <r_epik_State_Penalty>  (18) 
2.47582

>  <r_epik_Charging_Adjusted_Penalty>  (18) 
2.47582

>  <i_epik_Tot_Q>  (18) 
0

>  <i_epik_Tot_abs_Q>  (18) 
0

>  <s_epik_Chemistry_Notes>  (18) 
This compound has an imine and may undergo hydrolysis.

>  <s_lp_Force_Field>  (18) 
OPLS3e

>  <r_lp_Energy>  (18) 
67.8824

>  <b_lp_Chiralities_Consistent>  (18) 
1

>  <s_lp_Variant>  (18) 
6:0-4

>  <s_i_glide_gridfile>  (18) 
pfpi4k_grid

>  <i_i_glide_lignum>  (18) 
12

>  <i_i_glide_rotatable_bonds>  (18) 
2

>  <r_i_docking_score>  (18) 
-3.9268

>  <r_i_glide_ligand_efficiency>  (18) 
-0.230988

>  <r_i_glide_ligand_efficiency_sa>  (18) 
-0.593936

>  <r_i_glide_ligand_efficiency_ln>  (18) 
-1.02442

>  <r_i_glide_gscore>  (18) 
-3.9268

>  <r_i_glide_lipo>  (18) 
-0.686465

>  <r_i_glide_hbond>  (18) 
0

>  <r_i_glide_metal>  (18) 
-0

>  <r_i_glide_rewards>  (18) 
-1.97256

>  <r_i_glide_evdw>  (18) 
-16.3423

>  <r_i_glide_ecoul>  (18) 
-2.61147

>  <r_i_glide_erotb>  (18) 
0

>  <r_i_glide_esite>  (18) 
-0.0589459

>  <r_i_glide_emodel>  (18) 
-22.1527

>  <r_i_glide_energy>  (18) 
-18.9538

>  <r_i_glide_einternal>  (18) 
1.71735

>  <r_i_glide_intrahb_reward>  (18) 
-0

>  <i_i_glide_confnum>  (18) 
1

>  <i_i_glide_posenum>  (18) 
2

>  <r_i_glide_eff_state_penalty>  (18) 
0

>  <ligand_id>  (18) 
6

>  <original_smiles>  (18) 
CC=C1CN2CC3(C)CN1CC2(C(F)(F)F)C3

>  <smiles>  (18) 
[H]C1=C(C([H])([H])C([H])([H])[H])N2C([H])([H])C3(C(F)(F)F)N1C([H])([H])C(C([H])([H])[H])(C2([H])[H])C3([H])[H]

$$$$
6:3:2
     RDKit          3D

 34 36  0  0  1  0  0  0  0  0999 V2000
    2.4706    0.4499    1.7376 C   0  0  0  0  0  0  0  0  0  0  0  0
    3.9172    0.1702    1.3098 C   0  0  0  0  0  0  0  0  0  0  0  0
    4.1282   -1.2008    0.6904 C   0  0  0  0  0  0  0  0  0  0  0  0
    3.3709   -2.2998    0.9030 C   0  0  0  0  0  0  0  0  0  0  0  0
    3.6364   -3.4480    0.1647 N   0  0  0  0  0  0  0  0  0  0  0  0
    3.0733   -3.2717   -1.1716 C   0  0  0  0  0  0  0  0  0  0  0  0
    4.2595   -2.8353   -2.0458 C   0  0  1  0  0  0  0  0  0  0  0  0
    3.9190   -2.8663   -3.5422 C   0  0  0  0  0  0  0  0  0  0  0  0
    4.8500   -1.4333   -1.6199 C   0  0  0  0  0  0  0  0  0  0  0  0
    5.1984   -1.3444   -0.1882 N   0  0  0  0  0  0  0  0  0  0  0  0
    5.9693   -2.5320    0.1895 C   0  0  0  0  0  0  0  0  0  0  0  0
    5.0727   -3.7838   -0.0853 C   0  0  1  0  0  0  0  0  0  0  0  0
    5.5353   -5.0173    0.7213 C   0  0  0  0  0  0  0  0  0  0  0  0
    5.3912   -4.7991    2.0293 F   0  0  0  0  0  0  0  0  0  0  0  0
    4.8102   -6.0882    0.3900 F   0  0  0  0  0  0  0  0  0  0  0  0
    6.8196   -5.2795    0.4789 F   0  0  0  0  0  0  0  0  0  0  0  0
    5.2023   -3.9518   -1.6099 C   0  0  0  0  0  0  0  0  0  0  0  0
    2.3748    1.4516    2.1564 H   0  0  0  0  0  0  0  0  0  0  0  0
    2.1292   -0.2554    2.4952 H   0  0  0  0  0  0  0  0  0  0  0  0
    1.7977    0.3826    0.8822 H   0  0  0  0  0  0  0  0  0  0  0  0
    4.2368    0.9375    0.6042 H   0  0  0  0  0  0  0  0  0  0  0  0
    2.5018   -2.3470    1.5410 H   0  0  0  0  0  0  0  0  0  0  0  0
    2.6678   -4.2286   -1.5032 H   0  0  0  0  0  0  0  0  0  0  0  0
    2.2581   -2.5502   -1.2013 H   0  0  0  0  0  0  0  0  0  0  0  0
    4.8040   -2.6662   -4.1394 H   0  0  0  0  0  0  0  0  0  0  0  0
    3.1717   -2.1116   -3.7879 H   0  0  0  0  0  0  0  0  0  0  0  0
    3.5243   -3.8349   -3.8440 H   0  0  0  0  0  0  0  0  0  0  0  0
    5.7539   -1.2369   -2.1967 H   0  0  0  0  0  0  0  0  0  0  0  0
    4.1438   -0.6353   -1.8561 H   0  0  0  0  0  0  0  0  0  0  0  0
    6.9178   -2.5820   -0.3480 H   0  0  0  0  0  0  0  0  0  0  0  0
    6.2176   -2.4738    1.2523 H   0  0  0  0  0  0  0  0  0  0  0  0
    4.8390   -4.9296   -1.9253 H   0  0  0  0  0  0  0  0  0  0  0  0
    6.2170   -3.8430   -1.9951 H   0  0  0  0  0  0  0  0  0  0  0  0
    4.5684    0.2477    2.1796 H   0  0  0  0  0  0  0  0  0  0  0  0
  1  2  1  0
  1 18  1  0
  1 19  1  0
  1 20  1  0
  2  3  1  0
  2 21  1  0
  2 34  1  0
  3 10  1  0
  3  4  2  0
  4  5  1  0
  4 22  1  0
  5 12  1  0
  5  6  1  0
  6  7  1  0
  6 23  1  0
  6 24  1  0
  7 17  1  0
  7  8  1  6
  7  9  1  0
  8 25  1  0
  8 26  1  0
  8 27  1  0
  9 10  1  0
  9 28  1  0
  9 29  1  0
 10 11  1  0
 11 12  1  0
 11 30  1  0
 11 31  1  0
 12 13  1  1
 12 17  1  0
 13 14  1  0
 13 15  1  0
 13 16  1  0
 17 32  1  0
 17 33  1  0
M  END
>  <i_m_ct_stereo_status>  (19) 
1

>  <s_m_source_file>  (19) 
/var/tmp/pbs.5076255.sched01/tmp9stzsw2m/06nqgg2pe.sdf

>  <i_m_source_file_index>  (19) 
12

>  <i_lp_mmshare_version>  (19) 
48012

>  <i_f3d_flags>  (19) 
0

>  <s_epik_input>  (19) 
W0NIM10vW0NIXT1DKC9bQ0gyXTEpTihbQ0gyXTIpW0NIMl1bQ0BdKEMoRikoRilGKShbQ0gyXTMpTjFbQ0gyXVtDQEBdMjNbQ0gzXQ==

>  <s_epik_cmdline>  (19) 
J2VwaWtfcHl0aG9uJywgJy1waHQnLCAnMi4wJywgJy1waCcsICc3LjAnLCAnLXRuJywgJzgnLCAnLW1hJywgJzIwMCcsICctaW1hZScsICc8aW5maWxlLm1hZT4nLCAnLW9tYWUnLCAnPG91dGZpbGUubWFlPic=

>  <r_epik_Ionization_Penalty>  (19) 
7.33341e-05

>  <r_epik_Ionization_Penalty_Charging>  (19) 
3.07089e-07

>  <r_epik_Ionization_Penalty_Neutral>  (19) 
7.3027e-05

>  <r_epik_State_Penalty>  (19) 
2.47582

>  <r_epik_Charging_Adjusted_Penalty>  (19) 
2.47582

>  <i_epik_Tot_Q>  (19) 
0

>  <i_epik_Tot_abs_Q>  (19) 
0

>  <s_epik_Chemistry_Notes>  (19) 
This compound has an imine and may undergo hydrolysis.

>  <s_lp_Force_Field>  (19) 
OPLS3e

>  <r_lp_Energy>  (19) 
67.8824

>  <b_lp_Chiralities_Consistent>  (19) 
1

>  <s_lp_Variant>  (19) 
6:0-4

>  <s_i_glide_gridfile>  (19) 
pfpi4k_grid

>  <i_i_glide_lignum>  (19) 
12

>  <i_i_glide_rotatable_bonds>  (19) 
2

>  <r_i_docking_score>  (19) 
-3.62205

>  <r_i_glide_ligand_efficiency>  (19) 
-0.213062

>  <r_i_glide_ligand_efficiency_sa>  (19) 
-0.547842

>  <r_i_glide_ligand_efficiency_ln>  (19) 
-0.944913

>  <r_i_glide_gscore>  (19) 
-3.62205

>  <r_i_glide_lipo>  (19) 
-0.480092

>  <r_i_glide_hbond>  (19) 
0

>  <r_i_glide_metal>  (19) 
-0

>  <r_i_glide_rewards>  (19) 
-2.11611

>  <r_i_glide_evdw>  (19) 
-18.2574

>  <r_i_glide_ecoul>  (19) 
-0.680524

>  <r_i_glide_erotb>  (19) 
0

>  <r_i_glide_esite>  (19) 
-0.0108973

>  <r_i_glide_emodel>  (19) 
-22.3405

>  <r_i_glide_energy>  (19) 
-18.9379

>  <r_i_glide_einternal>  (19) 
1.68563

>  <r_i_glide_intrahb_reward>  (19) 
-0

>  <i_i_glide_confnum>  (19) 
2

>  <i_i_glide_posenum>  (19) 
30

>  <r_i_glide_eff_state_penalty>  (19) 
0

>  <ligand_id>  (19) 
6

>  <original_smiles>  (19) 
CC=C1CN2CC3(C)CN1CC2(C(F)(F)F)C3

>  <smiles>  (19) 
[H]C1=C(C([H])([H])C([H])([H])[H])N2C([H])([H])C3(C(F)(F)F)N1C([H])([H])C(C([H])([H])[H])(C2([H])[H])C3([H])[H]

$$$$
7:0:0
     RDKit          3D

 40 41  0  0  1  0  0  0  0  0999 V2000
    6.7718   -6.5323    1.3566 C   0  0  0  0  0  0  0  0  0  0  0  0
    5.7583   -5.6912    2.1471 C   0  0  0  0  0  0  0  0  0  0  0  0
    4.3423   -5.8507    1.6679 C   0  0  0  0  0  0  0  0  0  0  0  0
    3.5695   -6.8866    1.9658 N   0  0  0  0  0  0  0  0  0  0  0  0
    2.3633   -6.5846    1.3610 N   0  0  0  0  0  0  0  0  0  0  0  0
    2.4127   -5.4396    0.7569 N   0  0  0  0  0  0  0  0  0  0  0  0
    3.6796   -4.9779    0.8890 N   0  0  0  0  0  0  0  0  0  0  0  0
    4.1316   -3.6937    0.2919 C   0  0  2  0  0  0  0  0  0  0  0  0
    3.5577   -2.6402    0.9946 O   0  0  0  0  0  0  0  0  0  0  0  0
    3.8045   -1.4594    0.2351 C   0  0  1  0  0  0  0  0  0  0  0  0
    5.2542   -0.9520    0.4097 C   0  0  0  0  0  0  0  0  0  0  0  0
    5.4077   -0.2653    1.6333 O   0  0  0  0  0  0  0  0  0  0  0  0
    5.5036   -0.9394    2.7802 C   0  0  0  0  0  0  0  0  0  0  0  0
    5.7091   -0.0049    3.9492 C   0  0  0  0  0  0  0  0  0  0  0  0
    5.4567   -2.1602    2.9285 O   0  0  0  0  0  0  0  0  0  0  0  0
    3.5212   -1.9722   -1.1667 C   0  0  1  0  0  0  0  0  0  0  0  0
    4.2012   -1.1980   -2.1571 O   0  0  0  0  0  0  0  0  0  0  0  0
    3.7248   -1.0758   -3.4150 C   0  0  0  0  0  0  0  0  0  0  0  0
    2.6052   -2.0302   -3.8030 C   0  0  0  0  0  0  0  0  0  0  0  0
    4.1873   -0.2934   -4.2449 O   0  0  0  0  0  0  0  0  0  0  0  0
    3.7109   -3.4880   -1.1548 C   0  0  1  0  0  0  0  0  0  0  0  0
    4.6975   -3.9084   -2.0662 O   0  0  0  0  0  0  0  0  0  0  0  0
    7.7784   -6.3759    1.7445 H   0  0  0  0  0  0  0  0  0  0  0  0
    6.7847   -6.2496    0.3005 H   0  0  0  0  0  0  0  0  0  0  0  0
    6.5566   -7.6008    1.4354 H   0  0  0  0  0  0  0  0  0  0  0  0
    5.7850   -5.9678    3.2014 H   0  0  0  0  0  0  0  0  0  0  0  0
    6.0629   -4.6458    2.1171 H   0  0  0  0  0  0  0  0  0  0  0  0
    5.2117   -3.6908    0.3945 H   0  0  0  0  0  0  0  0  0  0  0  0
    3.0828   -0.6835    0.4951 H   0  0  0  0  0  0  0  0  0  0  0  0
    6.0016   -1.7348    0.2709 H   0  0  0  0  0  0  0  0  0  0  0  0
    5.4861   -0.2208   -0.3624 H   0  0  0  0  0  0  0  0  0  0  0  0
    4.9164    0.7477    3.9696 H   0  0  0  0  0  0  0  0  0  0  0  0
    6.6800    0.4812    3.8363 H   0  0  0  0  0  0  0  0  0  0  0  0
    5.6914   -0.5873    4.8703 H   0  0  0  0  0  0  0  0  0  0  0  0
    2.4596   -1.8741   -1.2791 H   0  0  0  0  0  0  0  0  0  0  0  0
    2.9660   -3.0621   -3.8979 H   0  0  0  0  0  0  0  0  0  0  0  0
    2.1971   -1.6747   -4.7219 H   0  0  0  0  0  0  0  0  0  0  0  0
    1.7632   -2.0160   -3.1087 H   0  0  0  0  0  0  0  0  0  0  0  0
    2.7436   -3.9431   -1.3596 H   0  0  0  0  0  0  0  0  0  0  0  0
    4.4705   -4.7939   -2.3266 H   0  0  0  0  0  0  0  0  0  0  0  0
  1  2  1  0
  1 23  1  0
  1 24  1  0
  1 25  1  0
  2  3  1  0
  2 26  1  0
  2 27  1  0
  3  7  1  0
  3  4  2  0
  4  5  1  0
  5  6  2  0
  6  7  1  0
  7  8  1  0
  8 21  1  0
  8  9  1  0
  8 28  1  6
  9 10  1  0
 10 11  1  0
 10 16  1  0
 10 29  1  1
 11 12  1  0
 11 30  1  0
 11 31  1  0
 12 13  1  0
 13 14  1  0
 13 15  2  0
 14 32  1  0
 14 33  1  0
 14 34  1  0
 16 17  1  0
 16 21  1  0
 16 35  1  6
 17 18  1  0
 18 19  1  0
 18 20  2  0
 19 36  1  0
 19 37  1  0
 19 38  1  0
 21 22  1  0
 21 39  1  6
 22 40  1  0
M  END
>  <i_m_ct_stereo_status>  (20) 
1

>  <s_m_source_file>  (20) 
/var/tmp/pbs.5076255.sched01/tmp9stzsw2m/06nqgg2pe.sdf

>  <i_m_source_file_index>  (20) 
13

>  <i_lp_mmshare_version>  (20) 
48012

>  <i_f3d_flags>  (20) 
0

>  <s_epik_input>  (20) 
W0NIM11bQ0gyXWMxbm5ubjFbQ0BASF0yT1tDQEBIXShbQ0gyXU9DKD1PKVtDSDNdKVtDQEhdKFtDQEhdMltPSF0pT0MoPU8pW0NIM10=

>  <s_epik_cmdline>  (20) 
J2VwaWtfcHl0aG9uJywgJy1waHQnLCAnMi4wJywgJy1waCcsICc3LjAnLCAnLXRuJywgJzgnLCAnLW1hJywgJzIwMCcsICctaW1hZScsICc8aW5maWxlLm1hZT4nLCAnLW9tYWUnLCAnPG91dGZpbGUubWFlPic=

>  <r_lp_tautomer_probability>  (20) 
1

>  <r_epik_Ionization_Penalty>  (20) 
0.00844095

>  <r_epik_Ionization_Penalty_Charging>  (20) 
0

>  <r_epik_Ionization_Penalty_Neutral>  (20) 
0.00844095

>  <r_epik_State_Penalty>  (20) 
0.00636082

>  <r_epik_Charging_Adjusted_Penalty>  (20) 
0.00636082

>  <i_epik_Tot_Q>  (20) 
0

>  <i_epik_Tot_abs_Q>  (20) 
0

>  <s_epik_Chemistry_Notes>  (20) 
This compound has an ester and may undergo hydrolysis at high or low pH. This compound contains an acetal/aminal-like group ( X-CH(R)-Y where X, Y are N, S, or O) that may be acid/base labile, releasing an aldehyde.

>  <s_lp_Force_Field>  (20) 
OPLS3e

>  <r_lp_Energy>  (20) 
-0.824874

>  <b_lp_Chiralities_Consistent>  (20) 
1

>  <s_lp_Variant>  (20) 
7:0-1

>  <s_i_glide_gridfile>  (20) 
pfpi4k_grid

>  <i_i_glide_lignum>  (20) 
13

>  <i_i_glide_rotatable_bonds>  (20) 
8

>  <r_i_docking_score>  (20) 
-3.96546

>  <r_i_glide_ligand_efficiency>  (20) 
-0.180248

>  <r_i_glide_ligand_efficiency_sa>  (20) 
-0.505062

>  <r_i_glide_ligand_efficiency_ln>  (20) 
-0.969302

>  <r_i_glide_gscore>  (20) 
-3.96546

>  <r_i_glide_lipo>  (20) 
-0.511433

>  <r_i_glide_hbond>  (20) 
-0.19683

>  <r_i_glide_metal>  (20) 
-0

>  <r_i_glide_rewards>  (20) 
-1.71735

>  <r_i_glide_evdw>  (20) 
-24.0715

>  <r_i_glide_ecoul>  (20) 
-6.87893

>  <r_i_glide_erotb>  (20) 
0.752627

>  <r_i_glide_esite>  (20) 
-0.0570542

>  <r_i_glide_emodel>  (20) 
-35.1147

>  <r_i_glide_energy>  (20) 
-30.9505

>  <r_i_glide_einternal>  (20) 
8.3279

>  <r_i_glide_intrahb_reward>  (20) 
-0

>  <i_i_glide_confnum>  (20) 
6

>  <i_i_glide_posenum>  (20) 
39

>  <r_i_glide_eff_state_penalty>  (20) 
0

>  <ligand_id>  (20) 
7

>  <original_smiles>  (20) 
CCc1nnnn1C1OC(COC(C)=O)C(OC(C)=O)C1O

>  <smiles>  (20) 
[H]OC1([H])C([H])(n2nnnc2C([H])([H])C([H])([H])[H])OC([H])(C([H])([H])OC(=O)C([H])([H])[H])C1([H])OC(=O)C([H])([H])[H]

$$$$
7:0:1
     RDKit          3D

 40 41  0  0  1  0  0  0  0  0999 V2000
    1.3879   -0.6700    2.0779 C   0  0  0  0  0  0  0  0  0  0  0  0
    1.7346   -0.6896    3.5774 C   0  0  0  0  0  0  0  0  0  0  0  0
    0.7086   -1.4121    4.3996 C   0  0  0  0  0  0  0  0  0  0  0  0
    0.6971   -2.7088    4.6372 N   0  0  0  0  0  0  0  0  0  0  0  0
   -0.3579   -2.8846    5.5028 N   0  0  0  0  0  0  0  0  0  0  0  0
   -0.9658   -1.7563    5.7411 N   0  0  0  0  0  0  0  0  0  0  0  0
   -0.3032   -0.8081    5.0358 N   0  0  0  0  0  0  0  0  0  0  0  0
   -0.6382    0.6319    5.1688 C   0  0  2  0  0  0  0  0  0  0  0  0
   -1.7102    0.8140    6.0421 O   0  0  0  0  0  0  0  0  0  0  0  0
   -2.1556    2.1414    5.8335 C   0  0  1  0  0  0  0  0  0  0  0  0
   -1.2173    3.1564    6.5520 C   0  0  0  0  0  0  0  0  0  0  0  0
   -1.4757    3.2189    7.9443 O   0  0  0  0  0  0  0  0  0  0  0  0
   -1.2191    2.1870    8.7557 C   0  0  0  0  0  0  0  0  0  0  0  0
   -1.5193    2.5313   10.2052 C   0  0  0  0  0  0  0  0  0  0  0  0
   -0.7958    1.0797    8.4220 O   0  0  0  0  0  0  0  0  0  0  0  0
   -2.1564    2.1950    4.3008 C   0  0  1  0  0  0  0  0  0  0  0  0
   -1.9437    3.5487    3.8906 O   0  0  0  0  0  0  0  0  0  0  0  0
   -2.5927    4.1424    2.8668 C   0  0  0  0  0  0  0  0  0  0  0  0
   -3.6664    3.2885    2.1781 C   0  0  0  0  0  0  0  0  0  0  0  0
   -2.4127    5.3181    2.5016 O   0  0  0  0  0  0  0  0  0  0  0  0
   -1.0648    1.2441    3.8324 C   0  0  1  0  0  0  0  0  0  0  0  0
   -0.0148    1.9243    3.1613 O   0  0  0  0  0  0  0  0  0  0  0  0
    2.1433   -0.1061    1.5271 H   0  0  0  0  0  0  0  0  0  0  0  0
    0.4226   -0.2023    1.8649 H   0  0  0  0  0  0  0  0  0  0  0  0
    1.3580   -1.6820    1.6693 H   0  0  0  0  0  0  0  0  0  0  0  0
    2.6975   -1.1851    3.7344 H   0  0  0  0  0  0  0  0  0  0  0  0
    1.8685    0.3205    3.9693 H   0  0  0  0  0  0  0  0  0  0  0  0
    0.2478    1.0798    5.6066 H   0  0  0  0  0  0  0  0  0  0  0  0
   -3.1743    2.3126    6.1627 H   0  0  0  0  0  0  0  0  0  0  0  0
   -0.1614    3.0073    6.3389 H   0  0  0  0  0  0  0  0  0  0  0  0
   -1.4362    4.1547    6.1924 H   0  0  0  0  0  0  0  0  0  0  0  0
   -2.5413    2.9093   10.3177 H   0  0  0  0  0  0  0  0  0  0  0  0
   -0.8116    3.2923   10.5462 H   0  0  0  0  0  0  0  0  0  0  0  0
   -1.4049    1.6361   10.8135 H   0  0  0  0  0  0  0  0  0  0  0  0
   -3.1139    1.8207    3.9649 H   0  0  0  0  0  0  0  0  0  0  0  0
   -3.2034    2.4337    1.7020 H   0  0  0  0  0  0  0  0  0  0  0  0
   -4.1768    3.8552    1.4199 H   0  0  0  0  0  0  0  0  0  0  0  0
   -4.3692    2.9252    2.9285 H   0  0  0  0  0  0  0  0  0  0  0  0
   -1.5073    0.4765    3.2152 H   0  0  0  0  0  0  0  0  0  0  0  0
   -0.3348    2.3109    2.3521 H   0  0  0  0  0  0  0  0  0  0  0  0
  1  2  1  0
  1 23  1  0
  1 24  1  0
  1 25  1  0
  2  3  1  0
  2 26  1  0
  2 27  1  0
  3  7  1  0
  3  4  2  0
  4  5  1  0
  5  6  2  0
  6  7  1  0
  7  8  1  0
  8 21  1  0
  8  9  1  0
  8 28  1  1
  9 10  1  0
 10 11  1  0
 10 16  1  0
 10 29  1  1
 11 12  1  0
 11 30  1  0
 11 31  1  0
 12 13  1  0
 13 14  1  0
 13 15  2  0
 14 32  1  0
 14 33  1  0
 14 34  1  0
 16 17  1  0
 16 21  1  0
 16 35  1  6
 17 18  1  0
 18 19  1  0
 18 20  2  0
 19 36  1  0
 19 37  1  0
 19 38  1  0
 21 22  1  0
 21 39  1  6
 22 40  1  0
M  END
>  <i_m_ct_stereo_status>  (21) 
1

>  <s_m_source_file>  (21) 
/var/tmp/pbs.5076255.sched01/tmp9stzsw2m/06nqgg2pe.sdf

>  <i_m_source_file_index>  (21) 
13

>  <i_lp_mmshare_version>  (21) 
48012

>  <i_f3d_flags>  (21) 
0

>  <s_epik_input>  (21) 
W0NIM11bQ0gyXWMxbm5ubjFbQ0BASF0yT1tDQEBIXShbQ0gyXU9DKD1PKVtDSDNdKVtDQEhdKFtDQEhdMltPSF0pT0MoPU8pW0NIM10=

>  <s_epik_cmdline>  (21) 
J2VwaWtfcHl0aG9uJywgJy1waHQnLCAnMi4wJywgJy1waCcsICc3LjAnLCAnLXRuJywgJzgnLCAnLW1hJywgJzIwMCcsICctaW1hZScsICc8aW5maWxlLm1hZT4nLCAnLW9tYWUnLCAnPG91dGZpbGUubWFlPic=

>  <r_lp_tautomer_probability>  (21) 
1

>  <r_epik_Ionization_Penalty>  (21) 
0.00844095

>  <r_epik_Ionization_Penalty_Charging>  (21) 
0

>  <r_epik_Ionization_Penalty_Neutral>  (21) 
0.00844095

>  <r_epik_State_Penalty>  (21) 
0.00636082

>  <r_epik_Charging_Adjusted_Penalty>  (21) 
0.00636082

>  <i_epik_Tot_Q>  (21) 
0

>  <i_epik_Tot_abs_Q>  (21) 
0

>  <s_epik_Chemistry_Notes>  (21) 
This compound has an ester and may undergo hydrolysis at high or low pH. This compound contains an acetal/aminal-like group ( X-CH(R)-Y where X, Y are N, S, or O) that may be acid/base labile, releasing an aldehyde.

>  <s_lp_Force_Field>  (21) 
OPLS3e

>  <r_lp_Energy>  (21) 
-0.824874

>  <b_lp_Chiralities_Consistent>  (21) 
1

>  <s_lp_Variant>  (21) 
7:0-1

>  <s_i_glide_gridfile>  (21) 
pfpi4k_grid

>  <i_i_glide_lignum>  (21) 
13

>  <i_i_glide_rotatable_bonds>  (21) 
8

>  <r_i_docking_score>  (21) 
-3.12

>  <r_i_glide_ligand_efficiency>  (21) 
-0.141818

>  <r_i_glide_ligand_efficiency_sa>  (21) 
-0.397381

>  <r_i_glide_ligand_efficiency_ln>  (21) 
-0.762643

>  <r_i_glide_gscore>  (21) 
-3.12

>  <r_i_glide_lipo>  (21) 
-0.109136

>  <r_i_glide_hbond>  (21) 
-0.16

>  <r_i_glide_metal>  (21) 
-0

>  <r_i_glide_rewards>  (21) 
-1.26617

>  <r_i_glide_evdw>  (21) 
-19.7588

>  <r_i_glide_ecoul>  (21) 
-7.54445

>  <r_i_glide_erotb>  (21) 
0.752627

>  <r_i_glide_esite>  (21) 
-0.217716

>  <r_i_glide_emodel>  (21) 
-28.7985

>  <r_i_glide_energy>  (21) 
-27.3032

>  <r_i_glide_einternal>  (21) 
8.96892

>  <r_i_glide_intrahb_reward>  (21) 
-0

>  <i_i_glide_confnum>  (21) 
6

>  <i_i_glide_posenum>  (21) 
2

>  <r_i_glide_eff_state_penalty>  (21) 
0

>  <ligand_id>  (21) 
7

>  <original_smiles>  (21) 
CCc1nnnn1C1OC(COC(C)=O)C(OC(C)=O)C1O

>  <smiles>  (21) 
[H]OC1([H])C([H])(n2nnnc2C([H])([H])C([H])([H])[H])OC([H])(C([H])([H])OC(=O)C([H])([H])[H])C1([H])OC(=O)C([H])([H])[H]

$$$$
7:0:2
     RDKit          3D

 40 41  0  0  1  0  0  0  0  0999 V2000
    2.5284    0.1542    1.5938 C   0  0  0  0  0  0  0  0  0  0  0  0
    2.7567    0.0156    3.1076 C   0  0  0  0  0  0  0  0  0  0  0  0
    1.8155   -0.9400    3.7770 C   0  0  0  0  0  0  0  0  0  0  0  0
    2.0029   -2.2448    3.9081 N   0  0  0  0  0  0  0  0  0  0  0  0
    0.8779   -2.6857    4.5802 N   0  0  0  0  0  0  0  0  0  0  0  0
    0.0671   -1.6981    4.8279 N   0  0  0  0  0  0  0  0  0  0  0  0
    0.6472   -0.5791    4.3272 N   0  0  0  0  0  0  0  0  0  0  0  0
   -0.0180    0.7512    4.4216 C   0  0  2  0  0  0  0  0  0  0  0  0
   -0.4908    0.9197    5.7235 O   0  0  0  0  0  0  0  0  0  0  0  0
   -1.7770    1.5433    5.6701 C   0  0  1  0  0  0  0  0  0  0  0  0
   -1.8658    2.7783    6.5835 C   0  0  0  0  0  0  0  0  0  0  0  0
   -2.2337    2.3942    7.8921 O   0  0  0  0  0  0  0  0  0  0  0  0
   -2.5362    3.3517    8.7862 C   0  0  0  0  0  0  0  0  0  0  0  0
   -2.8981    2.7745   10.1447 C   0  0  0  0  0  0  0  0  0  0  0  0
   -2.5436    4.5659    8.5779 O   0  0  0  0  0  0  0  0  0  0  0  0
   -2.0382    1.8597    4.1918 C   0  0  1  0  0  0  0  0  0  0  0  0
   -1.5449    3.1748    3.9161 O   0  0  0  0  0  0  0  0  0  0  0  0
   -2.1841    4.0377    3.1016 C   0  0  0  0  0  0  0  0  0  0  0  0
   -3.4568    3.5218    2.4357 C   0  0  0  0  0  0  0  0  0  0  0  0
   -1.7860    5.1808    2.8902 O   0  0  0  0  0  0  0  0  0  0  0  0
   -1.2168    0.8024    3.4869 C   0  0  1  0  0  0  0  0  0  0  0  0
   -0.8916    1.1752    2.1610 O   0  0  0  0  0  0  0  0  0  0  0  0
    3.2386    0.8670    1.1751 H   0  0  0  0  0  0  0  0  0  0  0  0
    1.5277    0.5203    1.3579 H   0  0  0  0  0  0  0  0  0  0  0  0
    2.6618   -0.7956    1.0743 H   0  0  0  0  0  0  0  0  0  0  0  0
    3.7769   -0.3363    3.2927 H   0  0  0  0  0  0  0  0  0  0  0  0
    2.6959    0.9952    3.5774 H   0  0  0  0  0  0  0  0  0  0  0  0
    0.7254    1.5141    4.2091 H   0  0  0  0  0  0  0  0  0  0  0  0
   -2.5209    0.8072    5.9696 H   0  0  0  0  0  0  0  0  0  0  0  0
   -0.9256    3.3319    6.5965 H   0  0  0  0  0  0  0  0  0  0  0  0
   -2.6302    3.4620    6.2120 H   0  0  0  0  0  0  0  0  0  0  0  0
   -2.0823    2.1570   10.5228 H   0  0  0  0  0  0  0  0  0  0  0  0
   -3.7829    2.1487   10.0565 H   0  0  0  0  0  0  0  0  0  0  0  0
   -3.0999    3.5655   10.8701 H   0  0  0  0  0  0  0  0  0  0  0  0
   -3.0943    1.7592    3.9976 H   0  0  0  0  0  0  0  0  0  0  0  0
   -3.2220    2.6788    1.7825 H   0  0  0  0  0  0  0  0  0  0  0  0
   -3.9171    4.2929    1.8260 H   0  0  0  0  0  0  0  0  0  0  0  0
   -4.1713    3.1830    3.1916 H   0  0  0  0  0  0  0  0  0  0  0  0
   -1.7653   -0.1326    3.5097 H   0  0  0  0  0  0  0  0  0  0  0  0
   -1.6728    1.3290    1.6462 H   0  0  0  0  0  0  0  0  0  0  0  0
  1  2  1  0
  1 23  1  0
  1 24  1  0
  1 25  1  0
  2  3  1  0
  2 26  1  0
  2 27  1  0
  3  7  1  0
  3  4  2  0
  4  5  1  0
  5  6  2  0
  6  7  1  0
  7  8  1  0
  8 21  1  0
  8  9  1  0
  8 28  1  6
  9 10  1  0
 10 11  1  0
 10 16  1  0
 10 29  1  1
 11 12  1  0
 11 30  1  0
 11 31  1  0
 12 13  1  0
 13 14  1  0
 13 15  2  0
 14 32  1  0
 14 33  1  0
 14 34  1  0
 16 17  1  0
 16 21  1  0
 16 35  1  1
 17 18  1  0
 18 19  1  0
 18 20  2  0
 19 36  1  0
 19 37  1  0
 19 38  1  0
 21 22  1  0
 21 39  1  6
 22 40  1  0
M  END
>  <i_m_ct_stereo_status>  (22) 
1

>  <s_m_source_file>  (22) 
/var/tmp/pbs.5076255.sched01/tmp9stzsw2m/06nqgg2pe.sdf

>  <i_m_source_file_index>  (22) 
13

>  <i_lp_mmshare_version>  (22) 
48012

>  <i_f3d_flags>  (22) 
0

>  <s_epik_input>  (22) 
W0NIM11bQ0gyXWMxbm5ubjFbQ0BASF0yT1tDQEBIXShbQ0gyXU9DKD1PKVtDSDNdKVtDQEhdKFtDQEhdMltPSF0pT0MoPU8pW0NIM10=

>  <s_epik_cmdline>  (22) 
J2VwaWtfcHl0aG9uJywgJy1waHQnLCAnMi4wJywgJy1waCcsICc3LjAnLCAnLXRuJywgJzgnLCAnLW1hJywgJzIwMCcsICctaW1hZScsICc8aW5maWxlLm1hZT4nLCAnLW9tYWUnLCAnPG91dGZpbGUubWFlPic=

>  <r_lp_tautomer_probability>  (22) 
1

>  <r_epik_Ionization_Penalty>  (22) 
0.00844095

>  <r_epik_Ionization_Penalty_Charging>  (22) 
0

>  <r_epik_Ionization_Penalty_Neutral>  (22) 
0.00844095

>  <r_epik_State_Penalty>  (22) 
0.00636082

>  <r_epik_Charging_Adjusted_Penalty>  (22) 
0.00636082

>  <i_epik_Tot_Q>  (22) 
0

>  <i_epik_Tot_abs_Q>  (22) 
0

>  <s_epik_Chemistry_Notes>  (22) 
This compound has an ester and may undergo hydrolysis at high or low pH. This compound contains an acetal/aminal-like group ( X-CH(R)-Y where X, Y are N, S, or O) that may be acid/base labile, releasing an aldehyde.

>  <s_lp_Force_Field>  (22) 
OPLS3e

>  <r_lp_Energy>  (22) 
-0.824874

>  <b_lp_Chiralities_Consistent>  (22) 
1

>  <s_lp_Variant>  (22) 
7:0-1

>  <s_i_glide_gridfile>  (22) 
pfpi4k_grid

>  <i_i_glide_lignum>  (22) 
13

>  <i_i_glide_rotatable_bonds>  (22) 
8

>  <r_i_docking_score>  (22) 
-2.72711

>  <r_i_glide_ligand_efficiency>  (22) 
-0.123959

>  <r_i_glide_ligand_efficiency_sa>  (22) 
-0.347339

>  <r_i_glide_ligand_efficiency_ln>  (22) 
-0.666604

>  <r_i_glide_gscore>  (22) 
-2.72711

>  <r_i_glide_lipo>  (22) 
-0.157474

>  <r_i_glide_hbond>  (22) 
-0.16

>  <r_i_glide_metal>  (22) 
-0

>  <r_i_glide_rewards>  (22) 
-1.26617

>  <r_i_glide_evdw>  (22) 
-22.8162

>  <r_i_glide_ecoul>  (22) 
-4.1964

>  <r_i_glide_erotb>  (22) 
0.752627

>  <r_i_glide_esite>  (22) 
-0.125817

>  <r_i_glide_emodel>  (22) 
-29.5896

>  <r_i_glide_energy>  (22) 
-27.0126

>  <r_i_glide_einternal>  (22) 
7.0911

>  <r_i_glide_intrahb_reward>  (22) 
-0

>  <i_i_glide_confnum>  (22) 
2

>  <i_i_glide_posenum>  (22) 
21

>  <r_i_glide_eff_state_penalty>  (22) 
0

>  <ligand_id>  (22) 
7

>  <original_smiles>  (22) 
CCc1nnnn1C1OC(COC(C)=O)C(OC(C)=O)C1O

>  <smiles>  (22) 
[H]OC1([H])C([H])(n2nnnc2C([H])([H])C([H])([H])[H])OC([H])(C([H])([H])OC(=O)C([H])([H])[H])C1([H])OC(=O)C([H])([H])[H]

$$$$
7:1:0
     RDKit          3D

 39 40  0  0  1  0  0  0  0  0999 V2000
    1.7885   -4.5138    4.7438 C   0  0  0  0  0  0  0  0  0  0  0  0
    2.5884   -5.5652    3.9623 C   0  0  0  0  0  0  0  0  0  0  0  0
    1.9070   -5.9718    2.6944 C   0  0  0  0  0  0  0  0  0  0  0  0
    0.9171   -6.8139    2.5696 N   0  0  0  0  0  0  0  0  0  0  0  0
    0.6290   -6.8335    1.2190 N   0  0  0  0  0  0  0  0  0  0  0  0
    1.3931   -6.0280    0.5693 N   0  0  0  0  0  0  0  0  0  0  0  0
    2.2369   -5.4520    1.4682 N   0  0  0  0  0  0  0  0  0  0  0  0
    3.2867   -4.4740    1.0866 C   0  0  2  0  0  0  0  0  0  0  0  0
    2.7479   -3.5474    0.1946 O   0  0  0  0  0  0  0  0  0  0  0  0
    3.7196   -3.2587   -0.7879 C   0  0  1  0  0  0  0  0  0  0  0  0
    3.8291   -1.7325   -1.0820 C   0  0  0  0  0  0  0  0  0  0  0  0
    4.3960   -1.3936   -2.3483 O   0  0  0  0  0  0  0  0  0  0  0  0
    3.7746   -1.5981   -3.5344 C   0  0  0  0  0  0  0  0  0  0  0  0
    2.4469   -2.3430   -3.4862 C   0  0  0  0  0  0  0  0  0  0  0  0
    4.2015   -1.2241   -4.6050 O   0  0  0  0  0  0  0  0  0  0  0  0
    4.9975   -3.9749   -0.3810 C   0  0  1  0  0  0  0  0  0  0  0  0
    5.8034   -3.0793    0.3917 O   0  0  0  0  0  0  0  0  0  0  0  0
    6.8539   -2.4153   -0.1388 C   0  0  0  0  0  0  0  0  0  0  0  0
    7.1979   -2.7746   -1.5858 C   0  0  0  0  0  0  0  0  0  0  0  0
    7.4828   -1.5535    0.4654 O   0  0  0  0  0  0  0  0  0  0  0  0
    4.4945   -5.1606    0.4224 C   0  0  1  0  0  0  0  0  0  0  0  0
    5.3603   -5.5199    1.3116 O   0  0  0  0  0  0  0  0  0  0  0  0
    2.2848   -4.2621    5.6820 H   0  0  0  0  0  0  0  0  0  0  0  0
    0.7916   -4.8831    4.9863 H   0  0  0  0  0  0  0  0  0  0  0  0
    1.6778   -3.5961    4.1674 H   0  0  0  0  0  0  0  0  0  0  0  0
    3.6001   -5.2048    3.7769 H   0  0  0  0  0  0  0  0  0  0  0  0
    2.7087   -6.4585    4.5791 H   0  0  0  0  0  0  0  0  0  0  0  0
    3.5418   -3.9148    1.9866 H   0  0  0  0  0  0  0  0  0  0  0  0
    3.3942   -3.8605   -1.6447 H   0  0  0  0  0  0  0  0  0  0  0  0
    2.8789   -1.2287   -0.9891 H   0  0  0  0  0  0  0  0  0  0  0  0
    4.4353   -1.2750   -0.3215 H   0  0  0  0  0  0  0  0  0  0  0  0
    2.5637   -3.3977   -3.2080 H   0  0  0  0  0  0  0  0  0  0  0  0
    1.9701   -2.4390   -4.4361 H   0  0  0  0  0  0  0  0  0  0  0  0
    1.7954   -1.8661   -2.7397 H   0  0  0  0  0  0  0  0  0  0  0  0
    5.4783   -4.3500   -1.2762 H   0  0  0  0  0  0  0  0  0  0  0  0
    7.4341   -3.8372   -1.6352 H   0  0  0  0  0  0  0  0  0  0  0  0
    8.0402   -2.2123   -1.9639 H   0  0  0  0  0  0  0  0  0  0  0  0
    6.3510   -2.6147   -2.2501 H   0  0  0  0  0  0  0  0  0  0  0  0
    4.0754   -5.8529   -0.3154 H   0  0  0  0  0  0  0  0  0  0  0  0
  1  2  1  0
  1 23  1  0
  1 24  1  0
  1 25  1  0
  2  3  1  0
  2 26  1  0
  2 27  1  0
  3  7  1  0
  3  4  2  0
  4  5  1  0
  5  6  2  0
  6  7  1  0
  7  8  1  0
  8 21  1  0
  8  9  1  0
  8 28  1  1
  9 10  1  0
 10 11  1  0
 10 16  1  0
 10 29  1  6
 11 12  1  0
 11 30  1  0
 11 31  1  0
 12 13  1  0
 13 14  1  0
 13 15  2  0
 14 32  1  0
 14 33  1  0
 14 34  1  0
 16 17  1  0
 16 21  1  0
 16 35  1  6
 17 18  1  0
 18 19  1  0
 18 20  2  0
 19 36  1  0
 19 37  1  0
 19 38  1  0
 21 22  1  0
 21 39  1  6
M  CHG  1  22  -1
M  END
>  <i_m_ct_stereo_status>  (23) 
1

>  <s_m_source_file>  (23) 
/var/tmp/pbs.5076255.sched01/tmp9stzsw2m/06nqgg2pe.sdf

>  <i_m_source_file_index>  (23) 
14

>  <i_lp_mmshare_version>  (23) 
48012

>  <i_f3d_flags>  (23) 
0

>  <s_epik_input>  (23) 
W0NIM11bQ0gyXWMxbm5ubjFbQ0BASF0yT1tDQEBIXShbQ0gyXU9DKD1PKVtDSDNdKVtDQEhdKFtDQEhdMltPSF0pT0MoPU8pW0NIM10=

>  <s_epik_cmdline>  (23) 
J2VwaWtfcHl0aG9uJywgJy1waHQnLCAnMi4wJywgJy1waCcsICc3LjAnLCAnLXRuJywgJzgnLCAnLW1hJywgJzIwMCcsICctaW1hZScsICc8aW5maWxlLm1hZT4nLCAnLW9tYWUnLCAnPG91dGZpbGUubWFlPic=

>  <r_lp_tautomer_probability>  (23) 
1

>  <r_epik_Ionization_Penalty>  (23) 
2.52301

>  <r_epik_Ionization_Penalty_Charging>  (23) 
2.52301

>  <r_epik_Ionization_Penalty_Neutral>  (23) 
4.77636e-09

>  <r_epik_State_Penalty>  (23) 
2.68961

>  <r_epik_Charging_Adjusted_Penalty>  (23) 
5.21262

>  <i_epik_Tot_Q>  (23) 
-1

>  <i_epik_Tot_abs_Q>  (23) 
1

>  <s_epik_Chemistry_Notes>  (23) 
This compound has an ester and may undergo hydrolysis at high or low pH. This compound contains an acetal/aminal-like group ( X-CH(R)-Y where X, Y are N, S, or O) that may be acid/base labile, releasing an aldehyde.

>  <s_lp_Force_Field>  (23) 
OPLS3e

>  <r_lp_Energy>  (23) 
2.24193

>  <b_lp_Chiralities_Consistent>  (23) 
1

>  <s_lp_Variant>  (23) 
7:0-2

>  <s_i_glide_gridfile>  (23) 
pfpi4k_grid

>  <i_i_glide_lignum>  (23) 
14

>  <i_i_glide_rotatable_bonds>  (23) 
7

>  <r_i_docking_score>  (23) 
-4.04922

>  <r_i_glide_ligand_efficiency>  (23) 
-0.184055

>  <r_i_glide_ligand_efficiency_sa>  (23) 
-0.51573

>  <r_i_glide_ligand_efficiency_ln>  (23) 
-0.989776

>  <r_i_glide_gscore>  (23) 
-4.04922

>  <r_i_glide_lipo>  (23) 
-0.374299

>  <r_i_glide_hbond>  (23) 
-0.339604

>  <r_i_glide_metal>  (23) 
-0

>  <r_i_glide_rewards>  (23) 
-1.55163

>  <r_i_glide_evdw>  (23) 
-28.9099

>  <r_i_glide_ecoul>  (23) 
-5.32292

>  <r_i_glide_erotb>  (23) 
0.75689

>  <r_i_glide_esite>  (23) 
-0.29664

>  <r_i_glide_emodel>  (23) 
-35.8761

>  <r_i_glide_energy>  (23) 
-34.2328

>  <r_i_glide_einternal>  (23) 
14.6545

>  <r_i_glide_intrahb_reward>  (23) 
-0

>  <i_i_glide_confnum>  (23) 
2

>  <i_i_glide_posenum>  (23) 
22

>  <r_i_glide_eff_state_penalty>  (23) 
0

>  <ligand_id>  (23) 
7

>  <original_smiles>  (23) 
CCc1nnnn1C1OC(COC(C)=O)C(OC(C)=O)C1O

>  <smiles>  (23) 
[H]C([H])([H])C(=O)OC([H])([H])C1([H])OC([H])(n2nnnc2C([H])([H])C([H])([H])[H])C([H])([O-])C1([H])OC(=O)C([H])([H])[H]

$$$$
7:1:1
     RDKit          3D

 39 40  0  0  1  0  0  0  0  0999 V2000
    3.5446   -6.5300    4.5935 C   0  0  0  0  0  0  0  0  0  0  0  0
    2.4771   -5.5493    4.1003 C   0  0  0  0  0  0  0  0  0  0  0  0
    1.8228   -5.9919    2.8267 C   0  0  0  0  0  0  0  0  0  0  0  0
    0.8062   -6.8512    2.7448 N   0  0  0  0  0  0  0  0  0  0  0  0
    0.5676   -6.9440    1.3887 N   0  0  0  0  0  0  0  0  0  0  0  0
    1.3493   -6.1675    0.6974 N   0  0  0  0  0  0  0  0  0  0  0  0
    2.1731   -5.5627    1.6052 N   0  0  0  0  0  0  0  0  0  0  0  0
    3.2408   -4.5994    1.1806 C   0  0  2  0  0  0  0  0  0  0  0  0
    2.7187   -3.6869    0.2607 O   0  0  0  0  0  0  0  0  0  0  0  0
    3.6662   -3.4148   -0.7490 C   0  0  1  0  0  0  0  0  0  0  0  0
    3.7334   -1.8770   -1.0348 C   0  0  0  0  0  0  0  0  0  0  0  0
    4.2733   -1.4833   -2.2952 O   0  0  0  0  0  0  0  0  0  0  0  0
    3.7048   -1.7316   -3.5057 C   0  0  0  0  0  0  0  0  0  0  0  0
    2.3986   -2.4924   -3.4908 C   0  0  0  0  0  0  0  0  0  0  0  0
    4.1854   -1.3845   -4.5839 O   0  0  0  0  0  0  0  0  0  0  0  0
    4.9481   -4.1308   -0.3044 C   0  0  1  0  0  0  0  0  0  0  0  0
    5.8067   -3.2571    0.4361 O   0  0  0  0  0  0  0  0  0  0  0  0
    6.8177   -2.5286   -0.1320 C   0  0  0  0  0  0  0  0  0  0  0  0
    7.0776   -2.8101   -1.6131 C   0  0  0  0  0  0  0  0  0  0  0  0
    7.4609   -1.6724    0.4765 O   0  0  0  0  0  0  0  0  0  0  0  0
    4.4372   -5.2907    0.5299 C   0  0  1  0  0  0  0  0  0  0  0  0
    5.3029   -5.6595    1.4380 O   0  0  0  0  0  0  0  0  0  0  0  0
    3.9964   -6.1733    5.5198 H   0  0  0  0  0  0  0  0  0  0  0  0
    4.3456   -6.6538    3.8630 H   0  0  0  0  0  0  0  0  0  0  0  0
    3.1112   -7.5122    4.7914 H   0  0  0  0  0  0  0  0  0  0  0  0
    1.7037   -5.4287    4.8495 H   0  0  0  0  0  0  0  0  0  0  0  0
    2.9301   -4.5580    3.9815 H   0  0  0  0  0  0  0  0  0  0  0  0
    3.5209   -4.0034    2.0550 H   0  0  0  0  0  0  0  0  0  0  0  0
    3.3197   -4.0094   -1.5609 H   0  0  0  0  0  0  0  0  0  0  0  0
    2.7687   -1.4006   -0.9527 H   0  0  0  0  0  0  0  0  0  0  0  0
    4.3346   -1.3654   -0.2866 H   0  0  0  0  0  0  0  0  0  0  0  0
    2.5080   -3.5300   -3.2363 H   0  0  0  0  0  0  0  0  0  0  0  0
    1.9062   -2.4775   -4.4688 H   0  0  0  0  0  0  0  0  0  0  0  0
    1.7483   -2.0106   -2.7709 H   0  0  0  0  0  0  0  0  0  0  0  0
    5.4373   -4.5566   -1.1757 H   0  0  0  0  0  0  0  0  0  0  0  0
    7.3685   -3.8449   -1.7495 H   0  0  0  0  0  0  0  0  0  0  0  0
    7.8700   -2.1967   -2.0102 H   0  0  0  0  0  0  0  0  0  0  0  0
    6.2004   -2.6769   -2.2288 H   0  0  0  0  0  0  0  0  0  0  0  0
    4.0173   -5.9919   -0.1956 H   0  0  0  0  0  0  0  0  0  0  0  0
  1  2  1  0
  1 23  1  0
  1 24  1  0
  1 25  1  0
  2  3  1  0
  2 26  1  0
  2 27  1  0
  3  7  1  0
  3  4  2  0
  4  5  1  0
  5  6  2  0
  6  7  1  0
  7  8  1  0
  8 21  1  0
  8  9  1  0
  8 28  1  1
  9 10  1  0
 10 11  1  0
 10 16  1  0
 10 29  1  6
 11 12  1  0
 11 30  1  0
 11 31  1  0
 12 13  1  0
 13 14  1  0
 13 15  2  0
 14 32  1  0
 14 33  1  0
 14 34  1  0
 16 17  1  0
 16 21  1  0
 16 35  1  6
 17 18  1  0
 18 19  1  0
 18 20  2  0
 19 36  1  0
 19 37  1  0
 19 38  1  0
 21 22  1  0
 21 39  1  6
M  CHG  1  22  -1
M  END
>  <i_m_ct_stereo_status>  (24) 
1

>  <s_m_source_file>  (24) 
/var/tmp/pbs.5076255.sched01/tmp9stzsw2m/06nqgg2pe.sdf

>  <i_m_source_file_index>  (24) 
14

>  <i_lp_mmshare_version>  (24) 
48012

>  <i_f3d_flags>  (24) 
0

>  <s_epik_input>  (24) 
W0NIM11bQ0gyXWMxbm5ubjFbQ0BASF0yT1tDQEBIXShbQ0gyXU9DKD1PKVtDSDNdKVtDQEhdKFtDQEhdMltPSF0pT0MoPU8pW0NIM10=

>  <s_epik_cmdline>  (24) 
J2VwaWtfcHl0aG9uJywgJy1waHQnLCAnMi4wJywgJy1waCcsICc3LjAnLCAnLXRuJywgJzgnLCAnLW1hJywgJzIwMCcsICctaW1hZScsICc8aW5maWxlLm1hZT4nLCAnLW9tYWUnLCAnPG91dGZpbGUubWFlPic=

>  <r_lp_tautomer_probability>  (24) 
1

>  <r_epik_Ionization_Penalty>  (24) 
2.52301

>  <r_epik_Ionization_Penalty_Charging>  (24) 
2.52301

>  <r_epik_Ionization_Penalty_Neutral>  (24) 
4.77636e-09

>  <r_epik_State_Penalty>  (24) 
2.68961

>  <r_epik_Charging_Adjusted_Penalty>  (24) 
5.21262

>  <i_epik_Tot_Q>  (24) 
-1

>  <i_epik_Tot_abs_Q>  (24) 
1

>  <s_epik_Chemistry_Notes>  (24) 
This compound has an ester and may undergo hydrolysis at high or low pH. This compound contains an acetal/aminal-like group ( X-CH(R)-Y where X, Y are N, S, or O) that may be acid/base labile, releasing an aldehyde.

>  <s_lp_Force_Field>  (24) 
OPLS3e

>  <r_lp_Energy>  (24) 
2.24193

>  <b_lp_Chiralities_Consistent>  (24) 
1

>  <s_lp_Variant>  (24) 
7:0-2

>  <s_i_glide_gridfile>  (24) 
pfpi4k_grid

>  <i_i_glide_lignum>  (24) 
14

>  <i_i_glide_rotatable_bonds>  (24) 
7

>  <r_i_docking_score>  (24) 
-4.04811

>  <r_i_glide_ligand_efficiency>  (24) 
-0.184005

>  <r_i_glide_ligand_efficiency_sa>  (24) 
-0.515589

>  <r_i_glide_ligand_efficiency_ln>  (24) 
-0.989506

>  <r_i_glide_gscore>  (24) 
-4.04811

>  <r_i_glide_lipo>  (24) 
-0.384616

>  <r_i_glide_hbond>  (24) 
-0.325727

>  <r_i_glide_metal>  (24) 
-0

>  <r_i_glide_rewards>  (24) 
-1.5511

>  <r_i_glide_evdw>  (24) 
-28.0068

>  <r_i_glide_ecoul>  (24) 
-5.7655

>  <r_i_glide_erotb>  (24) 
0.75689

>  <r_i_glide_esite>  (24) 
-0.278396

>  <r_i_glide_emodel>  (24) 
-35.4617

>  <r_i_glide_energy>  (24) 
-33.7723

>  <r_i_glide_einternal>  (24) 
14.7718

>  <r_i_glide_intrahb_reward>  (24) 
-0

>  <i_i_glide_confnum>  (24) 
2

>  <i_i_glide_posenum>  (24) 
13

>  <r_i_glide_eff_state_penalty>  (24) 
0

>  <ligand_id>  (24) 
7

>  <original_smiles>  (24) 
CCc1nnnn1C1OC(COC(C)=O)C(OC(C)=O)C1O

>  <smiles>  (24) 
[H]C([H])([H])C(=O)OC([H])([H])C1([H])OC([H])(n2nnnc2C([H])([H])C([H])([H])[H])C([H])([O-])C1([H])OC(=O)C([H])([H])[H]

$$$$
7:1:2
     RDKit          3D

 39 40  0  0  1  0  0  0  0  0999 V2000
    2.0173   -9.4624    3.7753 C   0  0  0  0  0  0  0  0  0  0  0  0
    1.7955   -7.9492    3.8997 C   0  0  0  0  0  0  0  0  0  0  0  0
    1.3941   -7.3094    2.6036 C   0  0  0  0  0  0  0  0  0  0  0  0
    0.1608   -7.3426    2.1017 N   0  0  0  0  0  0  0  0  0  0  0  0
    0.2659   -6.6480    0.9159 N   0  0  0  0  0  0  0  0  0  0  0  0
    1.4776   -6.2020    0.7333 N   0  0  0  0  0  0  0  0  0  0  0  0
    2.2159   -6.6104    1.8011 N   0  0  0  0  0  0  0  0  0  0  0  0
    3.6775   -6.2598    1.9291 C   0  0  2  0  0  0  0  0  0  0  0  0
    3.9036   -4.9689    1.4424 O   0  0  0  0  0  0  0  0  0  0  0  0
    5.1541   -4.9299    0.7460 C   0  0  1  0  0  0  0  0  0  0  0  0
    6.0020   -3.7196    1.1982 C   0  0  0  0  0  0  0  0  0  0  0  0
    7.1845   -3.5885    0.4196 O   0  0  0  0  0  0  0  0  0  0  0  0
    7.2261   -2.8484   -0.6962 C   0  0  0  0  0  0  0  0  0  0  0  0
    8.5861   -2.9110   -1.3816 C   0  0  0  0  0  0  0  0  0  0  0  0
    6.3149   -2.1617   -1.1567 O   0  0  0  0  0  0  0  0  0  0  0  0
    5.8040   -6.3184    0.9544 C   0  0  1  0  0  0  0  0  0  0  0  0
    6.6305   -6.3465    2.1206 O   0  0  0  0  0  0  0  0  0  0  0  0
    7.9628   -6.1910    2.0458 C   0  0  0  0  0  0  0  0  0  0  0  0
    8.6045   -6.2795    3.4162 C   0  0  0  0  0  0  0  0  0  0  0  0
    8.6246   -5.9638    1.0267 O   0  0  0  0  0  0  0  0  0  0  0  0
    4.5760   -7.2185    1.1421 C   0  0  1  0  0  0  0  0  0  0  0  0
    4.8540   -8.2793    1.8545 O   0  0  0  0  0  0  0  0  0  0  0  0
    2.3154   -9.8852    4.7338 H   0  0  0  0  0  0  0  0  0  0  0  0
    2.8055   -9.6926    3.0549 H   0  0  0  0  0  0  0  0  0  0  0  0
    1.1078   -9.9695    3.4537 H   0  0  0  0  0  0  0  0  0  0  0  0
    1.0106   -7.7490    4.6375 H   0  0  0  0  0  0  0  0  0  0  0  0
    2.7022   -7.4875    4.2845 H   0  0  0  0  0  0  0  0  0  0  0  0
    3.9132   -6.2589    2.9886 H   0  0  0  0  0  0  0  0  0  0  0  0
    4.8905   -4.8145   -0.3071 H   0  0  0  0  0  0  0  0  0  0  0  0
    5.4350   -2.7885    1.2008 H   0  0  0  0  0  0  0  0  0  0  0  0
    6.3235   -3.8717    2.2283 H   0  0  0  0  0  0  0  0  0  0  0  0
    9.3713   -2.5918   -0.6954 H   0  0  0  0  0  0  0  0  0  0  0  0
    8.6108   -2.2564   -2.2547 H   0  0  0  0  0  0  0  0  0  0  0  0
    8.8203   -3.9246   -1.7135 H   0  0  0  0  0  0  0  0  0  0  0  0
    6.3794   -6.6299    0.0891 H   0  0  0  0  0  0  0  0  0  0  0  0
    8.2159   -5.4957    4.0702 H   0  0  0  0  0  0  0  0  0  0  0  0
    9.6855   -6.1700    3.3309 H   0  0  0  0  0  0  0  0  0  0  0  0
    8.3687   -7.2504    3.8556 H   0  0  0  0  0  0  0  0  0  0  0  0
    4.1257   -7.3117    0.1563 H   0  0  0  0  0  0  0  0  0  0  0  0
  1  2  1  0
  1 23  1  0
  1 24  1  0
  1 25  1  0
  2  3  1  0
  2 26  1  0
  2 27  1  0
  3  7  1  0
  3  4  2  0
  4  5  1  0
  5  6  2  0
  6  7  1  0
  7  8  1  0
  8 21  1  0
  8  9  1  0
  8 28  1  1
  9 10  1  0
 10 11  1  0
 10 16  1  0
 10 29  1  6
 11 12  1  0
 11 30  1  0
 11 31  1  0
 12 13  1  0
 13 14  1  0
 13 15  2  0
 14 32  1  0
 14 33  1  0
 14 34  1  0
 16 17  1  0
 16 21  1  0
 16 35  1  6
 17 18  1  0
 18 19  1  0
 18 20  2  0
 19 36  1  0
 19 37  1  0
 19 38  1  0
 21 22  1  0
 21 39  1  6
M  CHG  1  22  -1
M  END
>  <i_m_ct_stereo_status>  (25) 
1

>  <s_m_source_file>  (25) 
/var/tmp/pbs.5076255.sched01/tmp9stzsw2m/06nqgg2pe.sdf

>  <i_m_source_file_index>  (25) 
14

>  <i_lp_mmshare_version>  (25) 
48012

>  <i_f3d_flags>  (25) 
0

>  <s_epik_input>  (25) 
W0NIM11bQ0gyXWMxbm5ubjFbQ0BASF0yT1tDQEBIXShbQ0gyXU9DKD1PKVtDSDNdKVtDQEhdKFtDQEhdMltPSF0pT0MoPU8pW0NIM10=

>  <s_epik_cmdline>  (25) 
J2VwaWtfcHl0aG9uJywgJy1waHQnLCAnMi4wJywgJy1waCcsICc3LjAnLCAnLXRuJywgJzgnLCAnLW1hJywgJzIwMCcsICctaW1hZScsICc8aW5maWxlLm1hZT4nLCAnLW9tYWUnLCAnPG91dGZpbGUubWFlPic=

>  <r_lp_tautomer_probability>  (25) 
1

>  <r_epik_Ionization_Penalty>  (25) 
2.52301

>  <r_epik_Ionization_Penalty_Charging>  (25) 
2.52301

>  <r_epik_Ionization_Penalty_Neutral>  (25) 
4.77636e-09

>  <r_epik_State_Penalty>  (25) 
2.68961

>  <r_epik_Charging_Adjusted_Penalty>  (25) 
5.21262

>  <i_epik_Tot_Q>  (25) 
-1

>  <i_epik_Tot_abs_Q>  (25) 
1

>  <s_epik_Chemistry_Notes>  (25) 
This compound has an ester and may undergo hydrolysis at high or low pH. This compound contains an acetal/aminal-like group ( X-CH(R)-Y where X, Y are N, S, or O) that may be acid/base labile, releasing an aldehyde.

>  <s_lp_Force_Field>  (25) 
OPLS3e

>  <r_lp_Energy>  (25) 
2.24193

>  <b_lp_Chiralities_Consistent>  (25) 
1

>  <s_lp_Variant>  (25) 
7:0-2

>  <s_i_glide_gridfile>  (25) 
pfpi4k_grid

>  <i_i_glide_lignum>  (25) 
14

>  <i_i_glide_rotatable_bonds>  (25) 
7

>  <r_i_docking_score>  (25) 
-2.88884

>  <r_i_glide_ligand_efficiency>  (25) 
-0.131311

>  <r_i_glide_ligand_efficiency_sa>  (25) 
-0.367938

>  <r_i_glide_ligand_efficiency_ln>  (25) 
-0.706138

>  <r_i_glide_gscore>  (25) 
-2.88884

>  <r_i_glide_lipo>  (25) 
-0.321157

>  <r_i_glide_hbond>  (25) 
-0.0997594

>  <r_i_glide_metal>  (25) 
-0

>  <r_i_glide_rewards>  (25) 
-1.30769

>  <r_i_glide_evdw>  (25) 
-26.4279

>  <r_i_glide_ecoul>  (25) 
-1.95825

>  <r_i_glide_erotb>  (25) 
0.75689

>  <r_i_glide_esite>  (25) 
-0.30199

>  <r_i_glide_emodel>  (25) 
-33.1899

>  <r_i_glide_energy>  (25) 
-28.3862

>  <r_i_glide_einternal>  (25) 
4.64992

>  <r_i_glide_intrahb_reward>  (25) 
-0

>  <i_i_glide_confnum>  (25) 
2

>  <i_i_glide_posenum>  (25) 
9

>  <r_i_glide_eff_state_penalty>  (25) 
0

>  <ligand_id>  (25) 
7

>  <original_smiles>  (25) 
CCc1nnnn1C1OC(COC(C)=O)C(OC(C)=O)C1O

>  <smiles>  (25) 
[H]C([H])([H])C(=O)OC([H])([H])C1([H])OC([H])(n2nnnc2C([H])([H])C([H])([H])[H])C([H])([O-])C1([H])OC(=O)C([H])([H])[H]

$$$$
9:0:0
     RDKit          3D

 52 56  0  0  1  0  0  0  0  0999 V2000
    5.0203   -3.7032   -2.0253 C   0  0  0  0  0  0  0  0  0  0  0  0
    5.9385   -3.0764   -1.0953 N   0  0  0  0  0  0  0  0  0  0  0  0
    7.2241   -2.8626   -1.4732 N   0  0  0  0  0  0  0  0  0  0  0  0
    7.8299   -2.2950   -0.4730 N   0  0  0  0  0  0  0  0  0  0  0  0
    6.9522   -2.0751    0.5655 N   0  0  0  0  0  0  0  0  0  0  0  0
    5.7983   -2.5804    0.1456 C   0  0  0  0  0  0  0  0  0  0  0  0
    4.5971   -2.5946    1.0027 C   0  0  0  0  0  0  0  0  0  0  0  0
    3.6791   -3.5807    1.0468 C   0  0  0  0  0  0  0  0  0  0  0  0
    2.6303   -3.2366    1.9676 C   0  0  0  0  0  0  0  0  0  0  0  0
    2.8876   -2.0318    2.4889 C   0  0  0  0  0  0  0  0  0  0  0  0
    2.0399   -1.1604    3.4138 C   0  0  2  0  0  0  0  0  0  0  0  0
    0.7166   -1.8204    3.8439 C   0  0  0  0  0  0  0  0  0  0  0  0
   -0.2608   -0.8487    4.4761 C   0  0  0  0  0  0  0  0  0  0  0  0
   -0.1401    0.4923    4.4520 C   0  0  0  0  0  0  0  0  0  0  0  0
   -1.1708    1.3648    5.1749 C   0  0  0  0  0  0  0  0  0  0  0  0
   -1.5964    2.5692    4.3368 C   0  0  0  0  0  0  0  0  0  0  0  0
   -2.7656    2.9433    4.2742 O   0  0  0  0  0  0  0  0  0  0  0  0
   -0.4820    3.3453    3.6598 C   0  0  0  0  0  0  0  0  0  0  0  0
    0.4566    2.3978    2.8978 C   0  0  0  0  0  0  0  0  0  0  0  0
    1.0236    1.2154    3.7414 C   0  0  1  0  0  0  0  0  0  0  0  0
    1.9543    1.7784    4.8449 C   0  0  0  0  0  0  0  0  0  0  0  0
    1.7933    0.2319    2.7779 C   0  0  1  0  0  0  0  0  0  0  0  0
    3.1032    0.8247    2.1846 C   0  0  0  0  0  0  0  0  0  0  0  0
    3.8663   -0.1396    1.2508 C   0  0  0  0  0  0  0  0  0  0  0  0
    4.1930   -1.4670    1.9591 C   0  0  2  0  0  0  0  0  0  0  0  0
    5.2304   -1.3157    3.0929 C   0  0  0  0  0  0  0  0  0  0  0  0
    4.3945   -4.4390   -1.5272 H   0  0  0  0  0  0  0  0  0  0  0  0
    5.5836   -4.2222   -2.8034 H   0  0  0  0  0  0  0  0  0  0  0  0
    4.3934   -2.9382   -2.4845 H   0  0  0  0  0  0  0  0  0  0  0  0
    3.7061   -4.5058    0.4932 H   0  0  0  0  0  0  0  0  0  0  0  0
    1.7514   -3.8327    2.1489 H   0  0  0  0  0  0  0  0  0  0  0  0
    2.6423   -1.0260    4.3092 H   0  0  0  0  0  0  0  0  0  0  0  0
    0.2140   -2.2822    2.9932 H   0  0  0  0  0  0  0  0  0  0  0  0
    0.9208   -2.6085    4.5678 H   0  0  0  0  0  0  0  0  0  0  0  0
   -1.1041   -1.2981    4.9794 H   0  0  0  0  0  0  0  0  0  0  0  0
   -2.0514    0.7786    5.4329 H   0  0  0  0  0  0  0  0  0  0  0  0
   -0.7464    1.7434    6.1035 H   0  0  0  0  0  0  0  0  0  0  0  0
   -0.9074    4.0877    2.9838 H   0  0  0  0  0  0  0  0  0  0  0  0
    0.0574    3.8983    4.4257 H   0  0  0  0  0  0  0  0  0  0  0  0
   -0.0977    2.0138    2.0400 H   0  0  0  0  0  0  0  0  0  0  0  0
    1.2639    3.0010    2.4809 H   0  0  0  0  0  0  0  0  0  0  0  0
    2.7315    2.4250    4.4358 H   0  0  0  0  0  0  0  0  0  0  0  0
    2.4352    0.9746    5.4026 H   0  0  0  0  0  0  0  0  0  0  0  0
    1.4073    2.3797    5.5725 H   0  0  0  0  0  0  0  0  0  0  0  0
    1.1317    0.0523    1.9264 H   0  0  0  0  0  0  0  0  0  0  0  0
    2.8641    1.7297    1.6351 H   0  0  0  0  0  0  0  0  0  0  0  0
    3.7800    1.1256    2.9809 H   0  0  0  0  0  0  0  0  0  0  0  0
    3.2478   -0.3411    0.3758 H   0  0  0  0  0  0  0  0  0  0  0  0
    4.7785    0.3254    0.8742 H   0  0  0  0  0  0  0  0  0  0  0  0
    5.4223   -2.2833    3.5586 H   0  0  0  0  0  0  0  0  0  0  0  0
    4.8946   -0.6364    3.8745 H   0  0  0  0  0  0  0  0  0  0  0  0
    6.1808   -0.9240    2.7306 H   0  0  0  0  0  0  0  0  0  0  0  0
  1  2  1  0
  1 27  1  0
  1 28  1  0
  1 29  1  0
  2  6  1  0
  2  3  1  0
  3  4  2  0
  4  5  1  0
  5  6  2  0
  6  7  1  0
  7 25  1  0
  7  8  2  0
  8  9  1  0
  8 30  1  0
  9 10  2  0
  9 31  1  0
 10 25  1  0
 10 11  1  0
 11 22  1  0
 11 12  1  0
 11 32  1  1
 12 13  1  0
 12 33  1  0
 12 34  1  0
 13 14  2  0
 13 35  1  0
 14 20  1  0
 14 15  1  0
 15 16  1  0
 15 36  1  0
 15 37  1  0
 16 17  2  0
 16 18  1  0
 18 19  1  0
 18 38  1  0
 18 39  1  0
 19 20  1  0
 19 40  1  0
 19 41  1  0
 20 21  1  1
 20 22  1  0
 21 42  1  0
 21 43  1  0
 21 44  1  0
 22 23  1  0
 22 45  1  6
 23 24  1  0
 23 46  1  0
 23 47  1  0
 24 25  1  0
 24 48  1  0
 24 49  1  0
 25 26  1  1
 26 50  1  0
 26 51  1  0
 26 52  1  0
M  END
>  <i_m_ct_stereo_status>  (26) 
1

>  <s_m_source_file>  (26) 
/var/tmp/pbs.5076255.sched01/tmp9stzsw2m/06nqgg2pe.sdf

>  <i_m_source_file_index>  (26) 
16

>  <i_lp_mmshare_version>  (26) 
48012

>  <i_f3d_flags>  (26) 
0

>  <s_epik_input>  (26) 
W0NIM11uMW5ubmMxQyg9W0NIXVtDSF09MilbQ0BAXShbQ0gzXSkoW0NIMl1bQ0gyXVtDQEBIXTM0KUMyW0NAQEhdM1tDSDJdW0NIXT1DKFtDQEBdNDVbQ0gzXSlbQ0gyXUMoPU8pW0NIMl1bQ0gyXTU=

>  <s_epik_cmdline>  (26) 
J2VwaWtfcHl0aG9uJywgJy1waHQnLCAnMi4wJywgJy1waCcsICc3LjAnLCAnLXRuJywgJzgnLCAnLW1hJywgJzIwMCcsICctaW1hZScsICc8aW5maWxlLm1hZT4nLCAnLW9tYWUnLCAnPG91dGZpbGUubWFlPic=

>  <r_lp_tautomer_probability>  (26) 
1

>  <r_epik_Ionization_Penalty>  (26) 
2.99771e-06

>  <r_epik_Ionization_Penalty_Charging>  (26) 
0

>  <r_epik_Ionization_Penalty_Neutral>  (26) 
2.99771e-06

>  <r_epik_State_Penalty>  (26) 
-0

>  <r_epik_Charging_Adjusted_Penalty>  (26) 
0

>  <i_epik_Tot_Q>  (26) 
0

>  <i_epik_Tot_abs_Q>  (26) 
0

>  <s_lp_Force_Field>  (26) 
OPLS3e

>  <r_lp_Energy>  (26) 
29.7881

>  <b_lp_Chiralities_Consistent>  (26) 
1

>  <s_lp_Variant>  (26) 
9:0-1

>  <s_i_glide_gridfile>  (26) 
pfpi4k_grid

>  <i_i_glide_lignum>  (26) 
16

>  <i_i_glide_rotatable_bonds>  (26) 
1

>  <r_i_docking_score>  (26) 
-3.16199

>  <r_i_glide_ligand_efficiency>  (26) 
-0.121615

>  <r_i_glide_ligand_efficiency_sa>  (26) 
-0.360284

>  <r_i_glide_ligand_efficiency_ln>  (26) 
-0.742583

>  <r_i_glide_gscore>  (26) 
-3.16199

>  <r_i_glide_lipo>  (26) 
-0.268908

>  <r_i_glide_hbond>  (26) 
0

>  <r_i_glide_metal>  (26) 
-0

>  <r_i_glide_rewards>  (26) 
-1.13995

>  <r_i_glide_evdw>  (26) 
-28.2528

>  <r_i_glide_ecoul>  (26) 
-2.64656

>  <r_i_glide_erotb>  (26) 
0.155195

>  <r_i_glide_esite>  (26) 
-0.098699

>  <r_i_glide_emodel>  (26) 
-35.9164

>  <r_i_glide_energy>  (26) 
-30.8994

>  <r_i_glide_einternal>  (26) 
1.57513

>  <r_i_glide_intrahb_reward>  (26) 
-0

>  <i_i_glide_confnum>  (26) 
1

>  <i_i_glide_posenum>  (26) 
7

>  <r_i_glide_eff_state_penalty>  (26) 
0

>  <ligand_id>  (26) 
9

>  <original_smiles>  (26) 
Cn1nnnc1C1=CC=C2C3CC=C4CC(=O)CCC4(C)C3CCC12C

>  <smiles>  (26) 
[H]C1=C(c2nnnn2C([H])([H])[H])C2(C([H])([H])[H])C(=C1[H])C1([H])C([H])([H])C([H])=C3C([H])([H])C(=O)C([H])([H])C([H])([H])C3(C([H])([H])[H])C1([H])C([H])([H])C2([H])[H]

$$$$
9:0:1
     RDKit          3D

 52 56  0  0  1  0  0  0  0  0999 V2000
    3.7802   -3.1901   -2.3888 C   0  0  0  0  0  0  0  0  0  0  0  0
    4.9668   -2.9607   -1.5898 N   0  0  0  0  0  0  0  0  0  0  0  0
    6.1851   -2.9160   -2.1783 N   0  0  0  0  0  0  0  0  0  0  0  0
    7.0523   -2.6633   -1.2443 N   0  0  0  0  0  0  0  0  0  0  0  0
    6.4351   -2.5281   -0.0220 N   0  0  0  0  0  0  0  0  0  0  0  0
    5.1469   -2.7187   -0.2837 C   0  0  0  0  0  0  0  0  0  0  0  0
    4.1197   -2.6528    0.7647 C   0  0  0  0  0  0  0  0  0  0  0  0
    3.2208   -3.6194    1.0242 C   0  0  0  0  0  0  0  0  0  0  0  0
    2.3716   -3.2084    2.1128 C   0  0  0  0  0  0  0  0  0  0  0  0
    2.7266   -1.9786    2.5031 C   0  0  0  0  0  0  0  0  0  0  0  0
    2.0639   -1.0350    3.5085 C   0  0  2  0  0  0  0  0  0  0  0  0
    0.8350   -1.6419    4.2144 C   0  0  0  0  0  0  0  0  0  0  0  0
   -0.0005   -0.6152    4.9534 C   0  0  0  0  0  0  0  0  0  0  0  0
    0.1201    0.7192    4.8267 C   0  0  0  0  0  0  0  0  0  0  0  0
   -0.7498    1.6517    5.6725 C   0  0  0  0  0  0  0  0  0  0  0  0
   -1.3244    2.8035    4.8524 C   0  0  0  0  0  0  0  0  0  0  0  0
   -2.4879    3.1814    4.9826 O   0  0  0  0  0  0  0  0  0  0  0  0
   -0.3561    3.5217    3.9279 C   0  0  0  0  0  0  0  0  0  0  0  0
    0.4250    2.5125    3.0714 C   0  0  0  0  0  0  0  0  0  0  0  0
    1.1335    1.3761    3.8682 C   0  0  1  0  0  0  0  0  0  0  0  0
    2.2562    1.9946    4.7393 C   0  0  0  0  0  0  0  0  0  0  0  0
    1.7079    0.3221    2.8437 C   0  0  1  0  0  0  0  0  0  0  0  0
    2.8861    0.8538    1.9762 C   0  0  0  0  0  0  0  0  0  0  0  0
    3.4638   -0.1810    0.9876 C   0  0  0  0  0  0  0  0  0  0  0  0
    3.9100   -1.4652    1.7073 C   0  0  2  0  0  0  0  0  0  0  0  0
    5.1447   -1.2627    2.6053 C   0  0  0  0  0  0  0  0  0  0  0  0
    3.0928   -3.8567   -1.8701 H   0  0  0  0  0  0  0  0  0  0  0  0
    4.0668   -3.6506   -3.3349 H   0  0  0  0  0  0  0  0  0  0  0  0
    3.2890   -2.2387   -2.5938 H   0  0  0  0  0  0  0  0  0  0  0  0
    3.1536   -4.5643    0.5035 H   0  0  0  0  0  0  0  0  0  0  0  0
    1.5373   -3.7724    2.4955 H   0  0  0  0  0  0  0  0  0  0  0  0
    2.8207   -0.8515    4.2690 H   0  0  0  0  0  0  0  0  0  0  0  0
    0.1785   -2.1498    3.5081 H   0  0  0  0  0  0  0  0  0  0  0  0
    1.1699   -2.3791    4.9428 H   0  0  0  0  0  0  0  0  0  0  0  0
   -0.7360   -1.0194    5.6345 H   0  0  0  0  0  0  0  0  0  0  0  0
   -1.5696    1.0984    6.1280 H   0  0  0  0  0  0  0  0  0  0  0  0
   -0.1579    2.0828    6.4781 H   0  0  0  0  0  0  0  0  0  0  0  0
   -0.8957    4.2263    3.2941 H   0  0  0  0  0  0  0  0  0  0  0  0
    0.3201    4.1149    4.5406 H   0  0  0  0  0  0  0  0  0  0  0  0
   -0.2773    2.0839    2.3535 H   0  0  0  0  0  0  0  0  0  0  0  0
    1.1476    3.0766    2.4802 H   0  0  0  0  0  0  0  0  0  0  0  0
    2.9473    2.6012    4.1516 H   0  0  0  0  0  0  0  0  0  0  0  0
    2.8319    1.2223    5.2500 H   0  0  0  0  0  0  0  0  0  0  0  0
    1.8572    2.6515    5.5141 H   0  0  0  0  0  0  0  0  0  0  0  0
    0.8989    0.1013    2.1433 H   0  0  0  0  0  0  0  0  0  0  0  0
    2.5483    1.7166    1.4078 H   0  0  0  0  0  0  0  0  0  0  0  0
    3.6964    1.1983    2.6143 H   0  0  0  0  0  0  0  0  0  0  0  0
    2.6900   -0.4256    0.2601 H   0  0  0  0  0  0  0  0  0  0  0  0
    4.2923    0.2472    0.4217 H   0  0  0  0  0  0  0  0  0  0  0  0
    5.4141   -2.2012    3.0920 H   0  0  0  0  0  0  0  0  0  0  0  0
    4.9692   -0.5258    3.3859 H   0  0  0  0  0  0  0  0  0  0  0  0
    6.0068   -0.9222    2.0313 H   0  0  0  0  0  0  0  0  0  0  0  0
  1  2  1  0
  1 27  1  0
  1 28  1  0
  1 29  1  0
  2  6  1  0
  2  3  1  0
  3  4  2  0
  4  5  1  0
  5  6  2  0
  6  7  1  0
  7 25  1  0
  7  8  2  0
  8  9  1  0
  8 30  1  0
  9 10  2  0
  9 31  1  0
 10 25  1  0
 10 11  1  0
 11 22  1  0
 11 12  1  0
 11 32  1  1
 12 13  1  0
 12 33  1  0
 12 34  1  0
 13 14  2  0
 13 35  1  0
 14 20  1  0
 14 15  1  0
 15 16  1  0
 15 36  1  0
 15 37  1  0
 16 17  2  0
 16 18  1  0
 18 19  1  0
 18 38  1  0
 18 39  1  0
 19 20  1  0
 19 40  1  0
 19 41  1  0
 20 21  1  1
 20 22  1  0
 21 42  1  0
 21 43  1  0
 21 44  1  0
 22 23  1  0
 22 45  1  6
 23 24  1  0
 23 46  1  0
 23 47  1  0
 24 25  1  0
 24 48  1  0
 24 49  1  0
 25 26  1  1
 26 50  1  0
 26 51  1  0
 26 52  1  0
M  END
>  <i_m_ct_stereo_status>  (27) 
1

>  <s_m_source_file>  (27) 
/var/tmp/pbs.5076255.sched01/tmp9stzsw2m/06nqgg2pe.sdf

>  <i_m_source_file_index>  (27) 
16

>  <i_lp_mmshare_version>  (27) 
48012

>  <i_f3d_flags>  (27) 
0

>  <s_epik_input>  (27) 
W0NIM11uMW5ubmMxQyg9W0NIXVtDSF09MilbQ0BAXShbQ0gzXSkoW0NIMl1bQ0gyXVtDQEBIXTM0KUMyW0NAQEhdM1tDSDJdW0NIXT1DKFtDQEBdNDVbQ0gzXSlbQ0gyXUMoPU8pW0NIMl1bQ0gyXTU=

>  <s_epik_cmdline>  (27) 
J2VwaWtfcHl0aG9uJywgJy1waHQnLCAnMi4wJywgJy1waCcsICc3LjAnLCAnLXRuJywgJzgnLCAnLW1hJywgJzIwMCcsICctaW1hZScsICc8aW5maWxlLm1hZT4nLCAnLW9tYWUnLCAnPG91dGZpbGUubWFlPic=

>  <r_lp_tautomer_probability>  (27) 
1

>  <r_epik_Ionization_Penalty>  (27) 
2.99771e-06

>  <r_epik_Ionization_Penalty_Charging>  (27) 
0

>  <r_epik_Ionization_Penalty_Neutral>  (27) 
2.99771e-06

>  <r_epik_State_Penalty>  (27) 
-0

>  <r_epik_Charging_Adjusted_Penalty>  (27) 
0

>  <i_epik_Tot_Q>  (27) 
0

>  <i_epik_Tot_abs_Q>  (27) 
0

>  <s_lp_Force_Field>  (27) 
OPLS3e

>  <r_lp_Energy>  (27) 
29.7881

>  <b_lp_Chiralities_Consistent>  (27) 
1

>  <s_lp_Variant>  (27) 
9:0-1

>  <s_i_glide_gridfile>  (27) 
pfpi4k_grid

>  <i_i_glide_lignum>  (27) 
16

>  <i_i_glide_rotatable_bonds>  (27) 
1

>  <r_i_docking_score>  (27) 
-2.94344

>  <r_i_glide_ligand_efficiency>  (27) 
-0.113209

>  <r_i_glide_ligand_efficiency_sa>  (27) 
-0.335382

>  <r_i_glide_ligand_efficiency_ln>  (27) 
-0.691256

>  <r_i_glide_gscore>  (27) 
-2.94344

>  <r_i_glide_lipo>  (27) 
-0.167686

>  <r_i_glide_hbond>  (27) 
0

>  <r_i_glide_metal>  (27) 
-0

>  <r_i_glide_rewards>  (27) 
-1.04478

>  <r_i_glide_evdw>  (27) 
-26.9978

>  <r_i_glide_ecoul>  (27) 
-3.23379

>  <r_i_glide_erotb>  (27) 
0.155195

>  <r_i_glide_esite>  (27) 
-0.0512038

>  <r_i_glide_emodel>  (27) 
-34.0489

>  <r_i_glide_energy>  (27) 
-30.2316

>  <r_i_glide_einternal>  (27) 
3.13572

>  <r_i_glide_intrahb_reward>  (27) 
-0

>  <i_i_glide_confnum>  (27) 
3

>  <i_i_glide_posenum>  (27) 
11

>  <r_i_glide_eff_state_penalty>  (27) 
0

>  <ligand_id>  (27) 
9

>  <original_smiles>  (27) 
Cn1nnnc1C1=CC=C2C3CC=C4CC(=O)CCC4(C)C3CCC12C

>  <smiles>  (27) 
[H]C1=C(c2nnnn2C([H])([H])[H])C2(C([H])([H])[H])C(=C1[H])C1([H])C([H])([H])C([H])=C3C([H])([H])C(=O)C([H])([H])C([H])([H])C3(C([H])([H])[H])C1([H])C([H])([H])C2([H])[H]

$$$$
9:0:2
     RDKit          3D

 52 56  0  0  1  0  0  0  0  0999 V2000
   -2.0590    3.6342    3.4561 C   0  0  0  0  0  0  0  0  0  0  0  0
   -1.8176    2.7362    4.5682 N   0  0  0  0  0  0  0  0  0  0  0  0
   -2.5186    2.9133    5.7180 N   0  0  0  0  0  0  0  0  0  0  0  0
   -2.1417    1.9773    6.5409 N   0  0  0  0  0  0  0  0  0  0  0  0
   -1.1809    1.1673    5.9612 N   0  0  0  0  0  0  0  0  0  0  0  0
   -1.0005    1.6799    4.7459 C   0  0  0  0  0  0  0  0  0  0  0  0
   -0.0132    1.1172    3.7936 C   0  0  0  0  0  0  0  0  0  0  0  0
    0.1834    1.5269    2.5235 C   0  0  0  0  0  0  0  0  0  0  0  0
    1.2523    0.7883    1.9179 C   0  0  0  0  0  0  0  0  0  0  0  0
    1.7329   -0.0880    2.8051 C   0  0  0  0  0  0  0  0  0  0  0  0
    2.7641   -1.1980    2.6195 C   0  0  2  0  0  0  0  0  0  0  0  0
    3.3711   -1.2367    1.2014 C   0  0  0  0  0  0  0  0  0  0  0  0
    4.1216   -2.5179    0.9101 C   0  0  0  0  0  0  0  0  0  0  0  0
    4.0754   -3.6303    1.6671 C   0  0  0  0  0  0  0  0  0  0  0  0
    4.9366   -4.8396    1.2966 C   0  0  0  0  0  0  0  0  0  0  0  0
    4.1666   -6.1495    1.4097 C   0  0  0  0  0  0  0  0  0  0  0  0
    4.2455   -7.0270    0.5499 O   0  0  0  0  0  0  0  0  0  0  0  0
    3.3359   -6.3367    2.6698 C   0  0  0  0  0  0  0  0  0  0  0  0
    2.4513   -5.1037    2.9256 C   0  0  0  0  0  0  0  0  0  0  0  0
    3.2122   -3.7424    2.9409 C   0  0  1  0  0  0  0  0  0  0  0  0
    4.1765   -3.7063    4.1536 C   0  0  0  0  0  0  0  0  0  0  0  0
    2.1573   -2.5734    3.0080 C   0  0  1  0  0  0  0  0  0  0  0  0
    1.3780   -2.4953    4.3537 C   0  0  0  0  0  0  0  0  0  0  0  0
    0.3581   -1.3424    4.4198 C   0  0  0  0  0  0  0  0  0  0  0  0
    1.0096    0.0244    4.1361 C   0  0  2  0  0  0  0  0  0  0  0  0
    1.9737    0.4872    5.2497 C   0  0  0  0  0  0  0  0  0  0  0  0
   -1.1178    3.9770    3.0267 H   0  0  0  0  0  0  0  0  0  0  0  0
   -2.6028    4.5131    3.7999 H   0  0  0  0  0  0  0  0  0  0  0  0
   -2.6566    3.1221    2.6994 H   0  0  0  0  0  0  0  0  0  0  0  0
   -0.3627    2.2857    1.9848 H   0  0  0  0  0  0  0  0  0  0  0  0
    1.5469    0.8884    0.8864 H   0  0  0  0  0  0  0  0  0  0  0  0
    3.5690   -0.9614    3.3119 H   0  0  0  0  0  0  0  0  0  0  0  0
    2.6148   -1.1364    0.4269 H   0  0  0  0  0  0  0  0  0  0  0  0
    4.0565   -0.3994    1.0748 H   0  0  0  0  0  0  0  0  0  0  0  0
    4.7368   -2.5037    0.0220 H   0  0  0  0  0  0  0  0  0  0  0  0
    5.3178   -4.7399    0.2814 H   0  0  0  0  0  0  0  0  0  0  0  0
    5.7976   -4.8996    1.9601 H   0  0  0  0  0  0  0  0  0  0  0  0
    2.7295   -7.2386    2.5828 H   0  0  0  0  0  0  0  0  0  0  0  0
    4.0169   -6.5034    3.5026 H   0  0  0  0  0  0  0  0  0  0  0  0
    1.6851   -5.0856    2.1502 H   0  0  0  0  0  0  0  0  0  0  0  0
    1.9217   -5.2611    3.8656 H   0  0  0  0  0  0  0  0  0  0  0  0
    3.6638   -3.9168    5.0926 H   0  0  0  0  0  0  0  0  0  0  0  0
    4.6642   -2.7345    4.2406 H   0  0  0  0  0  0  0  0  0  0  0  0
    4.9716   -4.4482    4.0638 H   0  0  0  0  0  0  0  0  0  0  0  0
    1.4142   -2.7824    2.2375 H   0  0  0  0  0  0  0  0  0  0  0  0
    0.8425   -3.4257    4.5268 H   0  0  0  0  0  0  0  0  0  0  0  0
    2.0681   -2.3786    5.1870 H   0  0  0  0  0  0  0  0  0  0  0  0
   -0.4257   -1.5258    3.6850 H   0  0  0  0  0  0  0  0  0  0  0  0
   -0.1358   -1.3343    5.3914 H   0  0  0  0  0  0  0  0  0  0  0  0
    2.4241    1.4458    4.9906 H   0  0  0  0  0  0  0  0  0  0  0  0
    2.7906   -0.2189    5.4007 H   0  0  0  0  0  0  0  0  0  0  0  0
    1.4648    0.6052    6.2061 H   0  0  0  0  0  0  0  0  0  0  0  0
  1  2  1  0
  1 27  1  0
  1 28  1  0
  1 29  1  0
  2  6  1  0
  2  3  1  0
  3  4  2  0
  4  5  1  0
  5  6  2  0
  6  7  1  0
  7 25  1  0
  7  8  2  0
  8  9  1  0
  8 30  1  0
  9 10  2  0
  9 31  1  0
 10 25  1  0
 10 11  1  0
 11 22  1  0
 11 12  1  0
 11 32  1  1
 12 13  1  0
 12 33  1  0
 12 34  1  0
 13 14  2  0
 13 35  1  0
 14 20  1  0
 14 15  1  0
 15 16  1  0
 15 36  1  0
 15 37  1  0
 16 17  2  0
 16 18  1  0
 18 19  1  0
 18 38  1  0
 18 39  1  0
 19 20  1  0
 19 40  1  0
 19 41  1  0
 20 21  1  1
 20 22  1  0
 21 42  1  0
 21 43  1  0
 21 44  1  0
 22 23  1  0
 22 45  1  6
 23 24  1  0
 23 46  1  0
 23 47  1  0
 24 25  1  0
 24 48  1  0
 24 49  1  0
 25 26  1  1
 26 50  1  0
 26 51  1  0
 26 52  1  0
M  END
>  <i_m_ct_stereo_status>  (28) 
1

>  <s_m_source_file>  (28) 
/var/tmp/pbs.5076255.sched01/tmp9stzsw2m/06nqgg2pe.sdf

>  <i_m_source_file_index>  (28) 
16

>  <i_lp_mmshare_version>  (28) 
48012

>  <i_f3d_flags>  (28) 
0

>  <s_epik_input>  (28) 
W0NIM11uMW5ubmMxQyg9W0NIXVtDSF09MilbQ0BAXShbQ0gzXSkoW0NIMl1bQ0gyXVtDQEBIXTM0KUMyW0NAQEhdM1tDSDJdW0NIXT1DKFtDQEBdNDVbQ0gzXSlbQ0gyXUMoPU8pW0NIMl1bQ0gyXTU=

>  <s_epik_cmdline>  (28) 
J2VwaWtfcHl0aG9uJywgJy1waHQnLCAnMi4wJywgJy1waCcsICc3LjAnLCAnLXRuJywgJzgnLCAnLW1hJywgJzIwMCcsICctaW1hZScsICc8aW5maWxlLm1hZT4nLCAnLW9tYWUnLCAnPG91dGZpbGUubWFlPic=

>  <r_lp_tautomer_probability>  (28) 
1

>  <r_epik_Ionization_Penalty>  (28) 
2.99771e-06

>  <r_epik_Ionization_Penalty_Charging>  (28) 
0

>  <r_epik_Ionization_Penalty_Neutral>  (28) 
2.99771e-06

>  <r_epik_State_Penalty>  (28) 
-0

>  <r_epik_Charging_Adjusted_Penalty>  (28) 
0

>  <i_epik_Tot_Q>  (28) 
0

>  <i_epik_Tot_abs_Q>  (28) 
0

>  <s_lp_Force_Field>  (28) 
OPLS3e

>  <r_lp_Energy>  (28) 
29.7881

>  <b_lp_Chiralities_Consistent>  (28) 
1

>  <s_lp_Variant>  (28) 
9:0-1

>  <s_i_glide_gridfile>  (28) 
pfpi4k_grid

>  <i_i_glide_lignum>  (28) 
16

>  <i_i_glide_rotatable_bonds>  (28) 
1

>  <r_i_docking_score>  (28) 
-2.61758

>  <r_i_glide_ligand_efficiency>  (28) 
-0.100676

>  <r_i_glide_ligand_efficiency_sa>  (28) 
-0.298253

>  <r_i_glide_ligand_efficiency_ln>  (28) 
-0.61473

>  <r_i_glide_gscore>  (28) 
-2.61758

>  <r_i_glide_lipo>  (28) 
-0.0531612

>  <r_i_glide_hbond>  (28) 
0

>  <r_i_glide_metal>  (28) 
-0

>  <r_i_glide_rewards>  (28) 
-1.0972

>  <r_i_glide_evdw>  (28) 
-23.8035

>  <r_i_glide_ecoul>  (28) 
-2.41518

>  <r_i_glide_erotb>  (28) 
0.155195

>  <r_i_glide_esite>  (28) 
-0.0699625

>  <r_i_glide_emodel>  (28) 
-31.0121

>  <r_i_glide_energy>  (28) 
-26.2187

>  <r_i_glide_einternal>  (28) 
0.00802693

>  <r_i_glide_intrahb_reward>  (28) 
-0

>  <i_i_glide_confnum>  (28) 
1

>  <i_i_glide_posenum>  (28) 
12

>  <r_i_glide_eff_state_penalty>  (28) 
0

>  <ligand_id>  (28) 
9

>  <original_smiles>  (28) 
Cn1nnnc1C1=CC=C2C3CC=C4CC(=O)CCC4(C)C3CCC12C

>  <smiles>  (28) 
[H]C1=C(c2nnnn2C([H])([H])[H])C2(C([H])([H])[H])C(=C1[H])C1([H])C([H])([H])C([H])=C3C([H])([H])C(=O)C([H])([H])C([H])([H])C3(C([H])([H])[H])C1([H])C([H])([H])C2([H])[H]

$$$$
10:0:0
     RDKit          3D

 31 33  0  0  1  0  0  0  0  0999 V2000
   -5.2349   -5.1274   -5.1320 C   0  0  0  0  0  0  0  0  0  0  0  0
   -4.5939   -6.3834   -5.4162 O   0  0  0  0  0  0  0  0  0  0  0  0
   -5.3869   -7.5678   -5.6502 C   0  0  0  0  0  0  0  0  0  0  0  0
   -4.6355   -8.7058   -4.9239 C   0  0  0  0  0  0  0  0  0  0  0  0
   -6.7845   -7.4228   -5.0088 C   0  0  0  0  0  0  0  0  0  0  0  0
   -5.5319   -7.9244   -7.1634 C   0  0  0  0  0  0  0  0  0  0  0  0
   -5.9679   -9.2996   -7.4194 N   0  0  0  0  0  0  0  0  0  0  0  0
   -5.0579  -10.3516   -7.5343 N   0  0  0  0  0  0  0  0  0  0  0  0
   -5.7202  -11.5140   -7.7423 C   0  0  0  0  0  0  0  0  0  0  0  0
   -7.1102  -11.2017   -7.7675 C   0  0  0  0  0  0  0  0  0  0  0  0
   -7.2121   -9.8234   -7.5653 C   0  0  0  0  0  0  0  0  0  0  0  0
   -8.4491   -9.2006   -7.5392 N   0  0  0  0  0  0  0  0  0  0  0  0
   -9.5615   -9.9595   -7.7190 C   0  0  0  0  0  0  0  0  0  0  0  0
   -9.4210  -11.3243   -7.9231 N   0  0  0  0  0  0  0  0  0  0  0  0
  -10.3918  -12.2529   -8.1395 N   0  0  0  0  0  0  0  0  0  0  0  0
   -9.7304  -13.3873   -8.2826 N   0  0  0  0  0  0  0  0  0  0  0  0
   -8.3204  -13.2574   -8.1635 N   0  0  0  0  0  0  0  0  0  0  0  0
   -8.2880  -11.9844   -7.9557 C   0  0  0  0  0  0  0  0  0  0  0  0
   -4.5361   -4.2992   -5.0443 H   0  0  0  0  0  0  0  0  0  0  0  0
   -5.7712   -5.1364   -4.1832 H   0  0  0  0  0  0  0  0  0  0  0  0
   -5.9313   -4.8522   -5.9243 H   0  0  0  0  0  0  0  0  0  0  0  0
   -5.2322   -9.6192   -4.8799 H   0  0  0  0  0  0  0  0  0  0  0  0
   -4.4043   -8.4461   -3.8973 H   0  0  0  0  0  0  0  0  0  0  0  0
   -3.6929   -8.9516   -5.4149 H   0  0  0  0  0  0  0  0  0  0  0  0
   -7.3621   -8.3392   -5.1142 H   0  0  0  0  0  0  0  0  0  0  0  0
   -7.3795   -6.6195   -5.4526 H   0  0  0  0  0  0  0  0  0  0  0  0
   -6.6702   -7.1919   -3.9457 H   0  0  0  0  0  0  0  0  0  0  0  0
   -6.2374   -7.2424   -7.6366 H   0  0  0  0  0  0  0  0  0  0  0  0
   -4.5903   -7.7737   -7.6771 H   0  0  0  0  0  0  0  0  0  0  0  0
   -5.2054  -12.4573   -7.8602 H   0  0  0  0  0  0  0  0  0  0  0  0
  -10.5471   -9.5176   -7.7046 H   0  0  0  0  0  0  0  0  0  0  0  0
  1  2  1  0
  1 19  1  0
  1 20  1  0
  1 21  1  0
  2  3  1  0
  3  4  1  0
  3  5  1  0
  3  6  1  0
  4 22  1  0
  4 23  1  0
  4 24  1  0
  5 25  1  0
  5 26  1  0
  5 27  1  0
  6  7  1  0
  6 28  1  0
  6 29  1  0
  7 11  1  0
  7  8  1  0
  8  9  2  0
  9 10  1  0
  9 30  1  0
 10 18  1  0
 10 11  2  0
 11 12  1  0
 12 13  2  0
 13 14  1  0
 13 31  1  0
 14 18  1  0
 14 15  1  0
 15 16  2  0
 16 17  1  0
 17 18  2  0
M  END
>  <i_m_ct_stereo_status>  (29) 
1

>  <s_m_source_file>  (29) 
/var/tmp/pbs.5076255.sched01/tmp9stzsw2m/06nqgg2pe.sdf

>  <i_m_source_file_index>  (29) 
17

>  <i_lp_mmshare_version>  (29) 
48012

>  <i_f3d_flags>  (29) 
0

>  <s_epik_input>  (29) 
W0NIM11PQyhbQ0gzXSkoW0NIM10pW0NIMl1uKG5bY0hdMSljKGMxMiluW2NIXW4zYzJubm4z

>  <s_epik_cmdline>  (29) 
J2VwaWtfcHl0aG9uJywgJy1waHQnLCAnMi4wJywgJy1waCcsICc3LjAnLCAnLXRuJywgJzgnLCAnLW1hJywgJzIwMCcsICctaW1hZScsICc8aW5maWxlLm1hZT4nLCAnLW9tYWUnLCAnPG91dGZpbGUubWFlPic=

>  <r_lp_tautomer_probability>  (29) 
1

>  <r_epik_Ionization_Penalty>  (29) 
2.31453e-09

>  <r_epik_Ionization_Penalty_Charging>  (29) 
0

>  <r_epik_Ionization_Penalty_Neutral>  (29) 
2.31453e-09

>  <r_epik_State_Penalty>  (29) 
-0

>  <r_epik_Charging_Adjusted_Penalty>  (29) 
0

>  <i_epik_Tot_Q>  (29) 
0

>  <i_epik_Tot_abs_Q>  (29) 
0

>  <s_lp_Force_Field>  (29) 
OPLS3e

>  <r_lp_Energy>  (29) 
16.1492

>  <b_lp_Chiralities_Consistent>  (29) 
1

>  <s_lp_Variant>  (29) 
10:0-1

>  <s_i_glide_gridfile>  (29) 
pfpi4k_grid

>  <i_i_glide_lignum>  (29) 
17

>  <i_i_glide_rotatable_bonds>  (29) 
3

>  <r_i_docking_score>  (29) 
-4.81505

>  <r_i_glide_ligand_efficiency>  (29) 
-0.267503

>  <r_i_glide_ligand_efficiency_sa>  (29) 
-0.701055

>  <r_i_glide_ligand_efficiency_ln>  (29) 
-1.23768

>  <r_i_glide_gscore>  (29) 
-4.81505

>  <r_i_glide_lipo>  (29) 
-0.85507

>  <r_i_glide_hbond>  (29) 
-0.32

>  <r_i_glide_metal>  (29) 
-0

>  <r_i_glide_rewards>  (29) 
-2.25924

>  <r_i_glide_evdw>  (29) 
-23.1379

>  <r_i_glide_ecoul>  (29) 
-3.35619

>  <r_i_glide_erotb>  (29) 
0.285343

>  <r_i_glide_esite>  (29) 
-0.00575773

>  <r_i_glide_emodel>  (29) 
-30.1864

>  <r_i_glide_energy>  (29) 
-26.494

>  <r_i_glide_einternal>  (29) 
7.96227

>  <r_i_glide_intrahb_reward>  (29) 
-0

>  <i_i_glide_confnum>  (29) 
3

>  <i_i_glide_posenum>  (29) 
9

>  <r_i_glide_eff_state_penalty>  (29) 
0

>  <ligand_id>  (29) 
10

>  <original_smiles>  (29) 
COC(C)(C)Cn1ncc2c1ncn1nnnc21

>  <smiles>  (29) 
[H]c1nn(C([H])([H])C(OC([H])([H])[H])(C([H])([H])[H])C([H])([H])[H])c2nc([H])n3nnnc3c12

$$$$
10:0:1
     RDKit          3D

 31 33  0  0  1  0  0  0  0  0999 V2000
   -6.3641   -7.0209   -5.1842 C   0  0  0  0  0  0  0  0  0  0  0  0
   -7.4802   -6.2133   -4.8033 O   0  0  0  0  0  0  0  0  0  0  0  0
   -7.5288   -4.8447   -5.2125 C   0  0  0  0  0  0  0  0  0  0  0  0
   -8.8289   -4.2444   -4.6683 C   0  0  0  0  0  0  0  0  0  0  0  0
   -6.3567   -4.0995   -4.5215 C   0  0  0  0  0  0  0  0  0  0  0  0
   -7.5411   -4.7428   -6.7485 C   0  0  0  0  0  0  0  0  0  0  0  0
   -8.5882   -5.4874   -7.4382 N   0  0  0  0  0  0  0  0  0  0  0  0
   -9.9065   -5.0457   -7.5370 N   0  0  0  0  0  0  0  0  0  0  0  0
  -10.6869   -6.0049   -8.1048 C   0  0  0  0  0  0  0  0  0  0  0  0
   -9.8149   -7.0393   -8.5354 C   0  0  0  0  0  0  0  0  0  0  0  0
   -8.5278   -6.6711   -8.1184 C   0  0  0  0  0  0  0  0  0  0  0  0
   -7.4556   -7.4711   -8.4387 N   0  0  0  0  0  0  0  0  0  0  0  0
   -7.6618   -8.6318   -9.1247 C   0  0  0  0  0  0  0  0  0  0  0  0
   -8.9520   -8.9424   -9.4977 N   0  0  0  0  0  0  0  0  0  0  0  0
   -9.3944  -10.0098  -10.1979 N   0  0  0  0  0  0  0  0  0  0  0  0
  -10.6875   -9.8172  -10.3023 N   0  0  0  0  0  0  0  0  0  0  0  0
  -11.1654   -8.6332   -9.6847 N   0  0  0  0  0  0  0  0  0  0  0  0
  -10.0202   -8.2339   -9.2502 C   0  0  0  0  0  0  0  0  0  0  0  0
   -6.4329   -7.9944   -4.7310 H   0  0  0  0  0  0  0  0  0  0  0  0
   -5.3833   -6.6262   -4.9326 H   0  0  0  0  0  0  0  0  0  0  0  0
   -6.3585   -7.2049   -6.2468 H   0  0  0  0  0  0  0  0  0  0  0  0
   -8.8905   -3.1756   -4.8718 H   0  0  0  0  0  0  0  0  0  0  0  0
   -8.8507   -4.3633   -3.5824 H   0  0  0  0  0  0  0  0  0  0  0  0
   -9.7201   -4.6654   -5.1216 H   0  0  0  0  0  0  0  0  0  0  0  0
   -6.3523   -3.0388   -4.7285 H   0  0  0  0  0  0  0  0  0  0  0  0
   -5.3668   -4.4632   -4.8093 H   0  0  0  0  0  0  0  0  0  0  0  0
   -6.4516   -4.1742   -3.4319 H   0  0  0  0  0  0  0  0  0  0  0  0
   -7.5978   -3.7048   -7.0486 H   0  0  0  0  0  0  0  0  0  0  0  0
   -6.5935   -5.1459   -7.0547 H   0  0  0  0  0  0  0  0  0  0  0  0
  -11.7663   -5.9045   -8.1682 H   0  0  0  0  0  0  0  0  0  0  0  0
   -6.8414   -9.2983   -9.3706 H   0  0  0  0  0  0  0  0  0  0  0  0
  1  2  1  0
  1 19  1  0
  1 20  1  0
  1 21  1  0
  2  3  1  0
  3  4  1  0
  3  5  1  0
  3  6  1  0
  4 22  1  0
  4 23  1  0
  4 24  1  0
  5 25  1  0
  5 26  1  0
  5 27  1  0
  6  7  1  0
  6 28  1  0
  6 29  1  0
  7 11  1  0
  7  8  1  0
  8  9  2  0
  9 10  1  0
  9 30  1  0
 10 18  1  0
 10 11  2  0
 11 12  1  0
 12 13  2  0
 13 14  1  0
 13 31  1  0
 14 18  1  0
 14 15  1  0
 15 16  2  0
 16 17  1  0
 17 18  2  0
M  END
>  <i_m_ct_stereo_status>  (30) 
1

>  <s_m_source_file>  (30) 
/var/tmp/pbs.5076255.sched01/tmp9stzsw2m/06nqgg2pe.sdf

>  <i_m_source_file_index>  (30) 
17

>  <i_lp_mmshare_version>  (30) 
48012

>  <i_f3d_flags>  (30) 
0

>  <s_epik_input>  (30) 
W0NIM11PQyhbQ0gzXSkoW0NIM10pW0NIMl1uKG5bY0hdMSljKGMxMiluW2NIXW4zYzJubm4z

>  <s_epik_cmdline>  (30) 
J2VwaWtfcHl0aG9uJywgJy1waHQnLCAnMi4wJywgJy1waCcsICc3LjAnLCAnLXRuJywgJzgnLCAnLW1hJywgJzIwMCcsICctaW1hZScsICc8aW5maWxlLm1hZT4nLCAnLW9tYWUnLCAnPG91dGZpbGUubWFlPic=

>  <r_lp_tautomer_probability>  (30) 
1

>  <r_epik_Ionization_Penalty>  (30) 
2.31453e-09

>  <r_epik_Ionization_Penalty_Charging>  (30) 
0

>  <r_epik_Ionization_Penalty_Neutral>  (30) 
2.31453e-09

>  <r_epik_State_Penalty>  (30) 
-0

>  <r_epik_Charging_Adjusted_Penalty>  (30) 
0

>  <i_epik_Tot_Q>  (30) 
0

>  <i_epik_Tot_abs_Q>  (30) 
0

>  <s_lp_Force_Field>  (30) 
OPLS3e

>  <r_lp_Energy>  (30) 
16.1492

>  <b_lp_Chiralities_Consistent>  (30) 
1

>  <s_lp_Variant>  (30) 
10:0-1

>  <s_i_glide_gridfile>  (30) 
pfpi4k_grid

>  <i_i_glide_lignum>  (30) 
17

>  <i_i_glide_rotatable_bonds>  (30) 
3

>  <r_i_docking_score>  (30) 
-4.48539

>  <r_i_glide_ligand_efficiency>  (30) 
-0.249188

>  <r_i_glide_ligand_efficiency_sa>  (30) 
-0.653058

>  <r_i_glide_ligand_efficiency_ln>  (30) 
-1.15295

>  <r_i_glide_gscore>  (30) 
-4.48539

>  <r_i_glide_lipo>  (30) 
-1.30892

>  <r_i_glide_hbond>  (30) 
0

>  <r_i_glide_metal>  (30) 
-0

>  <r_i_glide_rewards>  (30) 
-2.46836

>  <r_i_glide_evdw>  (30) 
-17.3083

>  <r_i_glide_ecoul>  (30) 
-0.816062

>  <r_i_glide_erotb>  (30) 
0.285343

>  <r_i_glide_esite>  (30) 
-0.00562591

>  <r_i_glide_emodel>  (30) 
-24.3935

>  <r_i_glide_energy>  (30) 
-18.1244

>  <r_i_glide_einternal>  (30) 
0.675459

>  <r_i_glide_intrahb_reward>  (30) 
-0

>  <i_i_glide_confnum>  (30) 
6

>  <i_i_glide_posenum>  (30) 
2

>  <r_i_glide_eff_state_penalty>  (30) 
0

>  <ligand_id>  (30) 
10

>  <original_smiles>  (30) 
COC(C)(C)Cn1ncc2c1ncn1nnnc21

>  <smiles>  (30) 
[H]c1nn(C([H])([H])C(OC([H])([H])[H])(C([H])([H])[H])C([H])([H])[H])c2nc([H])n3nnnc3c12

$$$$
10:0:2
     RDKit          3D

 31 33  0  0  1  0  0  0  0  0999 V2000
   -6.1183   -3.9064   -4.5229 C   0  0  0  0  0  0  0  0  0  0  0  0
   -5.8614   -4.9269   -5.5035 O   0  0  0  0  0  0  0  0  0  0  0  0
   -6.8183   -5.9947   -5.5975 C   0  0  0  0  0  0  0  0  0  0  0  0
   -6.5780   -6.8869   -4.3784 C   0  0  0  0  0  0  0  0  0  0  0  0
   -8.2469   -5.4077   -5.6224 C   0  0  0  0  0  0  0  0  0  0  0  0
   -6.5826   -6.8255   -6.8947 C   0  0  0  0  0  0  0  0  0  0  0  0
   -7.3638   -8.0407   -7.0366 N   0  0  0  0  0  0  0  0  0  0  0  0
   -6.9747   -9.2441   -6.4559 N   0  0  0  0  0  0  0  0  0  0  0  0
   -7.9097  -10.1919   -6.7207 C   0  0  0  0  0  0  0  0  0  0  0  0
   -8.8950   -9.5900   -7.5391 C   0  0  0  0  0  0  0  0  0  0  0  0
   -8.5178   -8.2660   -7.7145 C   0  0  0  0  0  0  0  0  0  0  0  0
   -9.2941   -7.3946   -8.4777 N   0  0  0  0  0  0  0  0  0  0  0  0
  -10.4412   -7.8708   -9.0360 C   0  0  0  0  0  0  0  0  0  0  0  0
  -10.7799   -9.2035   -8.8217 N   0  0  0  0  0  0  0  0  0  0  0  0
  -11.8488   -9.8788   -9.2985 N   0  0  0  0  0  0  0  0  0  0  0  0
  -11.6920  -11.1061   -8.8084 N   0  0  0  0  0  0  0  0  0  0  0  0
  -10.5292  -11.2719   -8.0215 N   0  0  0  0  0  0  0  0  0  0  0  0
  -10.0985  -10.0697   -8.1211 C   0  0  0  0  0  0  0  0  0  0  0  0
   -5.3820   -3.1219   -4.5705 H   0  0  0  0  0  0  0  0  0  0  0  0
   -6.1228   -4.2945   -3.5061 H   0  0  0  0  0  0  0  0  0  0  0  0
   -7.0503   -3.3678   -4.6873 H   0  0  0  0  0  0  0  0  0  0  0  0
   -7.3854   -7.6096   -4.3507 H   0  0  0  0  0  0  0  0  0  0  0  0
   -6.5727   -6.3541   -3.4302 H   0  0  0  0  0  0  0  0  0  0  0  0
   -5.6186   -7.4054   -4.4439 H   0  0  0  0  0  0  0  0  0  0  0  0
   -8.9743   -6.1848   -5.8086 H   0  0  0  0  0  0  0  0  0  0  0  0
   -8.3612   -4.6739   -6.4250 H   0  0  0  0  0  0  0  0  0  0  0  0
   -8.5492   -4.9611   -4.6722 H   0  0  0  0  0  0  0  0  0  0  0  0
   -6.8548   -6.2276   -7.7566 H   0  0  0  0  0  0  0  0  0  0  0  0
   -5.5277   -7.0798   -6.9735 H   0  0  0  0  0  0  0  0  0  0  0  0
   -7.8192  -11.1892   -6.3003 H   0  0  0  0  0  0  0  0  0  0  0  0
  -11.0763   -7.2444   -9.6491 H   0  0  0  0  0  0  0  0  0  0  0  0
  1  2  1  0
  1 19  1  0
  1 20  1  0
  1 21  1  0
  2  3  1  0
  3  4  1  0
  3  5  1  0
  3  6  1  0
  4 22  1  0
  4 23  1  0
  4 24  1  0
  5 25  1  0
  5 26  1  0
  5 27  1  0
  6  7  1  0
  6 28  1  0
  6 29  1  0
  7 11  1  0
  7  8  1  0
  8  9  2  0
  9 10  1  0
  9 30  1  0
 10 18  1  0
 10 11  2  0
 11 12  1  0
 12 13  2  0
 13 14  1  0
 13 31  1  0
 14 18  1  0
 14 15  1  0
 15 16  2  0
 16 17  1  0
 17 18  2  0
M  END
>  <i_m_ct_stereo_status>  (31) 
1

>  <s_m_source_file>  (31) 
/var/tmp/pbs.5076255.sched01/tmp9stzsw2m/06nqgg2pe.sdf

>  <i_m_source_file_index>  (31) 
17

>  <i_lp_mmshare_version>  (31) 
48012

>  <i_f3d_flags>  (31) 
0

>  <s_epik_input>  (31) 
W0NIM11PQyhbQ0gzXSkoW0NIM10pW0NIMl1uKG5bY0hdMSljKGMxMiluW2NIXW4zYzJubm4z

>  <s_epik_cmdline>  (31) 
J2VwaWtfcHl0aG9uJywgJy1waHQnLCAnMi4wJywgJy1waCcsICc3LjAnLCAnLXRuJywgJzgnLCAnLW1hJywgJzIwMCcsICctaW1hZScsICc8aW5maWxlLm1hZT4nLCAnLW9tYWUnLCAnPG91dGZpbGUubWFlPic=

>  <r_lp_tautomer_probability>  (31) 
1

>  <r_epik_Ionization_Penalty>  (31) 
2.31453e-09

>  <r_epik_Ionization_Penalty_Charging>  (31) 
0

>  <r_epik_Ionization_Penalty_Neutral>  (31) 
2.31453e-09

>  <r_epik_State_Penalty>  (31) 
-0

>  <r_epik_Charging_Adjusted_Penalty>  (31) 
0

>  <i_epik_Tot_Q>  (31) 
0

>  <i_epik_Tot_abs_Q>  (31) 
0

>  <s_lp_Force_Field>  (31) 
OPLS3e

>  <r_lp_Energy>  (31) 
16.1492

>  <b_lp_Chiralities_Consistent>  (31) 
1

>  <s_lp_Variant>  (31) 
10:0-1

>  <s_i_glide_gridfile>  (31) 
pfpi4k_grid

>  <i_i_glide_lignum>  (31) 
17

>  <i_i_glide_rotatable_bonds>  (31) 
3

>  <r_i_docking_score>  (31) 
-4.23119

>  <r_i_glide_ligand_efficiency>  (31) 
-0.235066

>  <r_i_glide_ligand_efficiency_sa>  (31) 
-0.616047

>  <r_i_glide_ligand_efficiency_ln>  (31) 
-1.08761

>  <r_i_glide_gscore>  (31) 
-4.23119

>  <r_i_glide_lipo>  (31) 
-1.39758

>  <r_i_glide_hbond>  (31) 
0

>  <r_i_glide_metal>  (31) 
-0

>  <r_i_glide_rewards>  (31) 
-2.1232

>  <r_i_glide_evdw>  (31) 
-17.6668

>  <r_i_glide_ecoul>  (31) 
-0.506763

>  <r_i_glide_erotb>  (31) 
0.285343

>  <r_i_glide_esite>  (31) 
-0.0363954

>  <r_i_glide_emodel>  (31) 
-22.9377

>  <r_i_glide_energy>  (31) 
-18.1736

>  <r_i_glide_einternal>  (31) 
2.84161

>  <r_i_glide_intrahb_reward>  (31) 
-0

>  <i_i_glide_confnum>  (31) 
6

>  <i_i_glide_posenum>  (31) 
27

>  <r_i_glide_eff_state_penalty>  (31) 
0

>  <ligand_id>  (31) 
10

>  <original_smiles>  (31) 
COC(C)(C)Cn1ncc2c1ncn1nnnc21

>  <smiles>  (31) 
[H]c1nn(C([H])([H])C(OC([H])([H])[H])(C([H])([H])[H])C([H])([H])[H])c2nc([H])n3nnnc3c12

$$$$
11:0:0
     RDKit          3D

 77 80  0  0  1  0  0  0  0  0999 V2000
    3.2117   -3.1808   -3.8800 C   0  0  0  0  0  0  0  0  0  0  0  0
    3.9374   -2.9115   -2.5583 C   0  0  0  0  0  0  0  0  0  0  0  0
    5.2334   -3.7502   -2.4622 C   0  0  0  0  0  0  0  0  0  0  0  0
    2.9789   -3.1300   -1.3625 C   0  0  0  0  0  0  0  0  0  0  0  0
    3.5623   -2.6059   -0.0632 C   0  0  0  0  0  0  0  0  0  0  0  0
    2.5811   -2.5954    1.1312 C   0  0  0  0  0  0  0  0  0  0  0  0
    3.1883   -2.2077    2.5172 C   0  0  2  0  0  0  0  0  0  0  0  0
    3.7965   -0.7931    2.4832 C   0  0  0  0  0  0  0  0  0  0  0  0
    4.1764   -3.2052    3.2210 C   0  0  2  0  0  0  0  0  0  0  0  0
    5.2728   -3.7324    2.2875 C   0  0  0  0  0  0  0  0  0  0  0  0
    4.8269   -5.1728    1.8932 C   0  0  0  0  0  0  0  0  0  0  0  0
    3.4410   -5.3940    2.5344 C   0  0  1  0  0  0  0  0  0  0  0  0
    2.9157   -6.8042    2.8463 C   0  0  2  0  0  0  0  0  0  0  0  0
    2.7719   -7.6326    1.5486 C   0  0  1  0  0  0  0  0  0  0  0  0
    4.0439   -7.8618    0.9458 O   0  0  0  0  0  0  0  0  0  0  0  0
    2.1934   -9.0013    1.8735 C   0  0  0  0  0  0  0  0  0  0  0  0
    0.8214   -8.9053    2.5841 C   0  0  1  0  0  0  0  0  0  0  0  0
    0.2321  -10.3094    2.8632 C   0  0  0  0  0  0  0  0  0  0  0  0
    0.9137  -11.0392    4.0445 C   0  0  1  0  0  0  0  0  0  0  0  0
    2.2243  -11.4722    3.7090 O   0  0  0  0  0  0  0  0  0  0  0  0
    0.9753  -10.1544    5.2967 C   0  0  0  0  0  0  0  0  0  0  0  0
    1.6019   -8.7779    5.0145 C   0  0  0  0  0  0  0  0  0  0  0  0
    0.8548   -8.0297    3.8729 C   0  0  2  0  0  0  0  0  0  0  0  0
   -0.5976   -7.7535    4.3364 C   0  0  0  0  0  0  0  0  0  0  0  0
    1.5042   -6.6556    3.5377 C   0  0  1  0  0  0  0  0  0  0  0  0
    1.5079   -5.6791    4.7535 C   0  0  0  0  0  0  0  0  0  0  0  0
    2.0887   -4.3149    4.3856 C   0  0  0  0  0  0  0  0  0  0  0  0
    3.4922   -4.4899    3.7597 C   0  0  2  0  0  0  0  0  0  0  0  0
    4.4433   -5.1158    4.8342 C   0  0  0  0  0  0  0  0  0  0  0  0
    2.8330   -4.2019   -3.9191 H   0  0  0  0  0  0  0  0  0  0  0  0
    3.8819   -3.0345   -4.7206 H   0  0  0  0  0  0  0  0  0  0  0  0
    2.3646   -2.5052   -3.9950 H   0  0  0  0  0  0  0  0  0  0  0  0
    4.2332   -1.8610   -2.5458 H   0  0  0  0  0  0  0  0  0  0  0  0
    5.0054   -4.8170   -2.4462 H   0  0  0  0  0  0  0  0  0  0  0  0
    5.8174   -3.5247   -1.5681 H   0  0  0  0  0  0  0  0  0  0  0  0
    5.8920   -3.5538   -3.3075 H   0  0  0  0  0  0  0  0  0  0  0  0
    2.0129   -2.6610   -1.5347 H   0  0  0  0  0  0  0  0  0  0  0  0
    2.7950   -4.2046   -1.2346 H   0  0  0  0  0  0  0  0  0  0  0  0
    4.3605   -3.3216    0.0257 H   0  0  0  0  0  0  0  0  0  0  0  0
    4.0125   -1.6181   -0.2005 H   0  0  0  0  0  0  0  0  0  0  0  0
    1.7866   -1.8885    0.9136 H   0  0  0  0  0  0  0  0  0  0  0  0
    2.0225   -3.5146    1.1518 H   0  0  0  0  0  0  0  0  0  0  0  0
    2.3555   -2.0410    3.2016 H   0  0  0  0  0  0  0  0  0  0  0  0
    4.6328   -0.7329    1.7793 H   0  0  0  0  0  0  0  0  0  0  0  0
    4.1754   -0.4755    3.4683 H   0  0  0  0  0  0  0  0  0  0  0  0
    3.0308   -0.0665    2.1751 H   0  0  0  0  0  0  0  0  0  0  0  0
    4.6490   -2.6805    4.0663 H   0  0  0  0  0  0  0  0  0  0  0  0
    5.4689   -3.0018    1.5222 H   0  0  0  0  0  0  0  0  0  0  0  0
    6.2365   -3.7842    2.7690 H   0  0  0  0  0  0  0  0  0  0  0  0
    4.8045   -5.3457    0.8173 H   0  0  0  0  0  0  0  0  0  0  0  0
    5.5288   -5.9030    2.3042 H   0  0  0  0  0  0  0  0  0  0  0  0
    2.7023   -5.1006    1.8283 H   0  0  0  0  0  0  0  0  0  0  0  0
    3.6073   -7.3329    3.5096 H   0  0  0  0  0  0  0  0  0  0  0  0
    2.1269   -7.1122    0.8424 H   0  0  0  0  0  0  0  0  0  0  0  0
    4.5773   -8.3282    1.5481 H   0  0  0  0  0  0  0  0  0  0  0  0
    2.1066   -9.5850    0.9586 H   0  0  0  0  0  0  0  0  0  0  0  0
    2.9322   -9.5026    2.4917 H   0  0  0  0  0  0  0  0  0  0  0  0
    0.1589   -8.4092    1.8724 H   0  0  0  0  0  0  0  0  0  0  0  0
   -0.8298  -10.2121    3.0917 H   0  0  0  0  0  0  0  0  0  0  0  0
    0.2278  -10.9178    1.9623 H   0  0  0  0  0  0  0  0  0  0  0  0
    0.3565  -11.9488    4.2703 H   0  0  0  0  0  0  0  0  0  0  0  0
    2.1706  -12.1345    3.0618 H   0  0  0  0  0  0  0  0  0  0  0  0
   -0.0321  -10.0255    5.6955 H   0  0  0  0  0  0  0  0  0  0  0  0
    1.5248  -10.6583    6.0893 H   0  0  0  0  0  0  0  0  0  0  0  0
    1.5803   -8.2005    5.9362 H   0  0  0  0  0  0  0  0  0  0  0  0
    2.6573   -8.9123    4.7820 H   0  0  0  0  0  0  0  0  0  0  0  0
   -0.6169   -7.2983    5.3270 H   0  0  0  0  0  0  0  0  0  0  0  0
   -1.1962   -8.6537    4.4412 H   0  0  0  0  0  0  0  0  0  0  0  0
   -1.1207   -7.1070    3.6287 H   0  0  0  0  0  0  0  0  0  0  0  0
    0.8485   -6.1792    2.8007 H   0  0  0  0  0  0  0  0  0  0  0  0
    0.5112   -5.5018    5.1525 H   0  0  0  0  0  0  0  0  0  0  0  0
    2.0714   -6.0960    5.5843 H   0  0  0  0  0  0  0  0  0  0  0  0
    1.3840   -3.8525    3.6962 H   0  0  0  0  0  0  0  0  0  0  0  0
    2.1377   -3.6620    5.2628 H   0  0  0  0  0  0  0  0  0  0  0  0
    4.1281   -6.1110    5.1615 H   0  0  0  0  0  0  0  0  0  0  0  0
    4.5157   -4.4874    5.7335 H   0  0  0  0  0  0  0  0  0  0  0  0
    5.4554   -5.2700    4.4468 H   0  0  0  0  0  0  0  0  0  0  0  0
  1  2  1  0
  1 30  1  0
  1 31  1  0
  1 32  1  0
  2  3  1  0
  2  4  1  0
  2 33  1  0
  3 34  1  0
  3 35  1  0
  3 36  1  0
  4  5  1  0
  4 37  1  0
  4 38  1  0
  5  6  1  0
  5 39  1  0
  5 40  1  0
  6  7  1  0
  6 41  1  0
  6 42  1  0
  7  8  1  0
  7  9  1  0
  7 43  1  1
  8 44  1  0
  8 45  1  0
  8 46  1  0
  9 28  1  0
  9 10  1  0
  9 47  1  1
 10 11  1  0
 10 48  1  0
 10 49  1  0
 11 12  1  0
 11 50  1  0
 11 51  1  0
 12 28  1  0
 12 13  1  0
 12 52  1  6
 13 25  1  0
 13 14  1  0
 13 53  1  1
 14 15  1  0
 14 16  1  0
 14 54  1  6
 15 55  1  0
 16 17  1  0
 16 56  1  0
 16 57  1  0
 17 23  1  0
 17 18  1  0
 17 58  1  6
 18 19  1  0
 18 59  1  0
 18 60  1  0
 19 20  1  0
 19 21  1  0
 19 61  1  1
 20 62  1  0
 21 22  1  0
 21 63  1  0
 21 64  1  0
 22 23  1  0
 22 65  1  0
 22 66  1  0
 23 24  1  1
 23 25  1  0
 24 67  1  0
 24 68  1  0
 24 69  1  0
 25 26  1  0
 25 70  1  6
 26 27  1  0
 26 71  1  0
 26 72  1  0
 27 28  1  0
 27 73  1  0
 27 74  1  0
 28 29  1  1
 29 75  1  0
 29 76  1  0
 29 77  1  0
M  END
>  <i_m_ct_stereo_status>  (32) 
1

>  <s_m_source_file>  (32) 
/var/tmp/pbs.5076255.sched01/tmp9stzsw2m/06nqgg2pe.sdf

>  <i_m_source_file_index>  (32) 
18

>  <i_lp_mmshare_version>  (32) 
48012

>  <i_f3d_flags>  (32) 
0

>  <s_epik_input>  (32) 
W0NIM11bQ0hdKFtDSDNdKVtDSDJdW0NIMl1bQ0gyXVtDQEhdKFtDSDNdKVtDQEhdKFtDSDJdW0NIMl0xKVtDQEBdKFtDSDNdKShbQ0gyXVtDSDJdW0NAQEhdMjMpW0NAQEhdMVtDQEBIXTJbQ0BASF0oW09IXSlbQ0gyXVtDQEhdKFtDQF0zNFtDSDNdKVtDSDJdW0NAQEhdKFtPSF0pW0NIMl1bQ0gyXTQ=

>  <s_epik_cmdline>  (32) 
J2VwaWtfcHl0aG9uJywgJy1waHQnLCAnMi4wJywgJy1waCcsICc3LjAnLCAnLXRuJywgJzgnLCAnLW1hJywgJzIwMCcsICctaW1hZScsICc8aW5maWxlLm1hZT4nLCAnLW9tYWUnLCAnPG91dGZpbGUubWFlPic=

>  <r_lp_tautomer_probability>  (32) 
1

>  <r_epik_Ionization_Penalty>  (32) 
5.23123e-06

>  <r_epik_Ionization_Penalty_Charging>  (32) 
0

>  <r_epik_Ionization_Penalty_Neutral>  (32) 
5.23123e-06

>  <r_epik_State_Penalty>  (32) 
-0

>  <r_epik_Charging_Adjusted_Penalty>  (32) 
0

>  <i_epik_Tot_Q>  (32) 
0

>  <i_epik_Tot_abs_Q>  (32) 
0

>  <s_lp_Force_Field>  (32) 
OPLS3e

>  <r_lp_Energy>  (32) 
58.4537

>  <b_lp_Chiralities_Consistent>  (32) 
1

>  <s_lp_Variant>  (32) 
11:0-1

>  <s_i_glide_gridfile>  (32) 
pfpi4k_grid

>  <i_i_glide_lignum>  (32) 
18

>  <i_i_glide_rotatable_bonds>  (32) 
7

>  <r_i_docking_score>  (32) 
-2.15622

>  <r_i_glide_ligand_efficiency>  (32) 
-0.0743526

>  <r_i_glide_ligand_efficiency_sa>  (32) 
-0.228435

>  <r_i_glide_ligand_efficiency_ln>  (32) 
-0.493721

>  <r_i_glide_gscore>  (32) 
-2.15622

>  <r_i_glide_lipo>  (32) 
-0.464291

>  <r_i_glide_hbond>  (32) 
0

>  <r_i_glide_metal>  (32) 
-0

>  <r_i_glide_rewards>  (32) 
-0.649985

>  <r_i_glide_evdw>  (32) 
-25.7772

>  <r_i_glide_ecoul>  (32) 
-1.55302

>  <r_i_glide_erotb>  (32) 
0.479866

>  <r_i_glide_esite>  (32) 
0

>  <r_i_glide_emodel>  (32) 
-27.7908

>  <r_i_glide_energy>  (32) 
-27.3302

>  <r_i_glide_einternal>  (32) 
2.00963

>  <r_i_glide_intrahb_reward>  (32) 
-0

>  <i_i_glide_confnum>  (32) 
2

>  <i_i_glide_posenum>  (32) 
32

>  <r_i_glide_eff_state_penalty>  (32) 
0

>  <ligand_id>  (32) 
11

>  <original_smiles>  (32) 
CC(C)CCCC(C)C1CCC2C3C(O)CC4CC(O)CCC4(C)C3CCC12C

>  <smiles>  (32) 
[H]OC1([H])C([H])([H])C([H])([H])C2(C([H])([H])[H])C([H])(C1([H])[H])C([H])([H])C([H])(O[H])C1([H])C2([H])C([H])([H])C([H])([H])C2(C([H])([H])[H])C([H])(C([H])(C([H])([H])[H])C([H])([H])C([H])([H])C([H])([H])C([H])(C([H])([H])[H])C([H])([H])[H])C([H])([H])C([H])([H])C12[H]

$$$$
11:0:1
     RDKit          3D

 77 80  0  0  1  0  0  0  0  0999 V2000
    3.3513   -3.1549   -3.8905 C   0  0  0  0  0  0  0  0  0  0  0  0
    4.0400   -2.8220   -2.5562 C   0  0  0  0  0  0  0  0  0  0  0  0
    5.3828   -3.5722   -2.4322 C   0  0  0  0  0  0  0  0  0  0  0  0
    3.0738   -3.0927   -1.3635 C   0  0  0  0  0  0  0  0  0  0  0  0
    3.6425   -2.5603   -0.0572 C   0  0  0  0  0  0  0  0  0  0  0  0
    2.6176   -2.5812    1.1175 C   0  0  0  0  0  0  0  0  0  0  0  0
    3.2079   -2.1578    2.5044 C   0  0  2  0  0  0  0  0  0  0  0  0
    3.8318   -0.7764    2.4471 C   0  0  0  0  0  0  0  0  0  0  0  0
    4.1378   -3.1579    3.2701 C   0  0  2  0  0  0  0  0  0  0  0  0
    5.2633   -3.7186    2.4064 C   0  0  0  0  0  0  0  0  0  0  0  0
    4.8463   -5.1720    2.0555 C   0  0  0  0  0  0  0  0  0  0  0  0
    3.4213   -5.3586    2.6111 C   0  0  1  0  0  0  0  0  0  0  0  0
    2.8694   -6.7512    2.9491 C   0  0  2  0  0  0  0  0  0  0  0  0
    2.7719   -7.6048    1.6588 C   0  0  1  0  0  0  0  0  0  0  0  0
    4.0589   -7.8232    1.1200 O   0  0  0  0  0  0  0  0  0  0  0  0
    2.1659   -8.9690    1.9876 C   0  0  0  0  0  0  0  0  0  0  0  0
    0.7630   -8.8413    2.6209 C   0  0  1  0  0  0  0  0  0  0  0  0
    0.1439  -10.2256    2.9066 C   0  0  0  0  0  0  0  0  0  0  0  0
    0.7611  -10.9343    4.1340 C   0  0  1  0  0  0  0  0  0  0  0  0
    2.0670  -11.3722    3.8480 O   0  0  0  0  0  0  0  0  0  0  0  0
    0.7691  -10.0193    5.3741 C   0  0  0  0  0  0  0  0  0  0  0  0
    1.4173   -8.6555    5.0886 C   0  0  0  0  0  0  0  0  0  0  0  0
    0.7364   -7.9319    3.8905 C   0  0  2  0  0  0  0  0  0  0  0  0
   -0.7371   -7.6272    4.2695 C   0  0  0  0  0  0  0  0  0  0  0  0
    1.4239   -6.5664    3.5539 C   0  0  1  0  0  0  0  0  0  0  0  0
    1.3683   -5.5613    4.7431 C   0  0  0  0  0  0  0  0  0  0  0  0
    1.9813   -4.2130    4.3621 C   0  0  0  0  0  0  0  0  0  0  0  0
    3.4269   -4.4113    3.8217 C   0  0  2  0  0  0  0  0  0  0  0  0
    4.2970   -5.0140    4.9554 C   0  0  0  0  0  0  0  0  0  0  0  0
    3.0448   -4.2013   -3.9192 H   0  0  0  0  0  0  0  0  0  0  0  0
    4.0276   -2.9731   -4.7210 H   0  0  0  0  0  0  0  0  0  0  0  0
    2.4620   -2.5374   -4.0271 H   0  0  0  0  0  0  0  0  0  0  0  0
    4.2604   -1.7539   -2.5551 H   0  0  0  0  0  0  0  0  0  0  0  0
    5.2249   -4.6516   -2.4036 H   0  0  0  0  0  0  0  0  0  0  0  0
    5.9339   -3.2978   -1.5333 H   0  0  0  0  0  0  0  0  0  0  0  0
    6.0400   -3.3475   -3.2677 H   0  0  0  0  0  0  0  0  0  0  0  0
    2.1038   -2.6636   -1.5502 H   0  0  0  0  0  0  0  0  0  0  0  0
    2.9235   -4.1687   -1.2676 H   0  0  0  0  0  0  0  0  0  0  0  0
    4.4499   -3.2523    0.0559 H   0  0  0  0  0  0  0  0  0  0  0  0
    4.0574   -1.5788   -0.1977 H   0  0  0  0  0  0  0  0  0  0  0  0
    1.8338   -1.9190    0.8735 H   0  0  0  0  0  0  0  0  0  0  0  0
    2.1160   -3.4966    1.1059 H   0  0  0  0  0  0  0  0  0  0  0  0
    2.3406   -1.9645    3.1516 H   0  0  0  0  0  0  0  0  0  0  0  0
    4.7103   -0.7403    1.7764 H   0  0  0  0  0  0  0  0  0  0  0  0
    4.1813   -0.4105    3.4294 H   0  0  0  0  0  0  0  0  0  0  0  0
    3.1059   -0.0292    2.0743 H   0  0  0  0  0  0  0  0  0  0  0  0
    4.5715   -2.6104    4.1327 H   0  0  0  0  0  0  0  0  0  0  0  0
    5.5106   -3.0353    1.6381 H   0  0  0  0  0  0  0  0  0  0  0  0
    6.1958   -3.7566    2.9479 H   0  0  0  0  0  0  0  0  0  0  0  0
    4.8709   -5.3415    0.9700 H   0  0  0  0  0  0  0  0  0  0  0  0
    5.5081   -5.8733    2.4967 H   0  0  0  0  0  0  0  0  0  0  0  0
    2.7292   -5.0924    1.8871 H   0  0  0  0  0  0  0  0  0  0  0  0
    3.5069   -7.2703    3.6450 H   0  0  0  0  0  0  0  0  0  0  0  0
    2.1741   -7.1121    0.8897 H   0  0  0  0  0  0  0  0  0  0  0  0
    4.4321   -6.9751    0.9141 H   0  0  0  0  0  0  0  0  0  0  0  0
    2.1237   -9.5733    1.0817 H   0  0  0  0  0  0  0  0  0  0  0  0
    2.8752   -9.4524    2.6534 H   0  0  0  0  0  0  0  0  0  0  0  0
    0.1427   -8.3546    1.8646 H   0  0  0  0  0  0  0  0  0  0  0  0
   -0.9278  -10.1136    3.0761 H   0  0  0  0  0  0  0  0  0  0  0  0
    0.2029  -10.8609    2.0258 H   0  0  0  0  0  0  0  0  0  0  0  0
    0.1839  -11.8306    4.3581 H   0  0  0  0  0  0  0  0  0  0  0  0
    2.3850  -11.8846    4.5803 H   0  0  0  0  0  0  0  0  0  0  0  0
   -0.2560   -9.8629    5.7176 H   0  0  0  0  0  0  0  0  0  0  0  0
    1.2666  -10.5081    6.2101 H   0  0  0  0  0  0  0  0  0  0  0  0
    1.3542   -8.0494    5.9909 H   0  0  0  0  0  0  0  0  0  0  0  0
    2.4803   -8.8000    4.9108 H   0  0  0  0  0  0  0  0  0  0  0  0
   -0.8040   -7.1410    5.2404 H   0  0  0  0  0  0  0  0  0  0  0  0
   -1.3469   -8.5168    4.3632 H   0  0  0  0  0  0  0  0  0  0  0  0
   -1.2133   -6.9944    3.5220 H   0  0  0  0  0  0  0  0  0  0  0  0
    0.8108   -6.1101    2.7705 H   0  0  0  0  0  0  0  0  0  0  0  0
    0.3528   -5.3613    5.0768 H   0  0  0  0  0  0  0  0  0  0  0  0
    1.8853   -5.9605    5.6124 H   0  0  0  0  0  0  0  0  0  0  0  0
    1.3288   -3.7579    3.6286 H   0  0  0  0  0  0  0  0  0  0  0  0
    1.9926   -3.5360    5.2301 H   0  0  0  0  0  0  0  0  0  0  0  0
    3.9624   -6.0035    5.3034 H   0  0  0  0  0  0  0  0  0  0  0  0
    4.3378   -4.3702    5.8450 H   0  0  0  0  0  0  0  0  0  0  0  0
    5.3342   -5.1892    4.6381 H   0  0  0  0  0  0  0  0  0  0  0  0
  1  2  1  0
  1 30  1  0
  1 31  1  0
  1 32  1  0
  2  3  1  0
  2  4  1  0
  2 33  1  0
  3 34  1  0
  3 35  1  0
  3 36  1  0
  4  5  1  0
  4 37  1  0
  4 38  1  0
  5  6  1  0
  5 39  1  0
  5 40  1  0
  6  7  1  0
  6 41  1  0
  6 42  1  0
  7  8  1  0
  7  9  1  0
  7 43  1  1
  8 44  1  0
  8 45  1  0
  8 46  1  0
  9 28  1  0
  9 10  1  0
  9 47  1  1
 10 11  1  0
 10 48  1  0
 10 49  1  0
 11 12  1  0
 11 50  1  0
 11 51  1  0
 12 28  1  0
 12 13  1  0
 12 52  1  6
 13 25  1  0
 13 14  1  0
 13 53  1  1
 14 15  1  0
 14 16  1  0
 14 54  1  6
 15 55  1  0
 16 17  1  0
 16 56  1  0
 16 57  1  0
 17 23  1  0
 17 18  1  0
 17 58  1  6
 18 19  1  0
 18 59  1  0
 18 60  1  0
 19 20  1  0
 19 21  1  0
 19 61  1  1
 20 62  1  0
 21 22  1  0
 21 63  1  0
 21 64  1  0
 22 23  1  0
 22 65  1  0
 22 66  1  0
 23 24  1  1
 23 25  1  0
 24 67  1  0
 24 68  1  0
 24 69  1  0
 25 26  1  0
 25 70  1  6
 26 27  1  0
 26 71  1  0
 26 72  1  0
 27 28  1  0
 27 73  1  0
 27 74  1  0
 28 29  1  1
 29 75  1  0
 29 76  1  0
 29 77  1  0
M  END
>  <i_m_ct_stereo_status>  (33) 
1

>  <s_m_source_file>  (33) 
/var/tmp/pbs.5076255.sched01/tmp9stzsw2m/06nqgg2pe.sdf

>  <i_m_source_file_index>  (33) 
18

>  <i_lp_mmshare_version>  (33) 
48012

>  <i_f3d_flags>  (33) 
0

>  <s_epik_input>  (33) 
W0NIM11bQ0hdKFtDSDNdKVtDSDJdW0NIMl1bQ0gyXVtDQEhdKFtDSDNdKVtDQEhdKFtDSDJdW0NIMl0xKVtDQEBdKFtDSDNdKShbQ0gyXVtDSDJdW0NAQEhdMjMpW0NAQEhdMVtDQEBIXTJbQ0BASF0oW09IXSlbQ0gyXVtDQEhdKFtDQF0zNFtDSDNdKVtDSDJdW0NAQEhdKFtPSF0pW0NIMl1bQ0gyXTQ=

>  <s_epik_cmdline>  (33) 
J2VwaWtfcHl0aG9uJywgJy1waHQnLCAnMi4wJywgJy1waCcsICc3LjAnLCAnLXRuJywgJzgnLCAnLW1hJywgJzIwMCcsICctaW1hZScsICc8aW5maWxlLm1hZT4nLCAnLW9tYWUnLCAnPG91dGZpbGUubWFlPic=

>  <r_lp_tautomer_probability>  (33) 
1

>  <r_epik_Ionization_Penalty>  (33) 
5.23123e-06

>  <r_epik_Ionization_Penalty_Charging>  (33) 
0

>  <r_epik_Ionization_Penalty_Neutral>  (33) 
5.23123e-06

>  <r_epik_State_Penalty>  (33) 
-0

>  <r_epik_Charging_Adjusted_Penalty>  (33) 
0

>  <i_epik_Tot_Q>  (33) 
0

>  <i_epik_Tot_abs_Q>  (33) 
0

>  <s_lp_Force_Field>  (33) 
OPLS3e

>  <r_lp_Energy>  (33) 
58.4537

>  <b_lp_Chiralities_Consistent>  (33) 
1

>  <s_lp_Variant>  (33) 
11:0-1

>  <s_i_glide_gridfile>  (33) 
pfpi4k_grid

>  <i_i_glide_lignum>  (33) 
18

>  <i_i_glide_rotatable_bonds>  (33) 
7

>  <r_i_docking_score>  (33) 
-2.00614

>  <r_i_glide_ligand_efficiency>  (33) 
-0.0691773

>  <r_i_glide_ligand_efficiency_sa>  (33) 
-0.212534

>  <r_i_glide_ligand_efficiency_ln>  (33) 
-0.459355

>  <r_i_glide_gscore>  (33) 
-2.00614

>  <r_i_glide_lipo>  (33) 
-0.41982

>  <r_i_glide_hbond>  (33) 
0

>  <r_i_glide_metal>  (33) 
-0

>  <r_i_glide_rewards>  (33) 
-0.649985

>  <r_i_glide_evdw>  (33) 
-26.1119

>  <r_i_glide_ecoul>  (33) 
-0.737386

>  <r_i_glide_erotb>  (33) 
0.479866

>  <r_i_glide_esite>  (33) 
0

>  <r_i_glide_emodel>  (33) 
-27.5559

>  <r_i_glide_energy>  (33) 
-26.8492

>  <r_i_glide_einternal>  (33) 
2.19279

>  <r_i_glide_intrahb_reward>  (33) 
-0

>  <i_i_glide_confnum>  (33) 
2

>  <i_i_glide_posenum>  (33) 
20

>  <r_i_glide_eff_state_penalty>  (33) 
0

>  <ligand_id>  (33) 
11

>  <original_smiles>  (33) 
CC(C)CCCC(C)C1CCC2C3C(O)CC4CC(O)CCC4(C)C3CCC12C

>  <smiles>  (33) 
[H]OC1([H])C([H])([H])C([H])([H])C2(C([H])([H])[H])C([H])(C1([H])[H])C([H])([H])C([H])(O[H])C1([H])C2([H])C([H])([H])C([H])([H])C2(C([H])([H])[H])C([H])(C([H])(C([H])([H])[H])C([H])([H])C([H])([H])C([H])([H])C([H])(C([H])([H])[H])C([H])([H])[H])C([H])([H])C([H])([H])C12[H]

$$$$
11:0:2
     RDKit          3D

 77 80  0  0  1  0  0  0  0  0999 V2000
    3.4481   -3.1855   -3.8957 C   0  0  0  0  0  0  0  0  0  0  0  0
    4.1065   -2.8302   -2.5598 C   0  0  0  0  0  0  0  0  0  0  0  0
    5.4516   -3.5741   -2.3986 C   0  0  0  0  0  0  0  0  0  0  0  0
    3.1391   -3.0855   -1.3849 C   0  0  0  0  0  0  0  0  0  0  0  0
    3.6754   -2.5441   -0.0716 C   0  0  0  0  0  0  0  0  0  0  0  0
    2.6709   -2.6032    1.0964 C   0  0  0  0  0  0  0  0  0  0  0  0
    3.1976   -2.1582    2.4939 C   0  0  2  0  0  0  0  0  0  0  0  0
    3.8515   -0.7628    2.4194 C   0  0  0  0  0  0  0  0  0  0  0  0
    4.1098   -3.1424    3.3038 C   0  0  2  0  0  0  0  0  0  0  0  0
    5.2408   -3.7294    2.4620 C   0  0  0  0  0  0  0  0  0  0  0  0
    4.8268   -5.1781    2.1124 C   0  0  0  0  0  0  0  0  0  0  0  0
    3.3964   -5.3563    2.6650 C   0  0  1  0  0  0  0  0  0  0  0  0
    2.8199   -6.7403    2.9836 C   0  0  2  0  0  0  0  0  0  0  0  0
    2.7679   -7.6151    1.7102 C   0  0  1  0  0  0  0  0  0  0  0  0
    4.0774   -7.8843    1.2204 O   0  0  0  0  0  0  0  0  0  0  0  0
    2.1423   -8.9580    2.0428 C   0  0  0  0  0  0  0  0  0  0  0  0
    0.7213   -8.8136    2.6394 C   0  0  1  0  0  0  0  0  0  0  0  0
    0.0867  -10.1944    2.9306 C   0  0  0  0  0  0  0  0  0  0  0  0
    0.6619  -10.8827    4.1819 C   0  0  1  0  0  0  0  0  0  0  0  0
    1.9865  -11.3403    3.9467 O   0  0  0  0  0  0  0  0  0  0  0  0
    0.6431   -9.9526    5.4092 C   0  0  0  0  0  0  0  0  0  0  0  0
    1.3103   -8.5972    5.1188 C   0  0  0  0  0  0  0  0  0  0  0  0
    0.6686   -7.8864    3.8920 C   0  0  2  0  0  0  0  0  0  0  0  0
   -0.8101   -7.5734    4.2248 C   0  0  0  0  0  0  0  0  0  0  0  0
    1.3655   -6.5381    3.5533 C   0  0  1  0  0  0  0  0  0  0  0  0
    1.2890   -5.5080    4.7208 C   0  0  0  0  0  0  0  0  0  0  0  0
    1.9214   -4.1681    4.3466 C   0  0  0  0  0  0  0  0  0  0  0  0
    3.3633   -4.3925    3.8450 C   0  0  2  0  0  0  0  0  0  0  0  0
    4.2170   -4.9841    5.0125 C   0  0  0  0  0  0  0  0  0  0  0  0
    3.1445   -4.2319   -3.9226 H   0  0  0  0  0  0  0  0  0  0  0  0
    4.1361   -3.0181   -4.7169 H   0  0  0  0  0  0  0  0  0  0  0  0
    2.5609   -2.5755   -4.0662 H   0  0  0  0  0  0  0  0  0  0  0  0
    4.3280   -1.7603   -2.5677 H   0  0  0  0  0  0  0  0  0  0  0  0
    5.2967   -4.6533   -2.3556 H   0  0  0  0  0  0  0  0  0  0  0  0
    5.9886   -3.2833   -1.4959 H   0  0  0  0  0  0  0  0  0  0  0  0
    6.1243   -3.3579   -3.2258 H   0  0  0  0  0  0  0  0  0  0  0  0
    2.1625   -2.6359   -1.5709 H   0  0  0  0  0  0  0  0  0  0  0  0
    2.9715   -4.1636   -1.2682 H   0  0  0  0  0  0  0  0  0  0  0  0
    4.5193   -3.2073    0.0575 H   0  0  0  0  0  0  0  0  0  0  0  0
    4.0567   -1.5232   -0.1953 H   0  0  0  0  0  0  0  0  0  0  0  0
    1.8089   -1.9801    0.8747 H   0  0  0  0  0  0  0  0  0  0  0  0
    2.1968   -3.5640    1.0755 H   0  0  0  0  0  0  0  0  0  0  0  0
    2.3319   -1.9441    3.1178 H   0  0  0  0  0  0  0  0  0  0  0  0
    4.7320   -0.7712    1.7725 H   0  0  0  0  0  0  0  0  0  0  0  0
    4.1784   -0.3988    3.4037 H   0  0  0  0  0  0  0  0  0  0  0  0
    3.1301   -0.0398    2.0153 H   0  0  0  0  0  0  0  0  0  0  0  0
    4.5312   -2.5899    4.1536 H   0  0  0  0  0  0  0  0  0  0  0  0
    5.4988   -3.0628    1.6612 H   0  0  0  0  0  0  0  0  0  0  0  0
    6.1927   -3.7494    3.0056 H   0  0  0  0  0  0  0  0  0  0  0  0
    4.8830   -5.3904    1.0459 H   0  0  0  0  0  0  0  0  0  0  0  0
    5.4865   -5.8916    2.6150 H   0  0  0  0  0  0  0  0  0  0  0  0
    2.7071   -5.0991    1.8938 H   0  0  0  0  0  0  0  0  0  0  0  0
    3.4513   -7.2421    3.7212 H   0  0  0  0  0  0  0  0  0  0  0  0
    2.1970   -7.1254    0.9188 H   0  0  0  0  0  0  0  0  0  0  0  0
    4.5540   -8.3346    1.8802 H   0  0  0  0  0  0  0  0  0  0  0  0
    2.1152   -9.5824    1.1511 H   0  0  0  0  0  0  0  0  0  0  0  0
    2.8228   -9.4424    2.7374 H   0  0  0  0  0  0  0  0  0  0  0  0
    0.1258   -8.3403    1.8579 H   0  0  0  0  0  0  0  0  0  0  0  0
   -0.9872  -10.0735    3.0680 H   0  0  0  0  0  0  0  0  0  0  0  0
    0.1579  -10.8429    2.0594 H   0  0  0  0  0  0  0  0  0  0  0  0
    0.0879  -11.7823    4.4009 H   0  0  0  0  0  0  0  0  0  0  0  0
    2.2644  -11.8484    4.6628 H   0  0  0  0  0  0  0  0  0  0  0  0
   -0.3900   -9.7847    5.7188 H   0  0  0  0  0  0  0  0  0  0  0  0
    1.1098  -10.4315    6.2663 H   0  0  0  0  0  0  0  0  0  0  0  0
    1.2243   -7.9783    6.0109 H   0  0  0  0  0  0  0  0  0  0  0  0
    2.3789   -8.7549    4.9763 H   0  0  0  0  0  0  0  0  0  0  0  0
   -0.9015   -7.0767    5.1905 H   0  0  0  0  0  0  0  0  0  0  0  0
   -1.4276   -8.4614    4.3167 H   0  0  0  0  0  0  0  0  0  0  0  0
   -1.2636   -6.9523    3.4512 H   0  0  0  0  0  0  0  0  0  0  0  0
    0.7764   -6.0846    2.7465 H   0  0  0  0  0  0  0  0  0  0  0  0
    0.2680   -5.3050    5.0338 H   0  0  0  0  0  0  0  0  0  0  0  0
    1.7804   -5.8972    5.6089 H   0  0  0  0  0  0  0  0  0  0  0  0
    1.2832   -3.7205    3.5824 H   0  0  0  0  0  0  0  0  0  0  0  0
    1.9121   -3.4812    5.1967 H   0  0  0  0  0  0  0  0  0  0  0  0
    3.8572   -5.9579    5.3497 H   0  0  0  0  0  0  0  0  0  0  0  0
    4.2276   -4.3226    5.8849 H   0  0  0  0  0  0  0  0  0  0  0  0
    5.2500   -5.1689    4.7099 H   0  0  0  0  0  0  0  0  0  0  0  0
  1  2  1  0
  1 30  1  0
  1 31  1  0
  1 32  1  0
  2  3  1  0
  2  4  1  0
  2 33  1  0
  3 34  1  0
  3 35  1  0
  3 36  1  0
  4  5  1  0
  4 37  1  0
  4 38  1  0
  5  6  1  0
  5 39  1  0
  5 40  1  0
  6  7  1  0
  6 41  1  0
  6 42  1  0
  7  8  1  0
  7  9  1  0
  7 43  1  1
  8 44  1  0
  8 45  1  0
  8 46  1  0
  9 28  1  0
  9 10  1  0
  9 47  1  1
 10 11  1  0
 10 48  1  0
 10 49  1  0
 11 12  1  0
 11 50  1  0
 11 51  1  0
 12 28  1  0
 12 13  1  0
 12 52  1  6
 13 25  1  0
 13 14  1  0
 13 53  1  1
 14 15  1  0
 14 16  1  0
 14 54  1  6
 15 55  1  0
 16 17  1  0
 16 56  1  0
 16 57  1  0
 17 23  1  0
 17 18  1  0
 17 58  1  6
 18 19  1  0
 18 59  1  0
 18 60  1  0
 19 20  1  0
 19 21  1  0
 19 61  1  1
 20 62  1  0
 21 22  1  0
 21 63  1  0
 21 64  1  0
 22 23  1  0
 22 65  1  0
 22 66  1  0
 23 24  1  1
 23 25  1  0
 24 67  1  0
 24 68  1  0
 24 69  1  0
 25 26  1  0
 25 70  1  6
 26 27  1  0
 26 71  1  0
 26 72  1  0
 27 28  1  0
 27 73  1  0
 27 74  1  0
 28 29  1  1
 29 75  1  0
 29 76  1  0
 29 77  1  0
M  END
>  <i_m_ct_stereo_status>  (34) 
1

>  <s_m_source_file>  (34) 
/var/tmp/pbs.5076255.sched01/tmp9stzsw2m/06nqgg2pe.sdf

>  <i_m_source_file_index>  (34) 
18

>  <i_lp_mmshare_version>  (34) 
48012

>  <i_f3d_flags>  (34) 
0

>  <s_epik_input>  (34) 
W0NIM11bQ0hdKFtDSDNdKVtDSDJdW0NIMl1bQ0gyXVtDQEhdKFtDSDNdKVtDQEhdKFtDSDJdW0NIMl0xKVtDQEBdKFtDSDNdKShbQ0gyXVtDSDJdW0NAQEhdMjMpW0NAQEhdMVtDQEBIXTJbQ0BASF0oW09IXSlbQ0gyXVtDQEhdKFtDQF0zNFtDSDNdKVtDSDJdW0NAQEhdKFtPSF0pW0NIMl1bQ0gyXTQ=

>  <s_epik_cmdline>  (34) 
J2VwaWtfcHl0aG9uJywgJy1waHQnLCAnMi4wJywgJy1waCcsICc3LjAnLCAnLXRuJywgJzgnLCAnLW1hJywgJzIwMCcsICctaW1hZScsICc8aW5maWxlLm1hZT4nLCAnLW9tYWUnLCAnPG91dGZpbGUubWFlPic=

>  <r_lp_tautomer_probability>  (34) 
1

>  <r_epik_Ionization_Penalty>  (34) 
5.23123e-06

>  <r_epik_Ionization_Penalty_Charging>  (34) 
0

>  <r_epik_Ionization_Penalty_Neutral>  (34) 
5.23123e-06

>  <r_epik_State_Penalty>  (34) 
-0

>  <r_epik_Charging_Adjusted_Penalty>  (34) 
0

>  <i_epik_Tot_Q>  (34) 
0

>  <i_epik_Tot_abs_Q>  (34) 
0

>  <s_lp_Force_Field>  (34) 
OPLS3e

>  <r_lp_Energy>  (34) 
58.4537

>  <b_lp_Chiralities_Consistent>  (34) 
1

>  <s_lp_Variant>  (34) 
11:0-1

>  <s_i_glide_gridfile>  (34) 
pfpi4k_grid

>  <i_i_glide_lignum>  (34) 
18

>  <i_i_glide_rotatable_bonds>  (34) 
7

>  <r_i_docking_score>  (34) 
-1.98321

>  <r_i_glide_ligand_efficiency>  (34) 
-0.0683866

>  <r_i_glide_ligand_efficiency_sa>  (34) 
-0.210105

>  <r_i_glide_ligand_efficiency_ln>  (34) 
-0.454105

>  <r_i_glide_gscore>  (34) 
-1.98321

>  <r_i_glide_lipo>  (34) 
-0.396031

>  <r_i_glide_hbond>  (34) 
0

>  <r_i_glide_metal>  (34) 
-0

>  <r_i_glide_rewards>  (34) 
-0.649985

>  <r_i_glide_evdw>  (34) 
-25.998

>  <r_i_glide_ecoul>  (34) 
-0.781075

>  <r_i_glide_erotb>  (34) 
0.479866

>  <r_i_glide_esite>  (34) 
0

>  <r_i_glide_emodel>  (34) 
-26.9964

>  <r_i_glide_energy>  (34) 
-26.7791

>  <r_i_glide_einternal>  (34) 
2.06761

>  <r_i_glide_intrahb_reward>  (34) 
-0

>  <i_i_glide_confnum>  (34) 
2

>  <i_i_glide_posenum>  (34) 
1

>  <r_i_glide_eff_state_penalty>  (34) 
0

>  <ligand_id>  (34) 
11

>  <original_smiles>  (34) 
CC(C)CCCC(C)C1CCC2C3C(O)CC4CC(O)CCC4(C)C3CCC12C

>  <smiles>  (34) 
[H]OC1([H])C([H])([H])C([H])([H])C2(C([H])([H])[H])C([H])(C1([H])[H])C([H])([H])C([H])(O[H])C1([H])C2([H])C([H])([H])C([H])([H])C2(C([H])([H])[H])C([H])(C([H])(C([H])([H])[H])C([H])([H])C([H])([H])C([H])([H])C([H])(C([H])([H])[H])C([H])([H])[H])C([H])([H])C([H])([H])C12[H]

$$$$
12:0:0
     RDKit          3D

 41 43  0  0  1  0  0  0  0  0999 V2000
    3.7071   -2.9304    2.6394 C   0  0  0  0  0  0  0  0  0  0  0  0
    3.6803   -2.5417    1.1491 C   0  0  2  0  0  0  0  0  0  0  0  0
    2.7923   -3.5334    0.3747 C   0  0  0  0  0  0  0  0  0  0  0  0
    2.2631   -3.0592   -0.9231 N   0  0  2  0  0  0  0  0  0  0  0  0
    1.2442   -3.9968   -1.4440 C   0  0  0  0  0  0  0  0  0  0  0  0
    3.3042   -2.7258   -1.9276 C   0  0  1  0  0  0  0  0  0  0  0  0
    2.7282   -2.3988   -3.3135 C   0  0  0  0  0  0  0  0  0  0  0  0
    3.8058   -1.5346   -3.9752 C   0  0  0  0  0  0  0  0  0  0  0  0
    4.3245   -0.6633   -2.8399 C   0  0  0  0  0  0  0  0  0  0  0  0
    4.0404   -1.4228   -1.5361 C   0  0  2  0  0  0  0  0  0  0  0  0
    5.3357   -1.6739   -0.7188 C   0  0  2  0  0  0  0  0  0  0  0  0
    6.4498   -2.4748   -1.4561 C   0  0  0  0  0  0  0  0  0  0  0  0
    7.0885   -3.3758   -0.4058 C   0  0  0  0  0  0  0  0  0  0  0  0
    5.9282   -3.7364    0.5005 C   0  0  0  0  0  0  0  0  0  0  0  0
    5.1282   -2.4253    0.6124 C   0  0  2  0  0  0  0  0  0  0  0  0
    4.1427   -3.9202    2.7994 H   0  0  0  0  0  0  0  0  0  0  0  0
    2.7036   -2.9315    3.0720 H   0  0  0  0  0  0  0  0  0  0  0  0
    4.2984   -2.2102    3.2057 H   0  0  0  0  0  0  0  0  0  0  0  0
    3.2058   -1.5565    1.1136 H   0  0  0  0  0  0  0  0  0  0  0  0
    3.2529   -4.5157    0.2802 H   0  0  0  0  0  0  0  0  0  0  0  0
    1.9329   -3.6980    1.0088 H   0  0  0  0  0  0  0  0  0  0  0  0
    1.8028   -4.8368   -1.7500 H   0  0  0  0  0  0  0  0  0  0  0  0
    0.6524   -3.5086   -2.2313 H   0  0  0  0  0  0  0  0  0  0  0  0
    0.6858   -4.6009   -0.7208 H   0  0  0  0  0  0  0  0  0  0  0  0
    4.0019   -3.5636   -2.0673 H   0  0  0  0  0  0  0  0  0  0  0  0
    2.4537   -3.2648   -3.9267 H   0  0  0  0  0  0  0  0  0  0  0  0
    1.8132   -1.8525   -3.1850 H   0  0  0  0  0  0  0  0  0  0  0  0
    4.6128   -2.1868   -4.3247 H   0  0  0  0  0  0  0  0  0  0  0  0
    3.4438   -0.9591   -4.8320 H   0  0  0  0  0  0  0  0  0  0  0  0
    5.4020   -0.5000   -2.8962 H   0  0  0  0  0  0  0  0  0  0  0  0
    3.8008    0.2960   -2.8615 H   0  0  0  0  0  0  0  0  0  0  0  0
    3.3764   -0.7633   -0.9580 H   0  0  0  0  0  0  0  0  0  0  0  0
    5.7321   -0.6924   -0.4454 H   0  0  0  0  0  0  0  0  0  0  0  0
    6.0493   -3.0512   -2.2859 H   0  0  0  0  0  0  0  0  0  0  0  0
    7.2377   -1.8830   -1.9094 H   0  0  0  0  0  0  0  0  0  0  0  0
    7.5844   -4.2440   -0.8224 H   0  0  0  0  0  0  0  0  0  0  0  0
    7.8480   -2.8214    0.1501 H   0  0  0  0  0  0  0  0  0  0  0  0
    5.3599   -4.5231    0.0083 H   0  0  0  0  0  0  0  0  0  0  0  0
    6.2673   -4.1088    1.4677 H   0  0  0  0  0  0  0  0  0  0  0  0
    5.6649   -1.8247    1.3461 H   0  0  0  0  0  0  0  0  0  0  0  0
    1.7958   -2.1467   -0.7892 H   0  0  0  0  0  0  0  0  0  0  0  0
  1  2  1  0
  1 16  1  0
  1 17  1  0
  1 18  1  0
  2 15  1  0
  2  3  1  0
  2 19  1  1
  3  4  1  0
  3 20  1  0
  3 21  1  0
  4  5  1  0
  4  6  1  0
  4 41  1  1
  5 22  1  0
  5 23  1  0
  5 24  1  0
  6 10  1  0
  6  7  1  0
  6 25  1  6
  7  8  1  0
  7 26  1  0
  7 27  1  0
  8  9  1  0
  8 28  1  0
  8 29  1  0
  9 10  1  0
  9 30  1  0
  9 31  1  0
 10 11  1  0
 10 32  1  1
 11 15  1  0
 11 12  1  0
 11 33  1  1
 12 13  1  0
 12 34  1  0
 12 35  1  0
 13 14  1  0
 13 36  1  0
 13 37  1  0
 14 15  1  0
 14 38  1  0
 14 39  1  0
 15 40  1  1
M  CHG  1   4   1
M  END
>  <i_m_ct_stereo_status>  (35) 
1

>  <s_m_source_file>  (35) 
/var/tmp/pbs.5076255.sched01/tmp9stzsw2m/06nqgg2pe.sdf

>  <i_m_source_file_index>  (35) 
19

>  <i_lp_mmshare_version>  (35) 
48012

>  <i_f3d_flags>  (35) 
0

>  <s_epik_input>  (35) 
W0NIM11OMVtDSDJdW0NAQEhdKFtDSDNdKVtDQEBIXShbQ0gyXVtDSDJdW0NIMl0yKVtDQEBIXTJbQ0BIXShbQ0BASF0xMylbQ0gyXVtDSDJdW0NIMl0z

>  <s_epik_cmdline>  (35) 
J2VwaWtfcHl0aG9uJywgJy1waHQnLCAnMi4wJywgJy1waCcsICc3LjAnLCAnLXRuJywgJzgnLCAnLW1hJywgJzIwMCcsICctaW1hZScsICc8aW5maWxlLm1hZT4nLCAnLW9tYWUnLCAnPG91dGZpbGUubWFlPic=

>  <r_epik_Ionization_Penalty>  (35) 
0.00030527

>  <r_epik_Ionization_Penalty_Charging>  (35) 
0.00030527

>  <r_epik_Ionization_Penalty_Neutral>  (35) 
0

>  <r_epik_State_Penalty>  (35) 
0.000183729

>  <r_epik_Charging_Adjusted_Penalty>  (35) 
0.000488999

>  <i_epik_Tot_Q>  (35) 
1

>  <i_epik_Tot_abs_Q>  (35) 
1

>  <s_lp_Force_Field>  (35) 
OPLS3e

>  <r_lp_Energy>  (35) 
37.4133

>  <b_lp_Chiralities_Consistent>  (35) 
1

>  <s_lp_Variant>  (35) 
12:0-1

>  <s_i_glide_gridfile>  (35) 
pfpi4k_grid

>  <i_i_glide_lignum>  (35) 
19

>  <i_i_glide_rotatable_bonds>  (35) 
0

>  <r_i_docking_score>  (35) 
-3.99507

>  <r_i_glide_ligand_efficiency>  (35) 
-0.266338

>  <r_i_glide_ligand_efficiency_sa>  (35) 
-0.656846

>  <r_i_glide_ligand_efficiency_ln>  (35) 
-1.0774

>  <r_i_glide_gscore>  (35) 
-3.99507

>  <r_i_glide_lipo>  (35) 
-0.550889

>  <r_i_glide_hbond>  (35) 
-0.2

>  <r_i_glide_metal>  (35) 
-0

>  <r_i_glide_rewards>  (35) 
-1.98843

>  <r_i_glide_evdw>  (35) 
-5.86229

>  <r_i_glide_ecoul>  (35) 
-6.12367

>  <r_i_glide_erotb>  (35) 
0

>  <r_i_glide_esite>  (35) 
-0.0440802

>  <r_i_glide_emodel>  (35) 
-14.0242

>  <r_i_glide_energy>  (35) 
-11.986

>  <r_i_glide_einternal>  (35) 
0

>  <r_i_glide_intrahb_reward>  (35) 
-0

>  <i_i_glide_confnum>  (35) 
1

>  <i_i_glide_posenum>  (35) 
38

>  <r_i_glide_eff_state_penalty>  (35) 
0

>  <ligand_id>  (35) 
12

>  <original_smiles>  (35) 
CC1CN(C)C2CCCC2C2CCCC12

>  <smiles>  (35) 
[H]C([H])([H])C1([H])C2([H])C([H])([H])C([H])([H])C([H])([H])C2([H])C2([H])C([H])([H])C([H])([H])C([H])([H])C2([H])[N+]([H])(C([H])([H])[H])C1([H])[H]

$$$$
12:0:1
     RDKit          3D

 41 43  0  0  1  0  0  0  0  0999 V2000
    5.0478   -2.9289    3.1213 C   0  0  0  0  0  0  0  0  0  0  0  0
    4.6944   -2.6806    1.6380 C   0  0  2  0  0  0  0  0  0  0  0  0
    3.7432   -3.7930    1.1172 C   0  0  0  0  0  0  0  0  0  0  0  0
    2.9367   -3.4802   -0.0843 N   0  0  2  0  0  0  0  0  0  0  0  0
    2.0212   -4.6027   -0.3501 C   0  0  0  0  0  0  0  0  0  0  0  0
    3.7240   -3.1187   -1.2872 C   0  0  1  0  0  0  0  0  0  0  0  0
    2.8718   -2.9203   -2.5572 C   0  0  0  0  0  0  0  0  0  0  0  0
    3.7564   -2.1037   -3.4833 C   0  0  0  0  0  0  0  0  0  0  0  0
    4.4200   -1.1010   -2.5444 C   0  0  0  0  0  0  0  0  0  0  0  0
    4.4533   -1.7539   -1.1507 C   0  0  2  0  0  0  0  0  0  0  0  0
    5.8872   -1.8491   -0.5749 C   0  0  2  0  0  0  0  0  0  0  0  0
    6.9230   -2.5865   -1.4660 C   0  0  0  0  0  0  0  0  0  0  0  0
    7.8181   -3.3733   -0.5125 C   0  0  0  0  0  0  0  0  0  0  0  0
    6.8930   -3.7399    0.6403 C   0  0  0  0  0  0  0  0  0  0  0  0
    6.0025   -2.4967    0.8217 C   0  0  2  0  0  0  0  0  0  0  0  0
    5.5973   -3.8605    3.2633 H   0  0  0  0  0  0  0  0  0  0  0  0
    4.1553   -2.9715    3.7478 H   0  0  0  0  0  0  0  0  0  0  0  0
    5.6687   -2.1179    3.5062 H   0  0  0  0  0  0  0  0  0  0  0  0
    4.1448   -1.7408    1.6293 H   0  0  0  0  0  0  0  0  0  0  0  0
    4.2741   -4.7385    0.9989 H   0  0  0  0  0  0  0  0  0  0  0  0
    3.0335   -3.9813    1.9272 H   0  0  0  0  0  0  0  0  0  0  0  0
    2.5807   -5.4669   -0.6974 H   0  0  0  0  0  0  0  0  0  0  0  0
    1.2689   -4.3662   -1.1082 H   0  0  0  0  0  0  0  0  0  0  0  0
    1.5043   -4.9413    0.5514 H   0  0  0  0  0  0  0  0  0  0  0  0
    4.4365   -3.9120   -1.4998 H   0  0  0  0  0  0  0  0  0  0  0  0
    2.5662   -3.8594   -3.0260 H   0  0  0  0  0  0  0  0  0  0  0  0
    1.9701   -2.3553   -2.3282 H   0  0  0  0  0  0  0  0  0  0  0  0
    4.5115   -2.7493   -3.9359 H   0  0  0  0  0  0  0  0  0  0  0  0
    3.1920   -1.6230   -4.2839 H   0  0  0  0  0  0  0  0  0  0  0  0
    5.4137   -0.8196   -2.8786 H   0  0  0  0  0  0  0  0  0  0  0  0
    3.8226   -0.1882   -2.5162 H   0  0  0  0  0  0  0  0  0  0  0  0
    3.8620   -1.1009   -0.5158 H   0  0  0  0  0  0  0  0  0  0  0  0
    6.2142   -0.8140   -0.4453 H   0  0  0  0  0  0  0  0  0  0  0  0
    6.4340   -3.2751   -2.1570 H   0  0  0  0  0  0  0  0  0  0  0  0
    7.5277   -1.9434   -2.0937 H   0  0  0  0  0  0  0  0  0  0  0  0
    8.2721   -4.2417   -0.9858 H   0  0  0  0  0  0  0  0  0  0  0  0
    8.6330   -2.7367   -0.1538 H   0  0  0  0  0  0  0  0  0  0  0  0
    6.3156   -4.6162    0.3438 H   0  0  0  0  0  0  0  0  0  0  0  0
    7.4449   -3.9952    1.5465 H   0  0  0  0  0  0  0  0  0  0  0  0
    6.6126   -1.7958    1.3957 H   0  0  0  0  0  0  0  0  0  0  0  0
    2.3709   -2.6605    0.1238 H   0  0  0  0  0  0  0  0  0  0  0  0
  1  2  1  0
  1 16  1  0
  1 17  1  0
  1 18  1  0
  2 15  1  0
  2  3  1  0
  2 19  1  1
  3  4  1  0
  3 20  1  0
  3 21  1  0
  4  5  1  0
  4  6  1  0
  4 41  1  1
  5 22  1  0
  5 23  1  0
  5 24  1  0
  6 10  1  0
  6  7  1  0
  6 25  1  6
  7  8  1  0
  7 26  1  0
  7 27  1  0
  8  9  1  0
  8 28  1  0
  8 29  1  0
  9 10  1  0
  9 30  1  0
  9 31  1  0
 10 11  1  0
 10 32  1  1
 11 15  1  0
 11 12  1  0
 11 33  1  1
 12 13  1  0
 12 34  1  0
 12 35  1  0
 13 14  1  0
 13 36  1  0
 13 37  1  0
 14 15  1  0
 14 38  1  0
 14 39  1  0
 15 40  1  1
M  CHG  1   4   1
M  END
>  <i_m_ct_stereo_status>  (36) 
1

>  <s_m_source_file>  (36) 
/var/tmp/pbs.5076255.sched01/tmp9stzsw2m/06nqgg2pe.sdf

>  <i_m_source_file_index>  (36) 
19

>  <i_lp_mmshare_version>  (36) 
48012

>  <i_f3d_flags>  (36) 
0

>  <s_epik_input>  (36) 
W0NIM11OMVtDSDJdW0NAQEhdKFtDSDNdKVtDQEBIXShbQ0gyXVtDSDJdW0NIMl0yKVtDQEBIXTJbQ0BIXShbQ0BASF0xMylbQ0gyXVtDSDJdW0NIMl0z

>  <s_epik_cmdline>  (36) 
J2VwaWtfcHl0aG9uJywgJy1waHQnLCAnMi4wJywgJy1waCcsICc3LjAnLCAnLXRuJywgJzgnLCAnLW1hJywgJzIwMCcsICctaW1hZScsICc8aW5maWxlLm1hZT4nLCAnLW9tYWUnLCAnPG91dGZpbGUubWFlPic=

>  <r_epik_Ionization_Penalty>  (36) 
0.00030527

>  <r_epik_Ionization_Penalty_Charging>  (36) 
0.00030527

>  <r_epik_Ionization_Penalty_Neutral>  (36) 
0

>  <r_epik_State_Penalty>  (36) 
0.000183729

>  <r_epik_Charging_Adjusted_Penalty>  (36) 
0.000488999

>  <i_epik_Tot_Q>  (36) 
1

>  <i_epik_Tot_abs_Q>  (36) 
1

>  <s_lp_Force_Field>  (36) 
OPLS3e

>  <r_lp_Energy>  (36) 
37.4133

>  <b_lp_Chiralities_Consistent>  (36) 
1

>  <s_lp_Variant>  (36) 
12:0-1

>  <s_i_glide_gridfile>  (36) 
pfpi4k_grid

>  <i_i_glide_lignum>  (36) 
19

>  <i_i_glide_rotatable_bonds>  (36) 
0

>  <r_i_docking_score>  (36) 
-3.78563

>  <r_i_glide_ligand_efficiency>  (36) 
-0.252375

>  <r_i_glide_ligand_efficiency_sa>  (36) 
-0.622411

>  <r_i_glide_ligand_efficiency_ln>  (36) 
-1.02092

>  <r_i_glide_gscore>  (36) 
-3.78563

>  <r_i_glide_lipo>  (36) 
-0.683245

>  <r_i_glide_hbond>  (36) 
0

>  <r_i_glide_metal>  (36) 
-0

>  <r_i_glide_rewards>  (36) 
-1.98843

>  <r_i_glide_evdw>  (36) 
-14.0708

>  <r_i_glide_ecoul>  (36) 
-2.6702

>  <r_i_glide_erotb>  (36) 
0

>  <r_i_glide_esite>  (36) 
-0.00987702

>  <r_i_glide_emodel>  (36) 
-20.2661

>  <r_i_glide_energy>  (36) 
-16.741

>  <r_i_glide_einternal>  (36) 
0

>  <r_i_glide_intrahb_reward>  (36) 
-0

>  <i_i_glide_confnum>  (36) 
2

>  <i_i_glide_posenum>  (36) 
12

>  <r_i_glide_eff_state_penalty>  (36) 
0

>  <ligand_id>  (36) 
12

>  <original_smiles>  (36) 
CC1CN(C)C2CCCC2C2CCCC12

>  <smiles>  (36) 
[H]C([H])([H])C1([H])C2([H])C([H])([H])C([H])([H])C([H])([H])C2([H])C2([H])C([H])([H])C([H])([H])C([H])([H])C2([H])[N+]([H])(C([H])([H])[H])C1([H])[H]

$$$$
12:0:2
     RDKit          3D

 41 43  0  0  1  0  0  0  0  0999 V2000
    3.2136   -1.9505    3.8211 C   0  0  0  0  0  0  0  0  0  0  0  0
    3.2578   -1.9839    2.2803 C   0  0  2  0  0  0  0  0  0  0  0  0
    2.9850   -3.4169    1.7675 C   0  0  0  0  0  0  0  0  0  0  0  0
    2.5531   -3.5405    0.3525 N   0  0  2  0  0  0  0  0  0  0  0  0
    2.1776   -4.9516    0.0681 C   0  0  0  0  0  0  0  0  0  0  0  0
    3.4598   -2.9689   -0.6723 C   0  0  1  0  0  0  0  0  0  0  0  0
    2.9889   -3.2061   -2.1113 C   0  0  0  0  0  0  0  0  0  0  0  0
    3.7571   -2.1961   -2.9407 C   0  0  0  0  0  0  0  0  0  0  0  0
    3.7316   -0.9477   -2.0716 C   0  0  0  0  0  0  0  0  0  0  0  0
    3.5745   -1.4329   -0.6089 C   0  0  2  0  0  0  0  0  0  0  0  0
    4.6778   -0.9242    0.3255 C   0  0  2  0  0  0  0  0  0  0  0  0
    6.0960   -1.2696   -0.1364 C   0  0  0  0  0  0  0  0  0  0  0  0
    6.8954   -1.5918    1.1116 C   0  0  0  0  0  0  0  0  0  0  0  0
    5.8641   -2.1873    2.0591 C   0  0  0  0  0  0  0  0  0  0  0  0
    4.5921   -1.3647    1.7945 C   0  0  2  0  0  0  0  0  0  0  0  0
    3.9872   -2.5819    4.2640 H   0  0  0  0  0  0  0  0  0  0  0  0
    2.2484   -2.2892    4.2041 H   0  0  0  0  0  0  0  0  0  0  0  0
    3.3666   -0.9334    4.1914 H   0  0  0  0  0  0  0  0  0  0  0  0
    2.4395   -1.3365    1.9560 H   0  0  0  0  0  0  0  0  0  0  0  0
    3.8165   -4.0907    1.9747 H   0  0  0  0  0  0  0  0  0  0  0  0
    2.1608   -3.7971    2.3701 H   0  0  0  0  0  0  0  0  0  0  0  0
    3.0646   -5.5879    0.0082 H   0  0  0  0  0  0  0  0  0  0  0  0
    1.6205   -5.0470   -0.8620 H   0  0  0  0  0  0  0  0  0  0  0  0
    1.5424   -5.3663    0.8503 H   0  0  0  0  0  0  0  0  0  0  0  0
    4.4326   -3.4443   -0.5641 H   0  0  0  0  0  0  0  0  0  0  0  0
    3.2390   -4.2000   -2.4574 H   0  0  0  0  0  0  0  0  0  0  0  0
    1.9148   -3.0423   -2.2236 H   0  0  0  0  0  0  0  0  0  0  0  0
    4.7829   -2.5456   -3.0740 H   0  0  0  0  0  0  0  0  0  0  0  0
    3.3155   -2.0428   -3.9283 H   0  0  0  0  0  0  0  0  0  0  0  0
    4.6138   -0.3263   -2.2397 H   0  0  0  0  0  0  0  0  0  0  0  0
    2.8565   -0.3626   -2.3639 H   0  0  0  0  0  0  0  0  0  0  0  0
    2.6470   -1.0026   -0.2385 H   0  0  0  0  0  0  0  0  0  0  0  0
    4.5938    0.1622    0.3254 H   0  0  0  0  0  0  0  0  0  0  0  0
    6.1291   -2.1160   -0.8258 H   0  0  0  0  0  0  0  0  0  0  0  0
    6.5036   -0.4078   -0.6368 H   0  0  0  0  0  0  0  0  0  0  0  0
    7.7302   -2.2557    0.8914 H   0  0  0  0  0  0  0  0  0  0  0  0
    7.2900   -0.6689    1.5360 H   0  0  0  0  0  0  0  0  0  0  0  0
    5.7475   -3.2402    1.8045 H   0  0  0  0  0  0  0  0  0  0  0  0
    6.1736   -2.1219    3.1025 H   0  0  0  0  0  0  0  0  0  0  0  0
    4.7221   -0.4398    2.3574 H   0  0  0  0  0  0  0  0  0  0  0  0
    1.7303   -2.9586    0.2719 H   0  0  0  0  0  0  0  0  0  0  0  0
  1  2  1  0
  1 16  1  0
  1 17  1  0
  1 18  1  0
  2 15  1  0
  2  3  1  0
  2 19  1  6
  3  4  1  0
  3 20  1  0
  3 21  1  0
  4  5  1  0
  4  6  1  0
  4 41  1  1
  5 22  1  0
  5 23  1  0
  5 24  1  0
  6 10  1  0
  6  7  1  0
  6 25  1  6
  7  8  1  0
  7 26  1  0
  7 27  1  0
  8  9  1  0
  8 28  1  0
  8 29  1  0
  9 10  1  0
  9 30  1  0
  9 31  1  0
 10 11  1  0
 10 32  1  1
 11 15  1  0
 11 12  1  0
 11 33  1  1
 12 13  1  0
 12 34  1  0
 12 35  1  0
 13 14  1  0
 13 36  1  0
 13 37  1  0
 14 15  1  0
 14 38  1  0
 14 39  1  0
 15 40  1  1
M  CHG  1   4   1
M  END
>  <i_m_ct_stereo_status>  (37) 
1

>  <s_m_source_file>  (37) 
/var/tmp/pbs.5076255.sched01/tmp9stzsw2m/06nqgg2pe.sdf

>  <i_m_source_file_index>  (37) 
19

>  <i_lp_mmshare_version>  (37) 
48012

>  <i_f3d_flags>  (37) 
0

>  <s_epik_input>  (37) 
W0NIM11OMVtDSDJdW0NAQEhdKFtDSDNdKVtDQEBIXShbQ0gyXVtDSDJdW0NIMl0yKVtDQEBIXTJbQ0BIXShbQ0BASF0xMylbQ0gyXVtDSDJdW0NIMl0z

>  <s_epik_cmdline>  (37) 
J2VwaWtfcHl0aG9uJywgJy1waHQnLCAnMi4wJywgJy1waCcsICc3LjAnLCAnLXRuJywgJzgnLCAnLW1hJywgJzIwMCcsICctaW1hZScsICc8aW5maWxlLm1hZT4nLCAnLW9tYWUnLCAnPG91dGZpbGUubWFlPic=

>  <r_epik_Ionization_Penalty>  (37) 
0.00030527

>  <r_epik_Ionization_Penalty_Charging>  (37) 
0.00030527

>  <r_epik_Ionization_Penalty_Neutral>  (37) 
0

>  <r_epik_State_Penalty>  (37) 
0.000183729

>  <r_epik_Charging_Adjusted_Penalty>  (37) 
0.000488999

>  <i_epik_Tot_Q>  (37) 
1

>  <i_epik_Tot_abs_Q>  (37) 
1

>  <s_lp_Force_Field>  (37) 
OPLS3e

>  <r_lp_Energy>  (37) 
37.4133

>  <b_lp_Chiralities_Consistent>  (37) 
1

>  <s_lp_Variant>  (37) 
12:0-1

>  <s_i_glide_gridfile>  (37) 
pfpi4k_grid

>  <i_i_glide_lignum>  (37) 
19

>  <i_i_glide_rotatable_bonds>  (37) 
0

>  <r_i_docking_score>  (37) 
-3.07286

>  <r_i_glide_ligand_efficiency>  (37) 
-0.204858

>  <r_i_glide_ligand_efficiency_sa>  (37) 
-0.505222

>  <r_i_glide_ligand_efficiency_ln>  (37) 
-0.828701

>  <r_i_glide_gscore>  (37) 
-3.07286

>  <r_i_glide_lipo>  (37) 
-0.232745

>  <r_i_glide_hbond>  (37) 
0

>  <r_i_glide_metal>  (37) 
-0

>  <r_i_glide_rewards>  (37) 
-1.98843

>  <r_i_glide_evdw>  (37) 
-7.79494

>  <r_i_glide_ecoul>  (37) 
-2.84974

>  <r_i_glide_erotb>  (37) 
0

>  <r_i_glide_esite>  (37) 
-0.0344773

>  <r_i_glide_emodel>  (37) 
-13.3534

>  <r_i_glide_energy>  (37) 
-10.6447

>  <r_i_glide_einternal>  (37) 
0

>  <r_i_glide_intrahb_reward>  (37) 
-0

>  <i_i_glide_confnum>  (37) 
2

>  <i_i_glide_posenum>  (37) 
9

>  <r_i_glide_eff_state_penalty>  (37) 
0

>  <ligand_id>  (37) 
12

>  <original_smiles>  (37) 
CC1CN(C)C2CCCC2C2CCCC12

>  <smiles>  (37) 
[H]C([H])([H])C1([H])C2([H])C([H])([H])C([H])([H])C([H])([H])C2([H])C2([H])C([H])([H])C([H])([H])C([H])([H])C2([H])[N+]([H])(C([H])([H])[H])C1([H])[H]

$$$$
13:1:0
     RDKit          3D

 72 76  0  0  1  0  0  0  0  0999 V2000
    1.3030   -4.7245    5.3752 C   0  0  0  0  0  0  0  0  0  0  0  0
    0.8740   -5.5476    4.1429 C   0  0  0  0  0  0  0  0  0  0  0  0
   -0.2710   -6.4930    4.5715 C   0  0  0  0  0  0  0  0  0  0  0  0
    2.0979   -6.2619    3.4843 C   0  0  2  0  0  0  0  0  0  0  0  0
    3.2370   -5.3145    3.0929 C   0  0  2  0  0  0  0  0  0  0  0  0
    2.8361   -4.2993    2.1131 O   0  0  0  0  0  0  0  0  0  0  0  0
    4.0073   -4.5974    1.3046 C   0  0  1  0  0  0  0  0  0  0  0  0
    3.6728   -4.8724   -0.1933 C   0  0  0  0  0  0  0  0  0  0  0  0
    3.8106   -3.7700   -1.2429 C   0  0  0  0  0  0  0  0  0  0  0  0
    5.0710   -2.9800   -1.0223 C   0  0  0  0  0  0  0  0  0  0  0  0
    5.9694   -3.0562   -1.9351 N   0  0  0  0  0  0  0  0  0  0  0  0
    7.2098   -2.4418   -1.6056 O   0  0  0  0  0  0  0  0  0  0  0  0
    5.0214   -2.2794    0.3633 C   0  0  0  0  0  0  0  0  0  0  0  0
    6.1134   -1.1740    0.5135 C   0  0  0  0  0  0  0  0  0  0  0  0
    3.6892   -1.4693    0.4301 C   0  0  0  0  0  0  0  0  0  0  0  0
    5.0561   -3.3956    1.5137 C   0  0  1  0  0  0  0  0  0  0  0  0
    4.8486   -2.6212    2.8657 C   0  0  0  0  0  0  0  0  0  0  0  0
    6.4549   -4.0583    1.6047 C   0  0  0  0  0  0  0  0  0  0  0  0
    6.5461   -5.1167    2.7210 C   0  0  0  0  0  0  0  0  0  0  0  0
    5.6498   -6.3379    2.4696 C   0  0  2  0  0  0  0  0  0  0  0  0
    6.2498   -7.2734    1.3890 C   0  0  1  0  0  0  0  0  0  0  0  0
    7.7754   -7.5096    1.4091 C   0  0  0  0  0  0  0  0  0  0  0  0
    5.5021   -8.6151    1.3518 C   0  0  0  0  0  0  0  0  0  0  0  0
    4.1065   -8.5491    1.9759 C   0  0  0  0  0  0  0  0  0  0  0  0
    3.3616   -7.2328    1.6318 C   0  0  1  0  0  0  0  0  0  0  0  0
    1.8978   -7.1688    2.2362 C   0  0  0  0  0  0  0  0  0  0  0  0
    1.3175   -8.5714    2.5751 C   0  0  0  0  0  0  0  0  0  0  0  0
    0.8939   -6.5417    1.2355 C   0  0  0  0  0  0  0  0  0  0  0  0
    4.1732   -5.9570    2.0896 C   0  0  1  0  0  0  0  0  0  0  0  0
    1.7803   -5.3482    6.1313 H   0  0  0  0  0  0  0  0  0  0  0  0
    0.4435   -4.2438    5.8444 H   0  0  0  0  0  0  0  0  0  0  0  0
    1.9981   -3.9294    5.1078 H   0  0  0  0  0  0  0  0  0  0  0  0
    0.4653   -4.8369    3.4257 H   0  0  0  0  0  0  0  0  0  0  0  0
    0.0914   -7.3433    5.1519 H   0  0  0  0  0  0  0  0  0  0  0  0
   -0.8278   -6.8762    3.7181 H   0  0  0  0  0  0  0  0  0  0  0  0
   -1.0019   -5.9704    5.1909 H   0  0  0  0  0  0  0  0  0  0  0  0
    2.5013   -6.9216    4.2554 H   0  0  0  0  0  0  0  0  0  0  0  0
    3.7566   -4.9108    3.9555 H   0  0  0  0  0  0  0  0  0  0  0  0
    4.3402   -5.6616   -0.5398 H   0  0  0  0  0  0  0  0  0  0  0  0
    2.6730   -5.2760   -0.3059 H   0  0  0  0  0  0  0  0  0  0  0  0
    3.8614   -4.2363   -2.2282 H   0  0  0  0  0  0  0  0  0  0  0  0
    2.9318   -3.1288   -1.2873 H   0  0  0  0  0  0  0  0  0  0  0  0
    7.7577   -2.7469   -2.3221 H   0  0  0  0  0  0  0  0  0  0  0  0
    5.9419   -0.5410    1.3829 H   0  0  0  0  0  0  0  0  0  0  0  0
    6.0983   -0.4979   -0.3422 H   0  0  0  0  0  0  0  0  0  0  0  0
    7.1281   -1.5567    0.6049 H   0  0  0  0  0  0  0  0  0  0  0  0
    3.6957   -0.7087    1.2087 H   0  0  0  0  0  0  0  0  0  0  0  0
    2.8258   -2.1028    0.6410 H   0  0  0  0  0  0  0  0  0  0  0  0
    3.4859   -0.9417   -0.5038 H   0  0  0  0  0  0  0  0  0  0  0  0
    5.6321   -1.8861    3.0345 H   0  0  0  0  0  0  0  0  0  0  0  0
    4.8743   -3.2267    3.7598 H   0  0  0  0  0  0  0  0  0  0  0  0
    3.8910   -2.1050    2.9146 H   0  0  0  0  0  0  0  0  0  0  0  0
    6.7198   -4.5183    0.6521 H   0  0  0  0  0  0  0  0  0  0  0  0
    7.2234   -3.3143    1.7748 H   0  0  0  0  0  0  0  0  0  0  0  0
    7.5830   -5.4204    2.8517 H   0  0  0  0  0  0  0  0  0  0  0  0
    6.2880   -4.7049    3.6941 H   0  0  0  0  0  0  0  0  0  0  0  0
    5.6538   -6.8905    3.4119 H   0  0  0  0  0  0  0  0  0  0  0  0
    6.0427   -6.7533    0.4613 H   0  0  0  0  0  0  0  0  0  0  0  0
    8.1182   -7.8813    2.3745 H   0  0  0  0  0  0  0  0  0  0  0  0
    8.3355   -6.6045    1.1734 H   0  0  0  0  0  0  0  0  0  0  0  0
    8.0628   -8.2415    0.6548 H   0  0  0  0  0  0  0  0  0  0  0  0
    5.4106   -8.9406    0.3182 H   0  0  0  0  0  0  0  0  0  0  0  0
    6.0788   -9.3883    1.8636 H   0  0  0  0  0  0  0  0  0  0  0  0
    3.5635   -9.4245    1.6223 H   0  0  0  0  0  0  0  0  0  0  0  0
    4.1853   -8.6484    3.0589 H   0  0  0  0  0  0  0  0  0  0  0  0
    3.2778   -7.2644    0.5485 H   0  0  0  0  0  0  0  0  0  0  0  0
    1.3221   -9.2165    1.6919 H   0  0  0  0  0  0  0  0  0  0  0  0
    0.2789   -8.5374    2.8973 H   0  0  0  0  0  0  0  0  0  0  0  0
    1.8711   -9.0784    3.3660 H   0  0  0  0  0  0  0  0  0  0  0  0
    0.9517   -7.0191    0.2557 H   0  0  0  0  0  0  0  0  0  0  0  0
    1.0550   -5.4769    1.1029 H   0  0  0  0  0  0  0  0  0  0  0  0
   -0.1359   -6.6539    1.5763 H   0  0  0  0  0  0  0  0  0  0  0  0
  1  2  1  0
  1 30  1  0
  1 31  1  0
  1 32  1  0
  2  3  1  0
  2  4  1  0
  2 33  1  0
  3 34  1  0
  3 35  1  0
  3 36  1  0
  4 26  1  0
  4  5  1  0
  4 37  1  1
  5 29  1  0
  5  6  1  0
  5 38  1  1
  7  6  1  1
  7 16  1  0
 29  7  1  6
  7  8  1  0
  8  9  1  0
  8 39  1  0
  8 40  1  0
  9 10  1  0
  9 41  1  0
  9 42  1  0
 10 11  2  3
 10 13  1  0
 11 12  1  0
 12 43  1  0
 13 14  1  0
 13 15  1  0
 13 16  1  0
 14 44  1  0
 14 45  1  0
 14 46  1  0
 15 47  1  0
 15 48  1  0
 15 49  1  0
 16 17  1  1
 16 18  1  0
 17 50  1  0
 17 51  1  0
 17 52  1  0
 18 19  1  0
 18 53  1  0
 18 54  1  0
 19 20  1  0
 19 55  1  0
 19 56  1  0
 20 29  1  0
 20 21  1  0
 20 57  1  1
 21 22  1  0
 21 23  1  0
 21 58  1  6
 22 59  1  0
 22 60  1  0
 22 61  1  0
 23 24  1  0
 23 62  1  0
 23 63  1  0
 24 25  1  0
 24 64  1  0
 24 65  1  0
 25 26  1  0
 25 29  1  0
 25 66  1  6
 26 27  1  0
 26 28  1  0
 27 67  1  0
 27 68  1  0
 27 69  1  0
 28 70  1  0
 28 71  1  0
 28 72  1  0
M  END
>  <i_m_ct_stereo_status>  (38) 
1

>  <s_m_source_file>  (38) 
/var/tmp/pbs.5076255.sched01/tmp9stzsw2m/06nqgg2pe.sdf

>  <i_m_source_file_index>  (38) 
21

>  <i_lp_mmshare_version>  (38) 
48012

>  <i_f3d_flags>  (38) 
0

>  <s_epik_input>  (38) 
W0NAQF0xMjNbQ0BdNDVbQ0BASF0oTzEpW0NAQEhdKFtDSF0oW0NIM10pW0NIM10pQyhbQ0gzXSkoW0NIM10pW0NAQEhdNVtDSDJdW0NIMl1bQ0BIXShbQ0gzXSlbQ0BIXTRbQ0gyXVtDSDJdW0NAQF0zKFtDSDNdKUMoW0NIM10pKFtDSDNdKUMoXFtDSDJdW0NIMl0yKT1OXFtPSF0=

>  <s_epik_cmdline>  (38) 
J2VwaWtfcHl0aG9uJywgJy1waHQnLCAnMi4wJywgJy1waCcsICc3LjAnLCAnLXRuJywgJzgnLCAnLW1hJywgJzIwMCcsICctaW1hZScsICc8aW5maWxlLm1hZT4nLCAnLW9tYWUnLCAnPG91dGZpbGUubWFlPic=

>  <r_lp_tautomer_probability>  (38) 
1

>  <r_epik_Ionization_Penalty>  (38) 
8.54392e-07

>  <r_epik_Ionization_Penalty_Charging>  (38) 
0

>  <r_epik_Ionization_Penalty_Neutral>  (38) 
8.54392e-07

>  <r_epik_State_Penalty>  (38) 
-0

>  <r_epik_Charging_Adjusted_Penalty>  (38) 
0

>  <i_epik_Tot_Q>  (38) 
0

>  <i_epik_Tot_abs_Q>  (38) 
0

>  <s_epik_Chemistry_Notes>  (38) 
This compound has an imine and may undergo hydrolysis.

>  <s_lp_Force_Field>  (38) 
OPLS3e

>  <r_lp_Energy>  (38) 
108.806

>  <b_lp_Chiralities_Consistent>  (38) 
1

>  <s_lp_Variant>  (38) 
13:0-2

>  <s_i_glide_gridfile>  (38) 
pfpi4k_grid

>  <i_i_glide_lignum>  (38) 
21

>  <i_i_glide_rotatable_bonds>  (38) 
2

>  <r_i_docking_score>  (38) 
-2.97442

>  <r_i_glide_ligand_efficiency>  (38) 
-0.102566

>  <r_i_glide_ligand_efficiency_sa>  (38) 
-0.315116

>  <r_i_glide_ligand_efficiency_ln>  (38) 
-0.681066

>  <r_i_glide_gscore>  (38) 
-2.97442

>  <r_i_glide_lipo>  (38) 
-0.557431

>  <r_i_glide_hbond>  (38) 
-0.124677

>  <r_i_glide_metal>  (38) 
-0

>  <r_i_glide_rewards>  (38) 
-0.699097

>  <r_i_glide_evdw>  (38) 
-23.9501

>  <r_i_glide_ecoul>  (38) 
-2.84955

>  <r_i_glide_erotb>  (38) 
0.121609

>  <r_i_glide_esite>  (38) 
-0.0898828

>  <r_i_glide_emodel>  (38) 
-31.7216

>  <r_i_glide_energy>  (38) 
-26.7997

>  <r_i_glide_einternal>  (38) 
0.0582875

>  <r_i_glide_intrahb_reward>  (38) 
-0

>  <i_i_glide_confnum>  (38) 
2

>  <i_i_glide_posenum>  (38) 
23

>  <r_i_glide_eff_state_penalty>  (38) 
0

>  <ligand_id>  (38) 
13

>  <original_smiles>  (38) 
CC(C)C1C2OC34CCC(=NO)C(C)(C)C3(C)CCC3C(C)CCC(C1(C)C)C324

>  <smiles>  (38) 
[H]ON=C1C([H])([H])C([H])([H])C23OC4([H])C([H])(C([H])(C([H])([H])[H])C([H])([H])[H])C(C([H])([H])[H])(C([H])([H])[H])C5([H])C([H])([H])C([H])([H])C([H])(C([H])([H])[H])C([H])(C([H])([H])C([H])([H])C2(C([H])([H])[H])C1(C([H])([H])[H])C([H])([H])[H])C453

$$$$
13:1:1
     RDKit          3D

 72 76  0  0  1  0  0  0  0  0999 V2000
    3.5207   -1.6566    5.1385 C   0  0  0  0  0  0  0  0  0  0  0  0
    2.6442   -2.8365    4.6672 C   0  0  0  0  0  0  0  0  0  0  0  0
    1.8213   -3.3442    5.8690 C   0  0  0  0  0  0  0  0  0  0  0  0
    3.4972   -3.9351    3.9526 C   0  0  2  0  0  0  0  0  0  0  0  0
    4.3360   -3.4052    2.7802 C   0  0  2  0  0  0  0  0  0  0  0  0
    3.5229   -2.8152    1.7137 O   0  0  0  0  0  0  0  0  0  0  0  0
    4.2316   -3.5886    0.7017 C   0  0  1  0  0  0  0  0  0  0  0  0
    3.2655   -4.3708   -0.2789 C   0  0  0  0  0  0  0  0  0  0  0  0
    2.8383   -3.7097   -1.6191 C   0  0  0  0  0  0  0  0  0  0  0  0
    4.0933   -3.2158   -2.2674 C   0  0  0  0  0  0  0  0  0  0  0  0
    4.5061   -3.8467   -3.3198 N   0  0  0  0  0  0  0  0  0  0  0  0
    5.8016   -3.4904   -3.7264 O   0  0  0  0  0  0  0  0  0  0  0  0
    4.6601   -2.0503   -1.4363 C   0  0  0  0  0  0  0  0  0  0  0  0
    5.6443   -1.1672   -2.2260 C   0  0  0  0  0  0  0  0  0  0  0  0
    3.4836   -1.0696   -1.1804 C   0  0  0  0  0  0  0  0  0  0  0  0
    5.2375   -2.5801   -0.0467 C   0  0  1  0  0  0  0  0  0  0  0  0
    5.5995   -1.2965    0.8020 C   0  0  0  0  0  0  0  0  0  0  0  0
    6.5733   -3.3406   -0.2680 C   0  0  0  0  0  0  0  0  0  0  0  0
    7.1692   -3.8656    1.0392 C   0  0  0  0  0  0  0  0  0  0  0  0
    6.2827   -4.9290    1.7217 C   0  0  2  0  0  0  0  0  0  0  0  0
    6.4062   -6.3006    1.0016 C   0  0  1  0  0  0  0  0  0  0  0  0
    7.8144   -6.7238    0.5421 C   0  0  0  0  0  0  0  0  0  0  0  0
    5.7510   -7.4226    1.8310 C   0  0  0  0  0  0  0  0  0  0  0  0
    4.7538   -6.9003    2.8747 C   0  0  0  0  0  0  0  0  0  0  0  0
    3.8814   -5.7372    2.3425 C   0  0  1  0  0  0  0  0  0  0  0  0
    2.8114   -5.2152    3.3925 C   0  0  0  0  0  0  0  0  0  0  0  0
    2.4803   -6.2609    4.4914 C   0  0  0  0  0  0  0  0  0  0  0  0
    1.4569   -4.8871    2.7089 C   0  0  0  0  0  0  0  0  0  0  0  0
    4.7689   -4.5242    1.8501 C   0  0  1  0  0  0  0  0  0  0  0  0
    4.3011   -1.9829    5.8281 H   0  0  0  0  0  0  0  0  0  0  0  0
    2.9224   -0.9056    5.6559 H   0  0  0  0  0  0  0  0  0  0  0  0
    4.0012   -1.1479    4.3030 H   0  0  0  0  0  0  0  0  0  0  0  0
    1.9399   -2.4286    3.9412 H   0  0  0  0  0  0  0  0  0  0  0  0
    2.4247   -3.9310    6.5630 H   0  0  0  0  0  0  0  0  0  0  0  0
    0.9741   -3.9483    5.5531 H   0  0  0  0  0  0  0  0  0  0  0  0
    1.3944   -2.5139    6.4314 H   0  0  0  0  0  0  0  0  0  0  0  0
    4.2167   -4.2876    4.6961 H   0  0  0  0  0  0  0  0  0  0  0  0
    5.1483   -2.7586    3.1092 H   0  0  0  0  0  0  0  0  0  0  0  0
    3.7630   -5.3172   -0.5073 H   0  0  0  0  0  0  0  0  0  0  0  0
    2.3556   -4.6356    0.2437 H   0  0  0  0  0  0  0  0  0  0  0  0
    2.2914   -4.2592   -2.3639 H   0  0  0  0  0  0  0  0  0  0  0  0
    2.1007   -2.9276   -1.4304 H   0  0  0  0  0  0  0  0  0  0  0  0
    6.1868   -3.0997   -2.9809 H   0  0  0  0  0  0  0  0  0  0  0  0
    5.8188   -0.2151   -1.7260 H   0  0  0  0  0  0  0  0  0  0  0  0
    5.2129   -0.9038   -3.1926 H   0  0  0  0  0  0  0  0  0  0  0  0
    6.6170   -1.6343   -2.3475 H   0  0  0  0  0  0  0  0  0  0  0  0
    3.8648   -0.1421   -0.8176 H   0  0  0  0  0  0  0  0  0  0  0  0
    2.8202   -1.4150   -0.3837 H   0  0  0  0  0  0  0  0  0  0  0  0
    2.8890   -0.8849   -2.0883 H   0  0  0  0  0  0  0  0  0  0  0  0
    6.3481   -0.6737    0.3136 H   0  0  0  0  0  0  0  0  0  0  0  0
    6.0205   -1.4869    1.7792 H   0  0  0  0  0  0  0  0  0  0  0  0
    4.7382   -0.6632    1.0127 H   0  0  0  0  0  0  0  0  0  0  0  0
    6.4228   -4.1714   -0.9572 H   0  0  0  0  0  0  0  0  0  0  0  0
    7.3308   -2.7031   -0.7140 H   0  0  0  0  0  0  0  0  0  0  0  0
    8.1795   -4.2347    0.8644 H   0  0  0  0  0  0  0  0  0  0  0  0
    7.3467   -3.0408    1.7108 H   0  0  0  0  0  0  0  0  0  0  0  0
    6.7022   -5.0486    2.7217 H   0  0  0  0  0  0  0  0  0  0  0  0
    5.8153   -6.2156    0.0905 H   0  0  0  0  0  0  0  0  0  0  0  0
    8.5461   -6.7061    1.3502 H   0  0  0  0  0  0  0  0  0  0  0  0
    8.2042   -6.0997   -0.2633 H   0  0  0  0  0  0  0  0  0  0  0  0
    7.8064   -7.7401    0.1614 H   0  0  0  0  0  0  0  0  0  0  0  0
    5.2577   -8.1288    1.1570 H   0  0  0  0  0  0  0  0  0  0  0  0
    6.5115   -7.9918    2.3652 H   0  0  0  0  0  0  0  0  0  0  0  0
    4.1476   -7.7457    3.1936 H   0  0  0  0  0  0  0  0  0  0  0  0
    5.2979   -6.5647    3.7592 H   0  0  0  0  0  0  0  0  0  0  0  0
    3.3407   -6.1897    1.5142 H   0  0  0  0  0  0  0  0  0  0  0  0
    2.1375   -7.1965    4.0480 H   0  0  0  0  0  0  0  0  0  0  0  0
    1.6753   -5.9450    5.1490 H   0  0  0  0  0  0  0  0  0  0  0  0
    3.3340   -6.4832    5.1308 H   0  0  0  0  0  0  0  0  0  0  0  0
    1.1126   -5.7156    2.0889 H   0  0  0  0  0  0  0  0  0  0  0  0
    1.4980   -3.9949    2.0902 H   0  0  0  0  0  0  0  0  0  0  0  0
    0.6722   -4.6932    3.4387 H   0  0  0  0  0  0  0  0  0  0  0  0
  1  2  1  0
  1 30  1  0
  1 31  1  0
  1 32  1  0
  2  3  1  0
  2  4  1  0
  2 33  1  0
  3 34  1  0
  3 35  1  0
  3 36  1  0
  4 26  1  0
  4  5  1  0
  4 37  1  1
  5 29  1  0
  5  6  1  0
  5 38  1  1
  7  6  1  1
  7 16  1  0
 29  7  1  6
  7  8  1  0
  8  9  1  0
  8 39  1  0
  8 40  1  0
  9 10  1  0
  9 41  1  0
  9 42  1  0
 10 11  2  3
 10 13  1  0
 11 12  1  0
 12 43  1  0
 13 14  1  0
 13 15  1  0
 13 16  1  0
 14 44  1  0
 14 45  1  0
 14 46  1  0
 15 47  1  0
 15 48  1  0
 15 49  1  0
 16 17  1  1
 16 18  1  0
 17 50  1  0
 17 51  1  0
 17 52  1  0
 18 19  1  0
 18 53  1  0
 18 54  1  0
 19 20  1  0
 19 55  1  0
 19 56  1  0
 20 29  1  0
 20 21  1  0
 20 57  1  1
 21 22  1  0
 21 23  1  0
 21 58  1  6
 22 59  1  0
 22 60  1  0
 22 61  1  0
 23 24  1  0
 23 62  1  0
 23 63  1  0
 24 25  1  0
 24 64  1  0
 24 65  1  0
 25 26  1  0
 25 29  1  0
 25 66  1  6
 26 27  1  0
 26 28  1  0
 27 67  1  0
 27 68  1  0
 27 69  1  0
 28 70  1  0
 28 71  1  0
 28 72  1  0
M  END
>  <i_m_ct_stereo_status>  (39) 
1

>  <s_m_source_file>  (39) 
/var/tmp/pbs.5076255.sched01/tmp9stzsw2m/06nqgg2pe.sdf

>  <i_m_source_file_index>  (39) 
21

>  <i_lp_mmshare_version>  (39) 
48012

>  <i_f3d_flags>  (39) 
0

>  <s_epik_input>  (39) 
W0NAQF0xMjNbQ0BdNDVbQ0BASF0oTzEpW0NAQEhdKFtDSF0oW0NIM10pW0NIM10pQyhbQ0gzXSkoW0NIM10pW0NAQEhdNVtDSDJdW0NIMl1bQ0BIXShbQ0gzXSlbQ0BIXTRbQ0gyXVtDSDJdW0NAQF0zKFtDSDNdKUMoW0NIM10pKFtDSDNdKUMoXFtDSDJdW0NIMl0yKT1OXFtPSF0=

>  <s_epik_cmdline>  (39) 
J2VwaWtfcHl0aG9uJywgJy1waHQnLCAnMi4wJywgJy1waCcsICc3LjAnLCAnLXRuJywgJzgnLCAnLW1hJywgJzIwMCcsICctaW1hZScsICc8aW5maWxlLm1hZT4nLCAnLW9tYWUnLCAnPG91dGZpbGUubWFlPic=

>  <r_lp_tautomer_probability>  (39) 
1

>  <r_epik_Ionization_Penalty>  (39) 
8.54392e-07

>  <r_epik_Ionization_Penalty_Charging>  (39) 
0

>  <r_epik_Ionization_Penalty_Neutral>  (39) 
8.54392e-07

>  <r_epik_State_Penalty>  (39) 
-0

>  <r_epik_Charging_Adjusted_Penalty>  (39) 
0

>  <i_epik_Tot_Q>  (39) 
0

>  <i_epik_Tot_abs_Q>  (39) 
0

>  <s_epik_Chemistry_Notes>  (39) 
This compound has an imine and may undergo hydrolysis.

>  <s_lp_Force_Field>  (39) 
OPLS3e

>  <r_lp_Energy>  (39) 
108.806

>  <b_lp_Chiralities_Consistent>  (39) 
1

>  <s_lp_Variant>  (39) 
13:0-2

>  <s_i_glide_gridfile>  (39) 
pfpi4k_grid

>  <i_i_glide_lignum>  (39) 
21

>  <i_i_glide_rotatable_bonds>  (39) 
2

>  <r_i_docking_score>  (39) 
-1.57787

>  <r_i_glide_ligand_efficiency>  (39) 
-0.0544094

>  <r_i_glide_ligand_efficiency_sa>  (39) 
-0.167163

>  <r_i_glide_ligand_efficiency_ln>  (39) 
-0.361293

>  <r_i_glide_gscore>  (39) 
-1.57787

>  <r_i_glide_lipo>  (39) 
-0.641704

>  <r_i_glide_hbond>  (39) 
0

>  <r_i_glide_metal>  (39) 
-0

>  <r_i_glide_rewards>  (39) 
-0.670738

>  <r_i_glide_evdw>  (39) 
-4.59525

>  <r_i_glide_ecoul>  (39) 
-0.83422

>  <r_i_glide_erotb>  (39) 
0.121609

>  <r_i_glide_esite>  (39) 
-0.0321444

>  <r_i_glide_emodel>  (39) 
-6.26727

>  <r_i_glide_energy>  (39) 
-5.42947

>  <r_i_glide_einternal>  (39) 
0.674643

>  <r_i_glide_intrahb_reward>  (39) 
-0

>  <i_i_glide_confnum>  (39) 
1

>  <i_i_glide_posenum>  (39) 
2

>  <r_i_glide_eff_state_penalty>  (39) 
0

>  <ligand_id>  (39) 
13

>  <original_smiles>  (39) 
CC(C)C1C2OC34CCC(=NO)C(C)(C)C3(C)CCC3C(C)CCC(C1(C)C)C324

>  <smiles>  (39) 
[H]ON=C1C([H])([H])C([H])([H])C23OC4([H])C([H])(C([H])(C([H])([H])[H])C([H])([H])[H])C(C([H])([H])[H])(C([H])([H])[H])C5([H])C([H])([H])C([H])([H])C([H])(C([H])([H])[H])C([H])(C([H])([H])C([H])([H])C2(C([H])([H])[H])C1(C([H])([H])[H])C([H])([H])[H])C453

$$$$
13:1:2
     RDKit          3D

 72 76  0  0  1  0  0  0  0  0999 V2000
    3.9471    0.7791    3.4623 C   0  0  0  0  0  0  0  0  0  0  0  0
    2.9022   -0.3225    3.7069 C   0  0  0  0  0  0  0  0  0  0  0  0
    2.3837   -0.1942    5.1547 C   0  0  0  0  0  0  0  0  0  0  0  0
    3.4713   -1.7351    3.3461 C   0  0  2  0  0  0  0  0  0  0  0  0
    4.1643   -1.8018    1.9729 C   0  0  2  0  0  0  0  0  0  0  0  0
    3.2826   -1.4697    0.8481 O   0  0  0  0  0  0  0  0  0  0  0  0
    3.7263   -2.6453    0.1051 C   0  0  1  0  0  0  0  0  0  0  0  0
    2.5764   -3.5391   -0.4523 C   0  0  0  0  0  0  0  0  0  0  0  0
    2.0499   -3.4221   -1.8956 C   0  0  0  0  0  0  0  0  0  0  0  0
    3.1567   -3.1713   -2.8791 C   0  0  0  0  0  0  0  0  0  0  0  0
    3.2330   -3.8685   -3.9224 N   0  0  0  0  0  0  0  0  0  0  0  0
    4.5773   -4.1241   -4.2803 O   0  0  0  0  0  0  0  0  0  0  0  0
    4.0278   -1.9767   -2.4841 C   0  0  0  0  0  0  0  0  0  0  0  0
    5.0080   -1.6035   -3.5921 C   0  0  0  0  0  0  0  0  0  0  0  0
    3.0615   -0.7744   -2.4911 C   0  0  0  0  0  0  0  0  0  0  0  0
    4.7090   -2.1562   -1.0514 C   0  0  1  0  0  0  0  0  0  0  0  0
    5.3586   -0.7633   -0.7171 C   0  0  0  0  0  0  0  0  0  0  0  0
    5.8751   -3.1764   -1.0926 C   0  0  0  0  0  0  0  0  0  0  0  0
    6.5882   -3.3336    0.2579 C   0  0  0  0  0  0  0  0  0  0  0  0
    5.6724   -3.9289    1.3505 C   0  0  2  0  0  0  0  0  0  0  0  0
    5.4669   -5.4565    1.1571 C   0  0  1  0  0  0  0  0  0  0  0  0
    6.6975   -6.2805    0.7512 C   0  0  0  0  0  0  0  0  0  0  0  0
    4.8068   -6.0921    2.3906 C   0  0  0  0  0  0  0  0  0  0  0  0
    4.0815   -5.0735    3.2749 C   0  0  0  0  0  0  0  0  0  0  0  0
    3.3153   -4.0049    2.4529 C   0  0  1  0  0  0  0  0  0  0  0  0
    2.5305   -2.9687    3.3616 C   0  0  0  0  0  0  0  0  0  0  0  0
    2.2279   -3.5076    4.7847 C   0  0  0  0  0  0  0  0  0  0  0  0
    1.1475   -2.6327    2.7658 C   0  0  0  0  0  0  0  0  0  0  0  0
    4.2820   -3.2259    1.4640 C   0  0  1  0  0  0  0  0  0  0  0  0
    4.8582    0.6065    4.0355 H   0  0  0  0  0  0  0  0  0  0  0  0
    3.5601    1.7611    3.7368 H   0  0  0  0  0  0  0  0  0  0  0  0
    4.2187    0.8326    2.4089 H   0  0  0  0  0  0  0  0  0  0  0  0
    2.0670   -0.1009    3.0410 H   0  0  0  0  0  0  0  0  0  0  0  0
    3.1024   -0.5691    5.8855 H   0  0  0  0  0  0  0  0  0  0  0  0
    1.4393   -0.7156    5.2970 H   0  0  0  0  0  0  0  0  0  0  0  0
    2.1832    0.8487    5.4046 H   0  0  0  0  0  0  0  0  0  0  0  0
    4.2499   -1.9439    4.0874 H   0  0  0  0  0  0  0  0  0  0  0  0
    5.1098   -1.2579    1.9692 H   0  0  0  0  0  0  0  0  0  0  0  0
    2.8485   -4.5836   -0.2991 H   0  0  0  0  0  0  0  0  0  0  0  0
    1.7356   -3.3714    0.1911 H   0  0  0  0  0  0  0  0  0  0  0  0
    1.5320   -4.3480   -2.1604 H   0  0  0  0  0  0  0  0  0  0  0  0
    1.3152   -2.6679   -1.9942 H   0  0  0  0  0  0  0  0  0  0  0  0
    4.6116   -5.0504   -4.4877 H   0  0  0  0  0  0  0  0  0  0  0  0
    5.3188   -0.5962   -3.3966 H   0  0  0  0  0  0  0  0  0  0  0  0
    4.5053   -1.5901   -4.5582 H   0  0  0  0  0  0  0  0  0  0  0  0
    5.8728   -2.2786   -3.6153 H   0  0  0  0  0  0  0  0  0  0  0  0
    3.5700    0.1703   -2.7258 H   0  0  0  0  0  0  0  0  0  0  0  0
    2.6570   -0.6846   -1.4750 H   0  0  0  0  0  0  0  0  0  0  0  0
    2.2824   -0.8702   -3.2570 H   0  0  0  0  0  0  0  0  0  0  0  0
    6.0860   -0.5188   -1.4705 H   0  0  0  0  0  0  0  0  0  0  0  0
    5.9127   -0.6882    0.2084 H   0  0  0  0  0  0  0  0  0  0  0  0
    4.6257    0.0425   -0.6723 H   0  0  0  0  0  0  0  0  0  0  0  0
    5.4975   -4.1423   -1.4282 H   0  0  0  0  0  0  0  0  0  0  0  0
    6.6310   -2.8831   -1.8085 H   0  0  0  0  0  0  0  0  0  0  0  0
    7.4852   -3.9333    0.1167 H   0  0  0  0  0  0  0  0  0  0  0  0
    6.9975   -2.3885    0.6068 H   0  0  0  0  0  0  0  0  0  0  0  0
    6.2216   -3.7880    2.2813 H   0  0  0  0  0  0  0  0  0  0  0  0
    4.7605   -5.5663    0.3363 H   0  0  0  0  0  0  0  0  0  0  0  0
    7.5450   -6.1492    1.4224 H   0  0  0  0  0  0  0  0  0  0  0  0
    7.0231   -6.0309   -0.2547 H   0  0  0  0  0  0  0  0  0  0  0  0
    6.4370   -7.3393    0.7539 H   0  0  0  0  0  0  0  0  0  0  0  0
    4.1141   -6.8722    2.0615 H   0  0  0  0  0  0  0  0  0  0  0  0
    5.5573   -6.5903    3.0067 H   0  0  0  0  0  0  0  0  0  0  0  0
    3.4167   -5.6346    3.9300 H   0  0  0  0  0  0  0  0  0  0  0  0
    4.8058   -4.5760    3.9231 H   0  0  0  0  0  0  0  0  0  0  0  0
    2.5849   -4.5890    1.9016 H   0  0  0  0  0  0  0  0  0  0  0  0
    1.6781   -4.4479    4.7308 H   0  0  0  0  0  0  0  0  0  0  0  0
    1.5912   -2.8411    5.3598 H   0  0  0  0  0  0  0  0  0  0  0  0
    3.1288   -3.6730    5.3764 H   0  0  0  0  0  0  0  0  0  0  0  0
    0.5917   -3.5498    2.5661 H   0  0  0  0  0  0  0  0  0  0  0  0
    1.2043   -2.0343    1.8578 H   0  0  0  0  0  0  0  0  0  0  0  0
    0.5297   -2.0608    3.4540 H   0  0  0  0  0  0  0  0  0  0  0  0
  1  2  1  0
  1 30  1  0
  1 31  1  0
  1 32  1  0
  2  3  1  0
  2  4  1  0
  2 33  1  0
  3 34  1  0
  3 35  1  0
  3 36  1  0
  4 26  1  0
  4  5  1  0
  4 37  1  1
  5 29  1  0
  5  6  1  0
  5 38  1  1
  7  6  1  1
  7 16  1  0
 29  7  1  6
  7  8  1  0
  8  9  1  0
  8 39  1  0
  8 40  1  0
  9 10  1  0
  9 41  1  0
  9 42  1  0
 10 11  2  3
 10 13  1  0
 11 12  1  0
 12 43  1  0
 13 14  1  0
 13 15  1  0
 13 16  1  0
 14 44  1  0
 14 45  1  0
 14 46  1  0
 15 47  1  0
 15 48  1  0
 15 49  1  0
 16 17  1  1
 16 18  1  0
 17 50  1  0
 17 51  1  0
 17 52  1  0
 18 19  1  0
 18 53  1  0
 18 54  1  0
 19 20  1  0
 19 55  1  0
 19 56  1  0
 20 29  1  0
 20 21  1  0
 20 57  1  1
 21 22  1  0
 21 23  1  0
 21 58  1  6
 22 59  1  0
 22 60  1  0
 22 61  1  0
 23 24  1  0
 23 62  1  0
 23 63  1  0
 24 25  1  0
 24 64  1  0
 24 65  1  0
 25 26  1  0
 25 29  1  0
 25 66  1  6
 26 27  1  0
 26 28  1  0
 27 67  1  0
 27 68  1  0
 27 69  1  0
 28 70  1  0
 28 71  1  0
 28 72  1  0
M  END
>  <i_m_ct_stereo_status>  (40) 
1

>  <s_m_source_file>  (40) 
/var/tmp/pbs.5076255.sched01/tmp9stzsw2m/06nqgg2pe.sdf

>  <i_m_source_file_index>  (40) 
21

>  <i_lp_mmshare_version>  (40) 
48012

>  <i_f3d_flags>  (40) 
0

>  <s_epik_input>  (40) 
W0NAQF0xMjNbQ0BdNDVbQ0BASF0oTzEpW0NAQEhdKFtDSF0oW0NIM10pW0NIM10pQyhbQ0gzXSkoW0NIM10pW0NAQEhdNVtDSDJdW0NIMl1bQ0BIXShbQ0gzXSlbQ0BIXTRbQ0gyXVtDSDJdW0NAQF0zKFtDSDNdKUMoW0NIM10pKFtDSDNdKUMoXFtDSDJdW0NIMl0yKT1OXFtPSF0=

>  <s_epik_cmdline>  (40) 
J2VwaWtfcHl0aG9uJywgJy1waHQnLCAnMi4wJywgJy1waCcsICc3LjAnLCAnLXRuJywgJzgnLCAnLW1hJywgJzIwMCcsICctaW1hZScsICc8aW5maWxlLm1hZT4nLCAnLW9tYWUnLCAnPG91dGZpbGUubWFlPic=

>  <r_lp_tautomer_probability>  (40) 
1

>  <r_epik_Ionization_Penalty>  (40) 
8.54392e-07

>  <r_epik_Ionization_Penalty_Charging>  (40) 
0

>  <r_epik_Ionization_Penalty_Neutral>  (40) 
8.54392e-07

>  <r_epik_State_Penalty>  (40) 
-0

>  <r_epik_Charging_Adjusted_Penalty>  (40) 
0

>  <i_epik_Tot_Q>  (40) 
0

>  <i_epik_Tot_abs_Q>  (40) 
0

>  <s_epik_Chemistry_Notes>  (40) 
This compound has an imine and may undergo hydrolysis.

>  <s_lp_Force_Field>  (40) 
OPLS3e

>  <r_lp_Energy>  (40) 
108.806

>  <b_lp_Chiralities_Consistent>  (40) 
1

>  <s_lp_Variant>  (40) 
13:0-2

>  <s_i_glide_gridfile>  (40) 
pfpi4k_grid

>  <i_i_glide_lignum>  (40) 
21

>  <i_i_glide_rotatable_bonds>  (40) 
2

>  <r_i_docking_score>  (40) 
-1.10176

>  <r_i_glide_ligand_efficiency>  (40) 
-0.0379916

>  <r_i_glide_ligand_efficiency_sa>  (40) 
-0.116722

>  <r_i_glide_ligand_efficiency_ln>  (40) 
-0.252274

>  <r_i_glide_gscore>  (40) 
-1.10176

>  <r_i_glide_lipo>  (40) 
-0.546436

>  <r_i_glide_hbond>  (40) 
0

>  <r_i_glide_metal>  (40) 
-0

>  <r_i_glide_rewards>  (40) 
-0.670738

>  <r_i_glide_evdw>  (40) 
-0.680243

>  <r_i_glide_ecoul>  (40) 
0.411445

>  <r_i_glide_erotb>  (40) 
0.121609

>  <r_i_glide_esite>  (40) 
-0.0613687

>  <r_i_glide_emodel>  (40) 
2.12869

>  <r_i_glide_energy>  (40) 
-0.268798

>  <r_i_glide_einternal>  (40) 
0.632599

>  <r_i_glide_intrahb_reward>  (40) 
-0

>  <i_i_glide_confnum>  (40) 
2

>  <i_i_glide_posenum>  (40) 
7

>  <r_i_glide_eff_state_penalty>  (40) 
0

>  <ligand_id>  (40) 
13

>  <original_smiles>  (40) 
CC(C)C1C2OC34CCC(=NO)C(C)(C)C3(C)CCC3C(C)CCC(C1(C)C)C324

>  <smiles>  (40) 
[H]ON=C1C([H])([H])C([H])([H])C23OC4([H])C([H])(C([H])(C([H])([H])[H])C([H])([H])[H])C(C([H])([H])[H])(C([H])([H])[H])C5([H])C([H])([H])C([H])([H])C([H])(C([H])([H])[H])C([H])(C([H])([H])C([H])([H])C2(C([H])([H])[H])C1(C([H])([H])[H])C([H])([H])[H])C453

$$$$
14:0:0
     RDKit          3D

 72 77  0  0  1  0  0  0  0  0999 V2000
    3.3614   -0.1509    3.9840 C   0  0  0  0  0  0  0  0  0  0  0  0
    2.7008   -1.4179    3.4697 C   0  0  0  0  0  0  0  0  0  0  0  0
    2.2728   -2.3449    4.4408 C   0  0  0  0  0  0  0  0  0  0  0  0
    3.1684   -3.5486    4.8888 C   0  0  2  0  0  0  0  0  0  0  0  0
    3.5437   -4.3159    3.8272 O   0  0  0  0  0  0  0  0  0  0  0  0
    3.2879   -5.7007    3.8178 C   0  0  2  0  0  0  0  0  0  0  0  0
    1.8607   -6.2200    3.5865 C   0  0  0  0  0  0  0  0  0  0  0  0
    1.5892   -7.0484    2.7389 O   0  0  0  0  0  0  0  0  0  0  0  0
    0.8118   -5.6229    4.5515 C   0  0  1  0  0  0  0  0  0  0  0  0
   -0.3992   -6.5708    4.7579 C   0  0  0  0  0  0  0  0  0  0  0  0
    1.4770   -5.2045    5.8910 C   0  0  0  0  0  0  0  0  0  0  0  0
    2.9954   -4.8221    5.8082 C   0  0  2  0  0  0  0  0  0  0  0  0
    3.4902   -4.5466    7.2504 C   0  0  0  0  0  0  0  0  0  0  0  0
    3.9166   -5.9432    5.1076 C   0  0  1  0  0  0  0  0  0  0  0  0
    3.7445   -7.2190    5.7672 O   0  0  0  0  0  0  0  0  0  0  0  0
    4.5395   -6.3040    3.5778 C   0  0  2  0  0  0  0  0  0  0  0  0
    5.7262   -5.5538    2.8003 C   0  0  1  0  0  0  0  0  0  0  0  0
    6.7433   -6.5365    2.7903 O   0  0  0  0  0  0  0  0  0  0  0  0
    5.6536   -4.7837    1.3121 C   0  0  1  0  0  0  0  0  0  0  0  0
    6.7059   -5.3023    0.5001 O   0  0  0  0  0  0  0  0  0  0  0  0
    4.3542   -4.9830    0.4578 C   0  0  0  0  0  0  0  0  0  0  0  0
    3.5463   -3.6703    0.1796 C   0  0  1  0  0  0  0  0  0  0  0  0
    2.2926   -3.9362   -0.7029 C   0  0  0  0  0  0  0  0  0  0  0  0
    3.4152   -2.9758    1.5770 C   0  0  2  0  0  0  0  0  0  0  0  0
    2.2752   -3.7496    1.9145 O   0  0  0  0  0  0  0  0  0  0  0  0
    2.8214   -1.6308    1.8661 C   0  0  2  0  0  0  0  0  0  0  0  0
    3.5972   -0.6449    0.8478 C   0  0  0  0  0  0  0  0  0  0  0  0
    5.1316   -0.7874    0.3220 C   0  0  0  0  0  0  0  0  0  0  0  0
    6.1383   -2.0935    0.2981 C   0  0  1  0  0  0  0  0  0  0  0  0
    6.4810   -2.6406   -1.1117 C   0  0  0  0  0  0  0  0  0  0  0  0
    7.3810   -1.4752    0.5594 O   0  0  0  0  0  0  0  0  0  0  0  0
    6.0104   -3.2385    1.4324 C   0  0  1  0  0  0  0  0  0  0  0  0
    4.9071   -2.7629    2.2759 C   0  0  2  0  0  0  0  0  0  0  0  0
    5.3924   -2.5987    3.5952 O   0  0  0  0  0  0  0  0  0  0  0  0
    4.3231    0.0028    3.5053 H   0  0  0  0  0  0  0  0  0  0  0  0
    3.5709   -0.2667    5.0457 H   0  0  0  0  0  0  0  0  0  0  0  0
    2.7204    0.7073    3.8242 H   0  0  0  0  0  0  0  0  0  0  0  0
    2.2948   -1.9820    5.4352 H   0  0  0  0  0  0  0  0  0  0  0  0
    4.0669   -3.0640    5.3908 H   0  0  0  0  0  0  0  0  0  0  0  0
    0.4488   -4.7295    4.0599 H   0  0  0  0  0  0  0  0  0  0  0  0
   -0.9349   -6.7389    3.8260 H   0  0  0  0  0  0  0  0  0  0  0  0
   -1.1097   -6.1482    5.4651 H   0  0  0  0  0  0  0  0  0  0  0  0
   -0.0975   -7.5428    5.1406 H   0  0  0  0  0  0  0  0  0  0  0  0
    0.8965   -4.3679    6.3090 H   0  0  0  0  0  0  0  0  0  0  0  0
    1.3593   -6.0178    6.6059 H   0  0  0  0  0  0  0  0  0  0  0  0
    3.3407   -5.4171    7.8923 H   0  0  0  0  0  0  0  0  0  0  0  0
    2.9636   -3.7076    7.7118 H   0  0  0  0  0  0  0  0  0  0  0  0
    4.5561   -4.3154    7.2668 H   0  0  0  0  0  0  0  0  0  0  0  0
    2.8389   -7.4719    5.5904 H   0  0  0  0  0  0  0  0  0  0  0  0
    4.4263   -7.3304    3.2449 H   0  0  0  0  0  0  0  0  0  0  0  0
    6.1540   -4.8549    3.5221 H   0  0  0  0  0  0  0  0  0  0  0  0
    6.8259   -6.8725    3.6743 H   0  0  0  0  0  0  0  0  0  0  0  0
    7.4936   -5.2927    1.0244 H   0  0  0  0  0  0  0  0  0  0  0  0
    4.5768   -5.4481   -0.4956 H   0  0  0  0  0  0  0  0  0  0  0  0
    3.7125   -5.7102    0.9667 H   0  0  0  0  0  0  0  0  0  0  0  0
    4.0598   -2.9870   -0.4761 H   0  0  0  0  0  0  0  0  0  0  0  0
    1.6757   -4.7510   -0.3159 H   0  0  0  0  0  0  0  0  0  0  0  0
    2.6122   -4.2319   -1.7033 H   0  0  0  0  0  0  0  0  0  0  0  0
    1.6803   -3.0362   -0.8138 H   0  0  0  0  0  0  0  0  0  0  0  0
    2.5850   -4.6454    1.9306 H   0  0  0  0  0  0  0  0  0  0  0  0
    1.7954   -1.5613    1.5085 H   0  0  0  0  0  0  0  0  0  0  0  0
    3.0051   -0.6778   -0.0762 H   0  0  0  0  0  0  0  0  0  0  0  0
    3.4424    0.3824    1.1757 H   0  0  0  0  0  0  0  0  0  0  0  0
    5.1527   -0.3607   -0.6861 H   0  0  0  0  0  0  0  0  0  0  0  0
    5.6347   -0.0111    0.9075 H   0  0  0  0  0  0  0  0  0  0  0  0
    5.7492   -3.3145   -1.5436 H   0  0  0  0  0  0  0  0  0  0  0  0
    7.4187   -3.2043   -1.1000 H   0  0  0  0  0  0  0  0  0  0  0  0
    6.6159   -1.8305   -1.8265 H   0  0  0  0  0  0  0  0  0  0  0  0
    7.2944   -0.9175    1.3383 H   0  0  0  0  0  0  0  0  0  0  0  0
    6.9408   -3.2292    1.9993 H   0  0  0  0  0  0  0  0  0  0  0  0
    5.0799   -1.7064    2.3841 H   0  0  0  0  0  0  0  0  0  0  0  0
    4.8114   -1.9947    4.0394 H   0  0  0  0  0  0  0  0  0  0  0  0
  1  2  1  0
  1 35  1  0
  1 36  1  0
  1 37  1  0
  2 26  1  0
  2  3  2  3
  3  4  1  0
  3 38  1  0
  4 12  1  0
  4  5  1  0
  4 39  1  1
  5  6  1  0
  6 14  1  0
  6 16  1  0
  6  7  1  1
  7  8  2  0
  7  9  1  0
  9 10  1  0
  9 11  1  0
  9 40  1  6
 10 41  1  0
 10 42  1  0
 10 43  1  0
 11 12  1  0
 11 44  1  0
 11 45  1  0
 12 13  1  1
 12 14  1  0
 13 46  1  0
 13 47  1  0
 13 48  1  0
 14 15  1  1
 14 16  1  0
 15 49  1  0
 16 17  1  0
 16 50  1  1
 17 18  1  0
 17 19  1  0
 17 51  1  1
 18 52  1  0
 19 32  1  0
 19 20  1  6
 19 21  1  0
 20 53  1  0
 21 22  1  0
 21 54  1  0
 21 55  1  0
 22 23  1  0
 22 24  1  0
 22 56  1  6
 23 57  1  0
 23 58  1  0
 23 59  1  0
 24 33  1  0
 24 25  1  1
 24 26  1  0
 25 60  1  0
 26 27  1  0
 26 61  1  6
 27 28  1  0
 27 62  1  0
 27 63  1  0
 28 29  1  0
 28 64  1  0
 28 65  1  0
 29 30  1  0
 29 31  1  1
 29 32  1  0
 30 66  1  0
 30 67  1  0
 30 68  1  0
 31 69  1  0
 32 33  1  0
 32 70  1  1
 33 34  1  0
 33 71  1  6
 34 72  1  0
M  END
>  <i_m_ct_stereo_status>  (41) 
1

>  <s_m_source_file>  (41) 
/var/tmp/pbs.5076255.sched01/tmp9stzsw2m/06nqgg2pe.sdf

>  <i_m_source_file_index>  (41) 
22

>  <i_lp_mmshare_version>  (41) 
48012

>  <i_f3d_flags>  (41) 
0

>  <s_epik_input>  (41) 
Tz1DMVtDQEBIXShbQ0gzXSlbQ0gyXVtDQEBdKFtDSDNdKShbQ0BdMihbQ0BAXTEzNClbT0hdKVtDQEhdKE8zKVxbQ0hdPUMoXFtDSDNdKVtDQEBIXTVbQ0BAXTYoW09IXSlbQ0BIXShbQ0gzXSlbQ0gyXVtDQF0oW09IXSkoW0NAQEhdKFtDQEBIXTI0KVtPSF0pW0NASF0oW0NASF02W09IXSlbQ0BdKFtDSDNdKShbT0hdKVtDSDJdW0NIMl01

>  <s_epik_cmdline>  (41) 
J2VwaWtfcHl0aG9uJywgJy1waHQnLCAnMi4wJywgJy1waCcsICc3LjAnLCAnLXRuJywgJzgnLCAnLW1hJywgJzIwMCcsICctaW1hZScsICc8aW5maWxlLm1hZT4nLCAnLW9tYWUnLCAnPG91dGZpbGUubWFlPic=

>  <r_lp_tautomer_probability>  (41) 
1

>  <r_epik_Ionization_Penalty>  (41) 
1.63335e-06

>  <r_epik_Ionization_Penalty_Charging>  (41) 
0

>  <r_epik_Ionization_Penalty_Neutral>  (41) 
1.63335e-06

>  <r_epik_State_Penalty>  (41) 
-0

>  <r_epik_Charging_Adjusted_Penalty>  (41) 
0

>  <i_epik_Tot_Q>  (41) 
0

>  <i_epik_Tot_abs_Q>  (41) 
0

>  <s_lp_Force_Field>  (41) 
OPLS3e

>  <r_lp_Energy>  (41) 
321.268

>  <b_lp_Chiralities_Consistent>  (41) 
1

>  <s_lp_Variant>  (41) 
14:0-1

>  <s_i_glide_gridfile>  (41) 
pfpi4k_grid

>  <i_i_glide_lignum>  (41) 
22

>  <i_i_glide_rotatable_bonds>  (41) 
6

>  <r_i_docking_score>  (41) 
-1.46115

>  <r_i_glide_ligand_efficiency>  (41) 
-0.0429749

>  <r_i_glide_ligand_efficiency_sa>  (41) 
-0.139222

>  <r_i_glide_ligand_efficiency_ln>  (41) 
-0.322808

>  <r_i_glide_gscore>  (41) 
-1.46115

>  <r_i_glide_lipo>  (41) 
-0.429904

>  <r_i_glide_hbond>  (41) 
-0.0554224

>  <r_i_glide_metal>  (41) 
-0

>  <r_i_glide_rewards>  (41) 
-0.146079

>  <r_i_glide_evdw>  (41) 
-25.8101

>  <r_i_glide_ecoul>  (41) 
-1.49716

>  <r_i_glide_erotb>  (41) 
0

>  <r_i_glide_esite>  (41) 
-0.00559663

>  <r_i_glide_emodel>  (41) 
-24.1008

>  <r_i_glide_energy>  (41) 
-27.3073

>  <r_i_glide_einternal>  (41) 
0.89933

>  <r_i_glide_intrahb_reward>  (41) 
-0

>  <i_i_glide_confnum>  (41) 
2

>  <i_i_glide_posenum>  (41) 
22

>  <r_i_glide_eff_state_penalty>  (41) 
0

>  <ligand_id>  (41) 
14

>  <original_smiles>  (41) 
CC1=CC2OC34C(=O)C(C)CC2(C)C3(O)C4C(O)C2(O)CC(C)C3(O)C1CCC(C)(O)C2C3O

>  <smiles>  (41) 
[H]OC1([H])C2([H])C34OC([H])(C([H])=C(C([H])([H])[H])C5([H])C([H])([H])C([H])([H])C(O[H])(C([H])([H])[H])C6([H])C([H])(O[H])C5(O[H])C([H])(C([H])([H])[H])C([H])([H])C16O[H])C(C([H])([H])[H])(C([H])([H])C([H])(C([H])([H])[H])C3=O)C42O[H]

$$$$
14:0:1
     RDKit          3D

 72 77  0  0  1  0  0  0  0  0999 V2000
    3.4006   -0.0542    3.9116 C   0  0  0  0  0  0  0  0  0  0  0  0
    2.7657   -1.3357    3.4408 C   0  0  0  0  0  0  0  0  0  0  0  0
    2.3074   -2.2083    4.4473 C   0  0  0  0  0  0  0  0  0  0  0  0
    3.1844   -3.4415    4.8826 C   0  0  2  0  0  0  0  0  0  0  0  0
    3.5787   -4.2330    3.8295 O   0  0  0  0  0  0  0  0  0  0  0  0
    3.2994   -5.6011    3.8386 C   0  0  2  0  0  0  0  0  0  0  0  0
    1.8641   -6.1162    3.6290 C   0  0  0  0  0  0  0  0  0  0  0  0
    1.5708   -6.9770    2.7984 O   0  0  0  0  0  0  0  0  0  0  0  0
    0.8297   -5.4993    4.5893 C   0  0  1  0  0  0  0  0  0  0  0  0
   -0.3815   -6.4319    4.8272 C   0  0  0  0  0  0  0  0  0  0  0  0
    1.5103   -5.0644    5.9193 C   0  0  0  0  0  0  0  0  0  0  0  0
    3.0252   -4.6869    5.8140 C   0  0  2  0  0  0  0  0  0  0  0  0
    3.5369   -4.4020    7.2549 C   0  0  0  0  0  0  0  0  0  0  0  0
    3.9450   -5.8586    5.1327 C   0  0  1  0  0  0  0  0  0  0  0  0
    3.7681   -7.1007    5.8081 O   0  0  0  0  0  0  0  0  0  0  0  0
    4.5373   -6.2294    3.6027 C   0  0  2  0  0  0  0  0  0  0  0  0
    5.7253   -5.4991    2.8010 C   0  0  1  0  0  0  0  0  0  0  0  0
    6.7052   -6.5184    2.7820 O   0  0  0  0  0  0  0  0  0  0  0  0
    5.6467   -4.7509    1.3044 C   0  0  1  0  0  0  0  0  0  0  0  0
    6.6834   -5.2844    0.4983 O   0  0  0  0  0  0  0  0  0  0  0  0
    4.3347   -4.9599    0.4667 C   0  0  0  0  0  0  0  0  0  0  0  0
    3.5382   -3.6497    0.1629 C   0  0  1  0  0  0  0  0  0  0  0  0
    2.2737   -3.9316   -0.6965 C   0  0  0  0  0  0  0  0  0  0  0  0
    3.4243   -2.9360    1.5529 C   0  0  2  0  0  0  0  0  0  0  0  0
    2.2715   -3.6773    1.9394 O   0  0  0  0  0  0  0  0  0  0  0  0
    2.8597   -1.5821    1.8306 C   0  0  2  0  0  0  0  0  0  0  0  0
    3.6189   -0.6157    0.7896 C   0  0  0  0  0  0  0  0  0  0  0  0
    5.1459   -0.7734    0.2505 C   0  0  0  0  0  0  0  0  0  0  0  0
    6.1383   -2.0871    0.2398 C   0  0  1  0  0  0  0  0  0  0  0  0
    6.4706   -2.6570   -1.1660 C   0  0  0  0  0  0  0  0  0  0  0  0
    7.3910   -1.4548    0.4806 O   0  0  0  0  0  0  0  0  0  0  0  0
    6.0146   -3.2059    1.3931 C   0  0  1  0  0  0  0  0  0  0  0  0
    4.9268   -2.7108    2.2367 C   0  0  2  0  0  0  0  0  0  0  0  0
    5.4195   -2.5220    3.5528 O   0  0  0  0  0  0  0  0  0  0  0  0
    4.3617    0.0866    3.4272 H   0  0  0  0  0  0  0  0  0  0  0  0
    3.6242   -0.1467    4.9722 H   0  0  0  0  0  0  0  0  0  0  0  0
    2.7547    0.8072    3.7382 H   0  0  0  0  0  0  0  0  0  0  0  0
    2.3650   -1.8590    5.4398 H   0  0  0  0  0  0  0  0  0  0  0  0
    4.0214   -2.9119    5.3557 H   0  0  0  0  0  0  0  0  0  0  0  0
    0.4665   -4.6026    4.0897 H   0  0  0  0  0  0  0  0  0  0  0  0
   -0.9276   -6.6231    3.9046 H   0  0  0  0  0  0  0  0  0  0  0  0
   -1.0866   -5.9975    5.5327 H   0  0  0  0  0  0  0  0  0  0  0  0
   -0.0824   -7.4001    5.2269 H   0  0  0  0  0  0  0  0  0  0  0  0
    0.9392   -4.2197    6.3308 H   0  0  0  0  0  0  0  0  0  0  0  0
    1.3871   -5.8686    6.6462 H   0  0  0  0  0  0  0  0  0  0  0  0
    3.3869   -5.2626    7.9165 H   0  0  0  0  0  0  0  0  0  0  0  0
    3.0147   -3.5542    7.7068 H   0  0  0  0  0  0  0  0  0  0  0  0
    4.6012   -4.1752    7.2632 H   0  0  0  0  0  0  0  0  0  0  0  0
    2.8675   -7.3721    5.5881 H   0  0  0  0  0  0  0  0  0  0  0  0
    4.4197   -7.2673    3.2942 H   0  0  0  0  0  0  0  0  0  0  0  0
    6.1683   -4.7978    3.5078 H   0  0  0  0  0  0  0  0  0  0  0  0
    6.8222   -6.8214    3.6765 H   0  0  0  0  0  0  0  0  0  0  0  0
    6.5749   -6.2239    0.4877 H   0  0  0  0  0  0  0  0  0  0  0  0
    4.5483   -5.4360   -0.4851 H   0  0  0  0  0  0  0  0  0  0  0  0
    3.6881   -5.6680    0.9916 H   0  0  0  0  0  0  0  0  0  0  0  0
    4.0498   -2.9773   -0.5022 H   0  0  0  0  0  0  0  0  0  0  0  0
    1.6662   -4.7416   -0.2888 H   0  0  0  0  0  0  0  0  0  0  0  0
    2.5961   -4.2398   -1.6890 H   0  0  0  0  0  0  0  0  0  0  0  0
    1.6515   -3.0508   -0.8258 H   0  0  0  0  0  0  0  0  0  0  0  0
    1.5236   -3.3254    1.4454 H   0  0  0  0  0  0  0  0  0  0  0  0
    1.8254   -1.4965    1.4872 H   0  0  0  0  0  0  0  0  0  0  0  0
    3.0305   -0.6768   -0.1305 H   0  0  0  0  0  0  0  0  0  0  0  0
    3.4676    0.4209    1.0901 H   0  0  0  0  0  0  0  0  0  0  0  0
    5.1599   -0.3613   -0.7632 H   0  0  0  0  0  0  0  0  0  0  0  0
    5.6599    0.0069    0.8215 H   0  0  0  0  0  0  0  0  0  0  0  0
    5.7280   -3.3342   -1.5808 H   0  0  0  0  0  0  0  0  0  0  0  0
    7.4022   -3.2265   -1.1442 H   0  0  0  0  0  0  0  0  0  0  0  0
    6.6085   -1.8569   -1.8911 H   0  0  0  0  0  0  0  0  0  0  0  0
    7.3235   -0.9372    1.2723 H   0  0  0  0  0  0  0  0  0  0  0  0
    6.9517   -3.2003    1.9511 H   0  0  0  0  0  0  0  0  0  0  0  0
    5.1088   -1.6571    2.3256 H   0  0  0  0  0  0  0  0  0  0  0  0
    4.8343   -1.9148    3.9855 H   0  0  0  0  0  0  0  0  0  0  0  0
  1  2  1  0
  1 35  1  0
  1 36  1  0
  1 37  1  0
  2 26  1  0
  2  3  2  3
  3  4  1  0
  3 38  1  0
  4 12  1  0
  4  5  1  0
  4 39  1  1
  5  6  1  0
  6 14  1  0
  6 16  1  0
  6  7  1  1
  7  8  2  0
  7  9  1  0
  9 10  1  0
  9 11  1  0
  9 40  1  6
 10 41  1  0
 10 42  1  0
 10 43  1  0
 11 12  1  0
 11 44  1  0
 11 45  1  0
 12 13  1  1
 12 14  1  0
 13 46  1  0
 13 47  1  0
 13 48  1  0
 14 15  1  1
 14 16  1  0
 15 49  1  0
 16 17  1  0
 16 50  1  1
 17 18  1  0
 17 19  1  0
 17 51  1  1
 18 52  1  0
 19 32  1  0
 19 20  1  6
 19 21  1  0
 20 53  1  0
 21 22  1  0
 21 54  1  0
 21 55  1  0
 22 23  1  0
 22 24  1  0
 22 56  1  6
 23 57  1  0
 23 58  1  0
 23 59  1  0
 24 33  1  0
 24 25  1  1
 24 26  1  0
 25 60  1  0
 26 27  1  0
 26 61  1  6
 27 28  1  0
 27 62  1  0
 27 63  1  0
 28 29  1  0
 28 64  1  0
 28 65  1  0
 29 30  1  0
 29 31  1  1
 29 32  1  0
 30 66  1  0
 30 67  1  0
 30 68  1  0
 31 69  1  0
 32 33  1  0
 32 70  1  1
 33 34  1  0
 33 71  1  6
 34 72  1  0
M  END
>  <i_m_ct_stereo_status>  (42) 
1

>  <s_m_source_file>  (42) 
/var/tmp/pbs.5076255.sched01/tmp9stzsw2m/06nqgg2pe.sdf

>  <i_m_source_file_index>  (42) 
22

>  <i_lp_mmshare_version>  (42) 
48012

>  <i_f3d_flags>  (42) 
0

>  <s_epik_input>  (42) 
Tz1DMVtDQEBIXShbQ0gzXSlbQ0gyXVtDQEBdKFtDSDNdKShbQ0BdMihbQ0BAXTEzNClbT0hdKVtDQEhdKE8zKVxbQ0hdPUMoXFtDSDNdKVtDQEBIXTVbQ0BAXTYoW09IXSlbQ0BIXShbQ0gzXSlbQ0gyXVtDQF0oW09IXSkoW0NAQEhdKFtDQEBIXTI0KVtPSF0pW0NASF0oW0NASF02W09IXSlbQ0BdKFtDSDNdKShbT0hdKVtDSDJdW0NIMl01

>  <s_epik_cmdline>  (42) 
J2VwaWtfcHl0aG9uJywgJy1waHQnLCAnMi4wJywgJy1waCcsICc3LjAnLCAnLXRuJywgJzgnLCAnLW1hJywgJzIwMCcsICctaW1hZScsICc8aW5maWxlLm1hZT4nLCAnLW9tYWUnLCAnPG91dGZpbGUubWFlPic=

>  <r_lp_tautomer_probability>  (42) 
1

>  <r_epik_Ionization_Penalty>  (42) 
1.63335e-06

>  <r_epik_Ionization_Penalty_Charging>  (42) 
0

>  <r_epik_Ionization_Penalty_Neutral>  (42) 
1.63335e-06

>  <r_epik_State_Penalty>  (42) 
-0

>  <r_epik_Charging_Adjusted_Penalty>  (42) 
0

>  <i_epik_Tot_Q>  (42) 
0

>  <i_epik_Tot_abs_Q>  (42) 
0

>  <s_lp_Force_Field>  (42) 
OPLS3e

>  <r_lp_Energy>  (42) 
321.268

>  <b_lp_Chiralities_Consistent>  (42) 
1

>  <s_lp_Variant>  (42) 
14:0-1

>  <s_i_glide_gridfile>  (42) 
pfpi4k_grid

>  <i_i_glide_lignum>  (42) 
22

>  <i_i_glide_rotatable_bonds>  (42) 
6

>  <r_i_docking_score>  (42) 
-1.41323

>  <r_i_glide_ligand_efficiency>  (42) 
-0.0415656

>  <r_i_glide_ligand_efficiency_sa>  (42) 
-0.134657

>  <r_i_glide_ligand_efficiency_ln>  (42) 
-0.312223

>  <r_i_glide_gscore>  (42) 
-1.41323

>  <r_i_glide_lipo>  (42) 
-0.403958

>  <r_i_glide_hbond>  (42) 
-0.0606126

>  <r_i_glide_metal>  (42) 
-0

>  <r_i_glide_rewards>  (42) 
-0.146079

>  <r_i_glide_evdw>  (42) 
-26.0272

>  <r_i_glide_ecoul>  (42) 
-4.62936

>  <r_i_glide_erotb>  (42) 
0

>  <r_i_glide_esite>  (42) 
-0.00529219

>  <r_i_glide_emodel>  (42) 
-26.1997

>  <r_i_glide_energy>  (42) 
-30.6565

>  <r_i_glide_einternal>  (42) 
1.05108

>  <r_i_glide_intrahb_reward>  (42) 
-0

>  <i_i_glide_confnum>  (42) 
1

>  <i_i_glide_posenum>  (42) 
1

>  <r_i_glide_eff_state_penalty>  (42) 
0

>  <ligand_id>  (42) 
14

>  <original_smiles>  (42) 
CC1=CC2OC34C(=O)C(C)CC2(C)C3(O)C4C(O)C2(O)CC(C)C3(O)C1CCC(C)(O)C2C3O

>  <smiles>  (42) 
[H]OC1([H])C2([H])C34OC([H])(C([H])=C(C([H])([H])[H])C5([H])C([H])([H])C([H])([H])C(O[H])(C([H])([H])[H])C6([H])C([H])(O[H])C5(O[H])C([H])(C([H])([H])[H])C([H])([H])C16O[H])C(C([H])([H])[H])(C([H])([H])C([H])(C([H])([H])[H])C3=O)C42O[H]

$$$$
14:0:2
     RDKit          3D

 72 77  0  0  1  0  0  0  0  0999 V2000
    3.4153   -0.0094    3.8769 C   0  0  0  0  0  0  0  0  0  0  0  0
    2.7493   -1.3006    3.4197 C   0  0  0  0  0  0  0  0  0  0  0  0
    2.3316   -2.1628    4.4278 C   0  0  0  0  0  0  0  0  0  0  0  0
    3.1890   -3.4036    4.8830 C   0  0  2  0  0  0  0  0  0  0  0  0
    3.5611   -4.1948    3.8398 O   0  0  0  0  0  0  0  0  0  0  0  0
    3.2917   -5.5638    3.8528 C   0  0  2  0  0  0  0  0  0  0  0  0
    1.8634   -6.0682    3.6571 C   0  0  0  0  0  0  0  0  0  0  0  0
    1.5565   -6.9408    2.8229 O   0  0  0  0  0  0  0  0  0  0  0  0
    0.8282   -5.4464    4.6027 C   0  0  1  0  0  0  0  0  0  0  0  0
   -0.3874   -6.3667    4.8539 C   0  0  0  0  0  0  0  0  0  0  0  0
    1.5062   -4.9971    5.9294 C   0  0  0  0  0  0  0  0  0  0  0  0
    3.0297   -4.6257    5.8223 C   0  0  2  0  0  0  0  0  0  0  0  0
    3.5406   -4.3309    7.2577 C   0  0  0  0  0  0  0  0  0  0  0  0
    3.9377   -5.7995    5.1462 C   0  0  1  0  0  0  0  0  0  0  0  0
    3.7474   -7.0401    5.8323 O   0  0  0  0  0  0  0  0  0  0  0  0
    4.5345   -6.1941    3.6228 C   0  0  2  0  0  0  0  0  0  0  0  0
    5.7277   -5.4780    2.8147 C   0  0  1  0  0  0  0  0  0  0  0  0
    6.7085   -6.5017    2.8058 O   0  0  0  0  0  0  0  0  0  0  0  0
    5.6492   -4.7431    1.3070 C   0  0  1  0  0  0  0  0  0  0  0  0
    6.6729   -5.2989    0.4970 O   0  0  0  0  0  0  0  0  0  0  0  0
    4.3341   -4.9474    0.4749 C   0  0  0  0  0  0  0  0  0  0  0  0
    3.5377   -3.6365    0.1568 C   0  0  1  0  0  0  0  0  0  0  0  0
    2.2725   -3.9236   -0.6983 C   0  0  0  0  0  0  0  0  0  0  0  0
    3.4247   -2.9084    1.5487 C   0  0  2  0  0  0  0  0  0  0  0  0
    2.2635   -3.6490    1.9270 O   0  0  0  0  0  0  0  0  0  0  0  0
    2.8620   -1.5448    1.7978 C   0  0  2  0  0  0  0  0  0  0  0  0
    3.6272   -0.5999    0.7623 C   0  0  0  0  0  0  0  0  0  0  0  0
    5.1543   -0.7646    0.2227 C   0  0  0  0  0  0  0  0  0  0  0  0
    6.1481   -2.0762    0.2235 C   0  0  1  0  0  0  0  0  0  0  0  0
    6.4727   -2.6595   -1.1773 C   0  0  0  0  0  0  0  0  0  0  0  0
    7.3996   -1.4317    0.4733 O   0  0  0  0  0  0  0  0  0  0  0  0
    6.0169   -3.1922    1.3875 C   0  0  1  0  0  0  0  0  0  0  0  0
    4.9224   -2.6877    2.2236 C   0  0  2  0  0  0  0  0  0  0  0  0
    5.4163   -2.5041    3.5373 O   0  0  0  0  0  0  0  0  0  0  0  0
    4.3768    0.1182    3.3927 H   0  0  0  0  0  0  0  0  0  0  0  0
    3.6425   -0.0992    4.9423 H   0  0  0  0  0  0  0  0  0  0  0  0
    2.7768    0.8561    3.7021 H   0  0  0  0  0  0  0  0  0  0  0  0
    2.3590   -1.7934    5.4075 H   0  0  0  0  0  0  0  0  0  0  0  0
    4.0387   -2.8760    5.3544 H   0  0  0  0  0  0  0  0  0  0  0  0
    0.4671   -4.5489    4.0988 H   0  0  0  0  0  0  0  0  0  0  0  0
   -0.9357   -6.5627    3.9330 H   0  0  0  0  0  0  0  0  0  0  0  0
   -1.0903   -5.9234    5.5572 H   0  0  0  0  0  0  0  0  0  0  0  0
   -0.0920   -7.3340    5.2604 H   0  0  0  0  0  0  0  0  0  0  0  0
    0.9462   -4.1489    6.3352 H   0  0  0  0  0  0  0  0  0  0  0  0
    1.3874   -5.7956    6.6669 H   0  0  0  0  0  0  0  0  0  0  0  0
    3.3902   -5.1860    7.9258 H   0  0  0  0  0  0  0  0  0  0  0  0
    3.0248   -3.4790    7.7026 H   0  0  0  0  0  0  0  0  0  0  0  0
    4.6080   -4.1088    7.2622 H   0  0  0  0  0  0  0  0  0  0  0  0
    2.8446   -7.2890    5.6538 H   0  0  0  0  0  0  0  0  0  0  0  0
    4.4156   -7.2346    3.3186 H   0  0  0  0  0  0  0  0  0  0  0  0
    6.1652   -4.7679    3.5150 H   0  0  0  0  0  0  0  0  0  0  0  0
    7.5457   -6.1191    2.5818 H   0  0  0  0  0  0  0  0  0  0  0  0
    7.4924   -5.2141    0.9623 H   0  0  0  0  0  0  0  0  0  0  0  0
    4.5447   -5.4364   -0.4728 H   0  0  0  0  0  0  0  0  0  0  0  0
    3.6863   -5.6480    1.0054 H   0  0  0  0  0  0  0  0  0  0  0  0
    4.0518   -2.9719   -0.5141 H   0  0  0  0  0  0  0  0  0  0  0  0
    1.6597   -4.7256   -0.2822 H   0  0  0  0  0  0  0  0  0  0  0  0
    2.5885   -4.2424   -1.6893 H   0  0  0  0  0  0  0  0  0  0  0  0
    1.6550   -3.0402   -0.8334 H   0  0  0  0  0  0  0  0  0  0  0  0
    1.5238   -3.2950    1.4489 H   0  0  0  0  0  0  0  0  0  0  0  0
    1.8295   -1.4666    1.4670 H   0  0  0  0  0  0  0  0  0  0  0  0
    3.0394   -0.6681   -0.1575 H   0  0  0  0  0  0  0  0  0  0  0  0
    3.4814    0.4389    1.0531 H   0  0  0  0  0  0  0  0  0  0  0  0
    5.1683   -0.3625   -0.7958 H   0  0  0  0  0  0  0  0  0  0  0  0
    5.6693    0.0205    0.7853 H   0  0  0  0  0  0  0  0  0  0  0  0
    5.7277   -3.3377   -1.5886 H   0  0  0  0  0  0  0  0  0  0  0  0
    7.4007   -3.2344   -1.1586 H   0  0  0  0  0  0  0  0  0  0  0  0
    6.6105   -1.8667   -1.9110 H   0  0  0  0  0  0  0  0  0  0  0  0
    7.3363   -0.9152    1.2643 H   0  0  0  0  0  0  0  0  0  0  0  0
    6.9524   -3.1779    1.9463 H   0  0  0  0  0  0  0  0  0  0  0  0
    5.1096   -1.6312    2.3031 H   0  0  0  0  0  0  0  0  0  0  0  0
    6.2190   -2.0091    3.4923 H   0  0  0  0  0  0  0  0  0  0  0  0
  1  2  1  0
  1 35  1  0
  1 36  1  0
  1 37  1  0
  2 26  1  0
  2  3  2  3
  3  4  1  0
  3 38  1  0
  4 12  1  0
  4  5  1  0
  4 39  1  1
  5  6  1  0
  6 14  1  0
  6 16  1  0
  6  7  1  1
  7  8  2  0
  7  9  1  0
  9 10  1  0
  9 11  1  0
  9 40  1  6
 10 41  1  0
 10 42  1  0
 10 43  1  0
 11 12  1  0
 11 44  1  0
 11 45  1  0
 12 13  1  1
 12 14  1  0
 13 46  1  0
 13 47  1  0
 13 48  1  0
 14 15  1  1
 14 16  1  0
 15 49  1  0
 16 17  1  0
 16 50  1  1
 17 18  1  0
 17 19  1  0
 17 51  1  1
 18 52  1  0
 19 32  1  0
 19 20  1  6
 19 21  1  0
 20 53  1  0
 21 22  1  0
 21 54  1  0
 21 55  1  0
 22 23  1  0
 22 24  1  0
 22 56  1  6
 23 57  1  0
 23 58  1  0
 23 59  1  0
 24 33  1  0
 24 25  1  1
 24 26  1  0
 25 60  1  0
 26 27  1  0
 26 61  1  6
 27 28  1  0
 27 62  1  0
 27 63  1  0
 28 29  1  0
 28 64  1  0
 28 65  1  0
 29 30  1  0
 29 31  1  1
 29 32  1  0
 30 66  1  0
 30 67  1  0
 30 68  1  0
 31 69  1  0
 32 33  1  0
 32 70  1  1
 33 34  1  0
 33 71  1  6
 34 72  1  0
M  END
>  <i_m_ct_stereo_status>  (43) 
1

>  <s_m_source_file>  (43) 
/var/tmp/pbs.5076255.sched01/tmp9stzsw2m/06nqgg2pe.sdf

>  <i_m_source_file_index>  (43) 
22

>  <i_lp_mmshare_version>  (43) 
48012

>  <i_f3d_flags>  (43) 
0

>  <s_epik_input>  (43) 
Tz1DMVtDQEBIXShbQ0gzXSlbQ0gyXVtDQEBdKFtDSDNdKShbQ0BdMihbQ0BAXTEzNClbT0hdKVtDQEhdKE8zKVxbQ0hdPUMoXFtDSDNdKVtDQEBIXTVbQ0BAXTYoW09IXSlbQ0BIXShbQ0gzXSlbQ0gyXVtDQF0oW09IXSkoW0NAQEhdKFtDQEBIXTI0KVtPSF0pW0NASF0oW0NASF02W09IXSlbQ0BdKFtDSDNdKShbT0hdKVtDSDJdW0NIMl01

>  <s_epik_cmdline>  (43) 
J2VwaWtfcHl0aG9uJywgJy1waHQnLCAnMi4wJywgJy1waCcsICc3LjAnLCAnLXRuJywgJzgnLCAnLW1hJywgJzIwMCcsICctaW1hZScsICc8aW5maWxlLm1hZT4nLCAnLW9tYWUnLCAnPG91dGZpbGUubWFlPic=

>  <r_lp_tautomer_probability>  (43) 
1

>  <r_epik_Ionization_Penalty>  (43) 
1.63335e-06

>  <r_epik_Ionization_Penalty_Charging>  (43) 
0

>  <r_epik_Ionization_Penalty_Neutral>  (43) 
1.63335e-06

>  <r_epik_State_Penalty>  (43) 
-0

>  <r_epik_Charging_Adjusted_Penalty>  (43) 
0

>  <i_epik_Tot_Q>  (43) 
0

>  <i_epik_Tot_abs_Q>  (43) 
0

>  <s_lp_Force_Field>  (43) 
OPLS3e

>  <r_lp_Energy>  (43) 
321.268

>  <b_lp_Chiralities_Consistent>  (43) 
1

>  <s_lp_Variant>  (43) 
14:0-1

>  <s_i_glide_gridfile>  (43) 
pfpi4k_grid

>  <i_i_glide_lignum>  (43) 
22

>  <i_i_glide_rotatable_bonds>  (43) 
6

>  <r_i_docking_score>  (43) 
-1.22104

>  <r_i_glide_ligand_efficiency>  (43) 
-0.0359129

>  <r_i_glide_ligand_efficiency_sa>  (43) 
-0.116344

>  <r_i_glide_ligand_efficiency_ln>  (43) 
-0.269761

>  <r_i_glide_gscore>  (43) 
-1.22104

>  <r_i_glide_lipo>  (43) 
-0.393186

>  <r_i_glide_hbond>  (43) 
-0.0757848

>  <r_i_glide_metal>  (43) 
-0

>  <r_i_glide_rewards>  (43) 
-0.146079

>  <r_i_glide_evdw>  (43) 
-25.8473

>  <r_i_glide_ecoul>  (43) 
-4.59863

>  <r_i_glide_erotb>  (43) 
0

>  <r_i_glide_esite>  (43) 
-0.00515088

>  <r_i_glide_emodel>  (43) 
-25.2505

>  <r_i_glide_energy>  (43) 
-30.446

>  <r_i_glide_einternal>  (43) 
1.03078

>  <r_i_glide_intrahb_reward>  (43) 
-0

>  <i_i_glide_confnum>  (43) 
1

>  <i_i_glide_posenum>  (43) 
10

>  <r_i_glide_eff_state_penalty>  (43) 
0

>  <ligand_id>  (43) 
14

>  <original_smiles>  (43) 
CC1=CC2OC34C(=O)C(C)CC2(C)C3(O)C4C(O)C2(O)CC(C)C3(O)C1CCC(C)(O)C2C3O

>  <smiles>  (43) 
[H]OC1([H])C2([H])C34OC([H])(C([H])=C(C([H])([H])[H])C5([H])C([H])([H])C([H])([H])C(O[H])(C([H])([H])[H])C6([H])C([H])(O[H])C5(O[H])C([H])(C([H])([H])[H])C([H])([H])C16O[H])C(C([H])([H])[H])(C([H])([H])C([H])(C([H])([H])[H])C3=O)C42O[H]

$$$$
15:0:0
     RDKit          3D

 79 85  0  0  1  0  0  0  0  0999 V2000
    0.9255    1.4585    2.2015 C   0  0  0  0  0  0  0  0  0  0  0  0
    1.5703    0.9077    3.2519 C   0  0  0  0  0  0  0  0  0  0  0  0
    3.0503    0.6342    3.2689 C   0  0  0  0  0  0  0  0  0  0  0  0
    3.1843   -0.7365    3.9706 C   0  0  1  0  0  0  0  0  0  0  0  0
    3.1212   -1.9131    2.9209 C   0  0  0  0  0  0  0  0  0  0  0  0
    4.3547   -1.9570    1.9872 C   0  0  0  0  0  0  0  0  0  0  0  0
    1.8659   -1.9908    2.0275 C   0  0  0  0  0  0  0  0  0  0  0  0
    4.4849   -0.8662    4.7952 C   0  0  0  0  0  0  0  0  0  0  0  0
    4.2054   -0.4152    6.2320 C   0  0  0  0  0  0  0  0  0  0  0  0
    2.7634    0.0745    6.2375 C   0  0  0  0  0  0  0  0  0  0  0  0
    2.0414   -0.6438    5.0585 C   0  0  1  0  0  0  0  0  0  0  0  0
    0.9351    0.3186    4.4894 C   0  0  2  0  0  0  0  0  0  0  0  0
   -0.5141   -0.2426    4.2751 C   0  0  0  0  0  0  0  0  0  0  0  0
   -1.0220   -1.3081    5.2940 C   0  0  0  0  0  0  0  0  0  0  0  0
    0.0810   -1.7390    6.2212 C   0  0  1  0  0  0  0  0  0  0  0  0
    0.2898   -3.1192    6.8413 C   0  0  1  0  0  0  0  0  0  0  0  0
   -0.3320   -4.3280    6.1922 C   0  0  0  0  0  0  0  0  0  0  0  0
    0.5254   -5.5696    6.4386 C   0  0  0  0  0  0  0  0  0  0  0  0
    1.9943   -5.4607    5.9331 C   0  0  2  0  0  0  0  0  0  0  0  0
    2.1211   -5.7364    4.1014 S   0  0  0  0  0  0  0  0  0  0  0  0
    1.0325   -5.0001    3.4135 O   0  0  0  0  0  0  0  0  0  0  0  0
    3.5124   -5.4768    3.6768 O   0  0  0  0  0  0  0  0  0  0  0  0
    1.7778   -7.4695    3.8225 C   0  0  0  0  0  0  0  0  0  0  0  0
    0.4430   -7.9393    3.8222 C   0  0  0  0  0  0  0  0  0  0  0  0
    0.1843   -9.3202    3.6499 C   0  0  0  0  0  0  0  0  0  0  0  0
    1.2545  -10.2263    3.4489 C   0  0  0  0  0  0  0  0  0  0  0  0
    0.9644  -11.6904    3.2543 C   0  0  0  0  0  0  0  0  0  0  0  0
    2.5883   -9.7475    3.4276 C   0  0  0  0  0  0  0  0  0  0  0  0
    2.8547   -8.3689    3.6228 C   0  0  0  0  0  0  0  0  0  0  0  0
    2.8403   -6.5393    6.6545 C   0  0  0  0  0  0  0  0  0  0  0  0
    3.3568   -5.8839    7.9300 C   0  0  0  0  0  0  0  0  0  0  0  0
    3.6721   -4.4569    7.5095 C   0  0  0  0  0  0  0  0  0  0  0  0
    2.7167   -4.1151    6.3510 C   0  0  2  0  0  0  0  0  0  0  0  0
    1.8116   -2.9170    6.6388 C   0  0  1  0  0  0  0  0  0  0  0  0
    1.4050   -1.9383    5.5046 C   0  0  2  0  0  0  0  0  0  0  0  0
   -0.1486    1.5801    2.1793 H   0  0  0  0  0  0  0  0  0  0  0  0
    1.4807    1.7882    1.3334 H   0  0  0  0  0  0  0  0  0  0  0  0
    3.5020    0.7059    2.2864 H   0  0  0  0  0  0  0  0  0  0  0  0
    3.5062    1.4188    3.8820 H   0  0  0  0  0  0  0  0  0  0  0  0
    3.1458   -2.8462    3.4813 H   0  0  0  0  0  0  0  0  0  0  0  0
    4.4179   -1.0819    1.3395 H   0  0  0  0  0  0  0  0  0  0  0  0
    4.3062   -2.8238    1.3267 H   0  0  0  0  0  0  0  0  0  0  0  0
    5.2946   -2.0344    2.5328 H   0  0  0  0  0  0  0  0  0  0  0  0
    1.8001   -1.1497    1.3366 H   0  0  0  0  0  0  0  0  0  0  0  0
    0.9430   -2.0422    2.5942 H   0  0  0  0  0  0  0  0  0  0  0  0
    1.8972   -2.8948    1.4197 H   0  0  0  0  0  0  0  0  0  0  0  0
    4.8249   -1.9022    4.8306 H   0  0  0  0  0  0  0  0  0  0  0  0
    5.2968   -0.2859    4.3529 H   0  0  0  0  0  0  0  0  0  0  0  0
    4.3251   -1.2583    6.9150 H   0  0  0  0  0  0  0  0  0  0  0  0
    4.8882    0.3698    6.5562 H   0  0  0  0  0  0  0  0  0  0  0  0
    2.2879   -0.0797    7.2053 H   0  0  0  0  0  0  0  0  0  0  0  0
    2.7875    1.1535    6.0832 H   0  0  0  0  0  0  0  0  0  0  0  0
    0.8112    1.1652    5.1700 H   0  0  0  0  0  0  0  0  0  0  0  0
   -1.2168    0.5878    4.2821 H   0  0  0  0  0  0  0  0  0  0  0  0
   -0.5923   -0.6572    3.2788 H   0  0  0  0  0  0  0  0  0  0  0  0
   -1.8893   -0.9452    5.8420 H   0  0  0  0  0  0  0  0  0  0  0  0
   -1.3861   -2.1670    4.7204 H   0  0  0  0  0  0  0  0  0  0  0  0
    0.2376   -0.9868    7.0159 H   0  0  0  0  0  0  0  0  0  0  0  0
    0.0893   -3.0853    7.9206 H   0  0  0  0  0  0  0  0  0  0  0  0
   -1.3486   -4.4885    6.5607 H   0  0  0  0  0  0  0  0  0  0  0  0
   -0.4390   -4.1596    5.1194 H   0  0  0  0  0  0  0  0  0  0  0  0
    0.5030   -5.7952    7.5010 H   0  0  0  0  0  0  0  0  0  0  0  0
    0.0331   -6.4133    5.9615 H   0  0  0  0  0  0  0  0  0  0  0  0
   -0.3765   -7.2633    3.9568 H   0  0  0  0  0  0  0  0  0  0  0  0
   -0.8275   -9.6867    3.6762 H   0  0  0  0  0  0  0  0  0  0  0  0
    1.8654  -12.2412    2.9711 H   0  0  0  0  0  0  0  0  0  0  0  0
    0.2317  -11.8191    2.4658 H   0  0  0  0  0  0  0  0  0  0  0  0
    0.5762  -12.1280    4.1758 H   0  0  0  0  0  0  0  0  0  0  0  0
    3.4019  -10.4318    3.2650 H   0  0  0  0  0  0  0  0  0  0  0  0
    3.8648   -8.0151    3.6090 H   0  0  0  0  0  0  0  0  0  0  0  0
    2.2795   -7.4535    6.8560 H   0  0  0  0  0  0  0  0  0  0  0  0
    3.7013   -6.8161    6.0394 H   0  0  0  0  0  0  0  0  0  0  0  0
    2.5720   -5.8755    8.6917 H   0  0  0  0  0  0  0  0  0  0  0  0
    4.2185   -6.4024    8.3506 H   0  0  0  0  0  0  0  0  0  0  0  0
    3.6176   -3.7696    8.3505 H   0  0  0  0  0  0  0  0  0  0  0  0
    4.6991   -4.4225    7.1428 H   0  0  0  0  0  0  0  0  0  0  0  0
    3.3744   -3.8277    5.5300 H   0  0  0  0  0  0  0  0  0  0  0  0
    2.1886   -2.3076    7.4763 H   0  0  0  0  0  0  0  0  0  0  0  0
    1.1923   -2.5948    4.6424 H   0  0  0  0  0  0  0  0  0  0  0  0
  1  2  2  0
  1 36  1  0
  1 37  1  0
  2 12  1  0
  2  3  1  0
  3  4  1  0
  3 38  1  0
  3 39  1  0
  4 11  1  0
  4  5  1  6
  4  8  1  0
  5  6  1  0
  5  7  1  0
  5 40  1  0
  6 41  1  0
  6 42  1  0
  6 43  1  0
  7 44  1  0
  7 45  1  0
  7 46  1  0
  8  9  1  0
  8 47  1  0
  8 48  1  0
  9 10  1  0
  9 49  1  0
  9 50  1  0
 11 10  1  1
 10 51  1  0
 10 52  1  0
 11 35  1  0
 11 12  1  0
 12 13  1  0
 12 53  1  1
 13 14  1  0
 13 54  1  0
 13 55  1  0
 14 15  1  0
 14 56  1  0
 14 57  1  0
 15 35  1  0
 15 16  1  0
 15 58  1  1
 16 34  1  0
 16 17  1  0
 16 59  1  1
 17 18  1  0
 17 60  1  0
 17 61  1  0
 18 19  1  0
 18 62  1  0
 18 63  1  0
 19 33  1  0
 19 20  1  6
 19 30  1  0
 20 21  2  0
 20 22  2  0
 20 23  1  0
 23 29  1  0
 23 24  2  0
 24 25  1  0
 24 64  1  0
 25 26  2  0
 25 65  1  0
 26 27  1  0
 26 28  1  0
 27 66  1  0
 27 67  1  0
 27 68  1  0
 28 29  2  0
 28 69  1  0
 29 70  1  0
 30 31  1  0
 30 71  1  0
 30 72  1  0
 31 32  1  0
 31 73  1  0
 31 74  1  0
 32 33  1  0
 32 75  1  0
 32 76  1  0
 33 34  1  0
 33 77  1  6
 34 35  1  0
 34 78  1  1
 35 79  1  6
M  END
>  <i_m_ct_stereo_status>  (44) 
1

>  <s_m_source_file>  (44) 
/var/tmp/pbs.5076255.sched01/tmp9stzsw2m/06nqgg2pe.sdf

>  <i_m_source_file_index>  (44) 
23

>  <i_lp_mmshare_version>  (44) 
48012

>  <i_f3d_flags>  (44) 
0

>  <s_epik_input>  (44) 
W0NIMl0xW0NIMl1bQ0gyXVtDQF0oW0NAQF0xMjMpKFtDSF0oW0NIM10pW0NIM10pW0NIMl1DKD1bQ0gyXSlbQ0BIXTJbQ0gyXVtDSDJdW0NASF00W0NAQEhdNVtDQEhdKFtDQEhdMzQpW0NAQEhdNltDQF0oW0NIMl1bQ0gyXTUpKFtDSDJdW0NIMl1bQ0gyXTYpUyg9TykoPU8pYzdbY0hdW2NIXWMoW0NIM10pW2NIXVtjSF03

>  <s_epik_cmdline>  (44) 
J2VwaWtfcHl0aG9uJywgJy1waHQnLCAnMi4wJywgJy1waCcsICc3LjAnLCAnLXRuJywgJzgnLCAnLW1hJywgJzIwMCcsICctaW1hZScsICc8aW5maWxlLm1hZT4nLCAnLW9tYWUnLCAnPG91dGZpbGUubWFlPic=

>  <r_lp_tautomer_probability>  (44) 
1

>  <r_epik_Ionization_Penalty>  (44) 
0

>  <r_epik_Ionization_Penalty_Charging>  (44) 
0

>  <r_epik_Ionization_Penalty_Neutral>  (44) 
0

>  <r_epik_State_Penalty>  (44) 
-0

>  <r_epik_Charging_Adjusted_Penalty>  (44) 
0

>  <i_epik_Tot_Q>  (44) 
0

>  <i_epik_Tot_abs_Q>  (44) 
0

>  <s_lp_Force_Field>  (44) 
OPLS3e

>  <r_lp_Energy>  (44) 
84.6574

>  <b_lp_Chiralities_Consistent>  (44) 
1

>  <s_lp_Variant>  (44) 
15:0-1

>  <s_i_glide_gridfile>  (44) 
pfpi4k_grid

>  <i_i_glide_lignum>  (44) 
23

>  <i_i_glide_rotatable_bonds>  (44) 
3

>  <r_i_docking_score>  (44) 
-1.22343

>  <r_i_glide_ligand_efficiency>  (44) 
-0.0349551

>  <r_i_glide_ligand_efficiency_sa>  (44) 
-0.114341

>  <r_i_glide_ligand_efficiency_ln>  (44) 
-0.26857

>  <r_i_glide_gscore>  (44) 
-1.22343

>  <r_i_glide_lipo>  (44) 
-0.210536

>  <r_i_glide_hbond>  (44) 
0

>  <r_i_glide_metal>  (44) 
-0

>  <r_i_glide_rewards>  (44) 
-0.0493871

>  <r_i_glide_evdw>  (44) 
-23.7989

>  <r_i_glide_ecoul>  (44) 
0.540734

>  <r_i_glide_erotb>  (44) 
0.16776

>  <r_i_glide_esite>  (44) 
-0.0224332

>  <r_i_glide_emodel>  (44) 
-24.4148

>  <r_i_glide_energy>  (44) 
-23.2581

>  <r_i_glide_einternal>  (44) 
0.709496

>  <r_i_glide_intrahb_reward>  (44) 
-0

>  <i_i_glide_confnum>  (44) 
4

>  <i_i_glide_posenum>  (44) 
8

>  <r_i_glide_eff_state_penalty>  (44) 
0

>  <ligand_id>  (44) 
15

>  <original_smiles>  (44) 
C=C1CC2(C(C)C)CCCC23C1CCC1C2CCC4(S(=O)(=O)c5ccc(C)cc5)CCCC4C2C13

>  <smiles>  (44) 
[H]C([H])=C1C([H])([H])C2(C([H])(C([H])([H])[H])C([H])([H])[H])C([H])([H])C([H])([H])C([H])([H])C23C1([H])C([H])([H])C([H])([H])C1([H])C2([H])C([H])([H])C([H])([H])C4(S(=O)(=O)c5c([H])c([H])c(C([H])([H])[H])c([H])c5[H])C([H])([H])C([H])([H])C([H])([H])C4([H])C2([H])C13[H]

$$$$
15:0:1
     RDKit          3D

 79 85  0  0  1  0  0  0  0  0999 V2000
    1.1445    3.0198    4.5222 C   0  0  0  0  0  0  0  0  0  0  0  0
    2.1471    2.1795    4.8278 C   0  0  0  0  0  0  0  0  0  0  0  0
    3.2842    1.8452    3.8945 C   0  0  0  0  0  0  0  0  0  0  0  0
    3.5196    0.3296    4.0913 C   0  0  1  0  0  0  0  0  0  0  0  0
    2.6256   -0.5139    3.1030 C   0  0  0  0  0  0  0  0  0  0  0  0
    3.0313   -0.3404    1.6195 C   0  0  0  0  0  0  0  0  0  0  0  0
    1.0961   -0.3173    3.1878 C   0  0  0  0  0  0  0  0  0  0  0  0
    5.0052   -0.0769    3.9011 C   0  0  0  0  0  0  0  0  0  0  0  0
    5.7103   -0.0067    5.2592 C   0  0  0  0  0  0  0  0  0  0  0  0
    4.6739    0.5252    6.2371 C   0  0  0  0  0  0  0  0  0  0  0  0
    3.2768    0.1870    5.6394 C   0  0  1  0  0  0  0  0  0  0  0  0
    2.2577    1.3114    6.0655 C   0  0  2  0  0  0  0  0  0  0  0  0
    0.8796    0.8800    6.6854 C   0  0  0  0  0  0  0  0  0  0  0  0
    0.8645   -0.3962    7.5791 C   0  0  0  0  0  0  0  0  0  0  0  0
    2.2092   -1.0966    7.5327 C   0  0  1  0  0  0  0  0  0  0  0  0
    2.4579   -2.6049    7.6305 C   0  0  1  0  0  0  0  0  0  0  0  0
    1.3382   -3.5662    7.2826 C   0  0  0  0  0  0  0  0  0  0  0  0
    1.9119   -4.8650    6.7115 C   0  0  0  0  0  0  0  0  0  0  0  0
    2.8157   -4.6906    5.4549 C   0  0  2  0  0  0  0  0  0  0  0  0
    1.7767   -4.4616    3.9072 S   0  0  0  0  0  0  0  0  0  0  0  0
    0.6683   -3.5400    4.2002 O   0  0  0  0  0  0  0  0  0  0  0  0
    2.6739   -4.1551    2.7812 O   0  0  0  0  0  0  0  0  0  0  0  0
    1.0280   -6.0573    3.5740 C   0  0  0  0  0  0  0  0  0  0  0  0
   -0.1094   -6.4757    4.2990 C   0  0  0  0  0  0  0  0  0  0  0  0
   -0.6704   -7.7436    4.0498 C   0  0  0  0  0  0  0  0  0  0  0  0
   -0.1134   -8.5795    3.0636 C   0  0  0  0  0  0  0  0  0  0  0  0
   -0.7235   -9.9366    2.8090 C   0  0  0  0  0  0  0  0  0  0  0  0
    1.0148   -8.1565    2.3323 C   0  0  0  0  0  0  0  0  0  0  0  0
    1.5900   -6.8962    2.5883 C   0  0  0  0  0  0  0  0  0  0  0  0
    3.6798   -5.9552    5.2800 C   0  0  0  0  0  0  0  0  0  0  0  0
    4.9577   -5.6869    6.0656 C   0  0  0  0  0  0  0  0  0  0  0  0
    5.2435   -4.2149    5.8104 C   0  0  0  0  0  0  0  0  0  0  0  0
    3.8777   -3.5373    5.5743 C   0  0  2  0  0  0  0  0  0  0  0  0
    3.5769   -2.4057    6.5795 C   0  0  1  0  0  0  0  0  0  0  0  0
    2.7641   -1.1752    6.1243 C   0  0  2  0  0  0  0  0  0  0  0  0
    0.3119    3.1843    5.1910 H   0  0  0  0  0  0  0  0  0  0  0  0
    1.1412    3.5392    3.5714 H   0  0  0  0  0  0  0  0  0  0  0  0
    3.0769    2.1578    2.8727 H   0  0  0  0  0  0  0  0  0  0  0  0
    4.1513    2.4150    4.2284 H   0  0  0  0  0  0  0  0  0  0  0  0
    2.8023   -1.5640    3.3330 H   0  0  0  0  0  0  0  0  0  0  0  0
    2.8595    0.6737    1.2578 H   0  0  0  0  0  0  0  0  0  0  0  0
    2.4417   -0.9953    0.9776 H   0  0  0  0  0  0  0  0  0  0  0  0
    4.0775   -0.5843    1.4359 H   0  0  0  0  0  0  0  0  0  0  0  0
    0.7927    0.6798    2.8674 H   0  0  0  0  0  0  0  0  0  0  0  0
    0.6977   -0.4940    4.1811 H   0  0  0  0  0  0  0  0  0  0  0  0
    0.5976   -1.0291    2.5301 H   0  0  0  0  0  0  0  0  0  0  0  0
    5.0816   -1.1064    3.5377 H   0  0  0  0  0  0  0  0  0  0  0  0
    5.5090    0.5460    3.1646 H   0  0  0  0  0  0  0  0  0  0  0  0
    6.0360   -1.0032    5.5620 H   0  0  0  0  0  0  0  0  0  0  0  0
    6.5922    0.6339    5.2287 H   0  0  0  0  0  0  0  0  0  0  0  0
    4.8310    0.1416    7.2445 H   0  0  0  0  0  0  0  0  0  0  0  0
    4.8157    1.6065    6.3066 H   0  0  0  0  0  0  0  0  0  0  0  0
    2.7243    1.9396    6.8231 H   0  0  0  0  0  0  0  0  0  0  0  0
    0.4975    1.7088    7.2766 H   0  0  0  0  0  0  0  0  0  0  0  0
    0.1410    0.7444    5.8955 H   0  0  0  0  0  0  0  0  0  0  0  0
    0.5867   -0.1567    8.6049 H   0  0  0  0  0  0  0  0  0  0  0  0
    0.0775   -1.0528    7.2065 H   0  0  0  0  0  0  0  0  0  0  0  0
    2.9243   -0.5957    8.1926 H   0  0  0  0  0  0  0  0  0  0  0  0
    2.9188   -2.8513    8.5881 H   0  0  0  0  0  0  0  0  0  0  0  0
    0.7271   -3.7754    8.1628 H   0  0  0  0  0  0  0  0  0  0  0  0
    0.6567   -3.1144    6.5619 H   0  0  0  0  0  0  0  0  0  0  0  0
    2.4701   -5.3649    7.5030 H   0  0  0  0  0  0  0  0  0  0  0  0
    1.0819   -5.5271    6.4906 H   0  0  0  0  0  0  0  0  0  0  0  0
   -0.5527   -5.8343    5.0432 H   0  0  0  0  0  0  0  0  0  0  0  0
   -1.5261   -8.0832    4.6167 H   0  0  0  0  0  0  0  0  0  0  0  0
   -0.2841  -10.4292    1.9454 H   0  0  0  0  0  0  0  0  0  0  0  0
   -1.7956   -9.8492    2.6435 H   0  0  0  0  0  0  0  0  0  0  0  0
   -0.5597  -10.5808    3.6699 H   0  0  0  0  0  0  0  0  0  0  0  0
    1.4437   -8.8002    1.5758 H   0  0  0  0  0  0  0  0  0  0  0  0
    2.4540   -6.5766    2.0254 H   0  0  0  0  0  0  0  0  0  0  0  0
    3.1745   -6.8651    5.6105 H   0  0  0  0  0  0  0  0  0  0  0  0
    3.9443   -6.0950    4.2292 H   0  0  0  0  0  0  0  0  0  0  0  0
    4.7843   -5.8488    7.1323 H   0  0  0  0  0  0  0  0  0  0  0  0
    5.7808   -6.3354    5.7617 H   0  0  0  0  0  0  0  0  0  0  0  0
    5.8250   -3.7749    6.6191 H   0  0  0  0  0  0  0  0  0  0  0  0
    5.8436   -4.1260    4.9053 H   0  0  0  0  0  0  0  0  0  0  0  0
    3.9763   -3.0656    4.5960 H   0  0  0  0  0  0  0  0  0  0  0  0
    4.4802   -2.0752    7.0979 H   0  0  0  0  0  0  0  0  0  0  0  0
    1.9809   -1.5517    5.4731 H   0  0  0  0  0  0  0  0  0  0  0  0
  1  2  2  0
  1 36  1  0
  1 37  1  0
  2 12  1  0
  2  3  1  0
  3  4  1  0
  3 38  1  0
  3 39  1  0
  4 11  1  0
  4  5  1  6
  4  8  1  0
  5  6  1  0
  5  7  1  0
  5 40  1  0
  6 41  1  0
  6 42  1  0
  6 43  1  0
  7 44  1  0
  7 45  1  0
  7 46  1  0
  8  9  1  0
  8 47  1  0
  8 48  1  0
  9 10  1  0
  9 49  1  0
  9 50  1  0
 11 10  1  1
 10 51  1  0
 10 52  1  0
 11 35  1  0
 11 12  1  0
 12 13  1  0
 12 53  1  1
 13 14  1  0
 13 54  1  0
 13 55  1  0
 14 15  1  0
 14 56  1  0
 14 57  1  0
 15 35  1  0
 15 16  1  0
 15 58  1  1
 16 34  1  0
 16 17  1  0
 16 59  1  1
 17 18  1  0
 17 60  1  0
 17 61  1  0
 18 19  1  0
 18 62  1  0
 18 63  1  0
 19 33  1  0
 19 20  1  6
 19 30  1  0
 20 21  2  0
 20 22  2  0
 20 23  1  0
 23 29  1  0
 23 24  2  0
 24 25  1  0
 24 64  1  0
 25 26  2  0
 25 65  1  0
 26 27  1  0
 26 28  1  0
 27 66  1  0
 27 67  1  0
 27 68  1  0
 28 29  2  0
 28 69  1  0
 29 70  1  0
 30 31  1  0
 30 71  1  0
 30 72  1  0
 31 32  1  0
 31 73  1  0
 31 74  1  0
 32 33  1  0
 32 75  1  0
 32 76  1  0
 33 34  1  0
 33 77  1  6
 34 35  1  0
 34 78  1  1
 35 79  1  6
M  END
>  <i_m_ct_stereo_status>  (45) 
1

>  <s_m_source_file>  (45) 
/var/tmp/pbs.5076255.sched01/tmp9stzsw2m/06nqgg2pe.sdf

>  <i_m_source_file_index>  (45) 
23

>  <i_lp_mmshare_version>  (45) 
48012

>  <i_f3d_flags>  (45) 
0

>  <s_epik_input>  (45) 
W0NIMl0xW0NIMl1bQ0gyXVtDQF0oW0NAQF0xMjMpKFtDSF0oW0NIM10pW0NIM10pW0NIMl1DKD1bQ0gyXSlbQ0BIXTJbQ0gyXVtDSDJdW0NASF00W0NAQEhdNVtDQEhdKFtDQEhdMzQpW0NAQEhdNltDQF0oW0NIMl1bQ0gyXTUpKFtDSDJdW0NIMl1bQ0gyXTYpUyg9TykoPU8pYzdbY0hdW2NIXWMoW0NIM10pW2NIXVtjSF03

>  <s_epik_cmdline>  (45) 
J2VwaWtfcHl0aG9uJywgJy1waHQnLCAnMi4wJywgJy1waCcsICc3LjAnLCAnLXRuJywgJzgnLCAnLW1hJywgJzIwMCcsICctaW1hZScsICc8aW5maWxlLm1hZT4nLCAnLW9tYWUnLCAnPG91dGZpbGUubWFlPic=

>  <r_lp_tautomer_probability>  (45) 
1

>  <r_epik_Ionization_Penalty>  (45) 
0

>  <r_epik_Ionization_Penalty_Charging>  (45) 
0

>  <r_epik_Ionization_Penalty_Neutral>  (45) 
0

>  <r_epik_State_Penalty>  (45) 
-0

>  <r_epik_Charging_Adjusted_Penalty>  (45) 
0

>  <i_epik_Tot_Q>  (45) 
0

>  <i_epik_Tot_abs_Q>  (45) 
0

>  <s_lp_Force_Field>  (45) 
OPLS3e

>  <r_lp_Energy>  (45) 
84.6574

>  <b_lp_Chiralities_Consistent>  (45) 
1

>  <s_lp_Variant>  (45) 
15:0-1

>  <s_i_glide_gridfile>  (45) 
pfpi4k_grid

>  <i_i_glide_lignum>  (45) 
23

>  <i_i_glide_rotatable_bonds>  (45) 
3

>  <r_i_docking_score>  (45) 
-0.914941

>  <r_i_glide_ligand_efficiency>  (45) 
-0.0261412

>  <r_i_glide_ligand_efficiency_sa>  (45) 
-0.0855095

>  <r_i_glide_ligand_efficiency_ln>  (45) 
-0.20085

>  <r_i_glide_gscore>  (45) 
-0.914941

>  <r_i_glide_lipo>  (45) 
-0.161201

>  <r_i_glide_hbond>  (45) 
0

>  <r_i_glide_metal>  (45) 
-0

>  <r_i_glide_rewards>  (45) 
-0.0493871

>  <r_i_glide_evdw>  (45) 
-22.1434

>  <r_i_glide_ecoul>  (45) 
1.59992

>  <r_i_glide_erotb>  (45) 
0.16776

>  <r_i_glide_esite>  (45) 
-0.0049318

>  <r_i_glide_emodel>  (45) 
-21.1696

>  <r_i_glide_energy>  (45) 
-20.5435

>  <r_i_glide_einternal>  (45) 
0.811823

>  <r_i_glide_intrahb_reward>  (45) 
-0

>  <i_i_glide_confnum>  (45) 
1

>  <i_i_glide_posenum>  (45) 
28

>  <r_i_glide_eff_state_penalty>  (45) 
0

>  <ligand_id>  (45) 
15

>  <original_smiles>  (45) 
C=C1CC2(C(C)C)CCCC23C1CCC1C2CCC4(S(=O)(=O)c5ccc(C)cc5)CCCC4C2C13

>  <smiles>  (45) 
[H]C([H])=C1C([H])([H])C2(C([H])(C([H])([H])[H])C([H])([H])[H])C([H])([H])C([H])([H])C([H])([H])C23C1([H])C([H])([H])C([H])([H])C1([H])C2([H])C([H])([H])C([H])([H])C4(S(=O)(=O)c5c([H])c([H])c(C([H])([H])[H])c([H])c5[H])C([H])([H])C([H])([H])C([H])([H])C4([H])C2([H])C13[H]

$$$$
15:0:2
     RDKit          3D

 79 85  0  0  1  0  0  0  0  0999 V2000
    2.4448   -8.6630    2.5717 C   0  0  0  0  0  0  0  0  0  0  0  0
    3.1776   -7.7660    3.2614 C   0  0  0  0  0  0  0  0  0  0  0  0
    3.1952   -7.6547    4.7665 C   0  0  0  0  0  0  0  0  0  0  0  0
    3.2231   -6.1351    5.0443 C   0  0  1  0  0  0  0  0  0  0  0  0
    1.7576   -5.5470    5.1382 C   0  0  0  0  0  0  0  0  0  0  0  0
    0.9664   -6.0751    6.3608 C   0  0  0  0  0  0  0  0  0  0  0  0
    0.8522   -5.7106    3.9008 C   0  0  0  0  0  0  0  0  0  0  0  0
    3.9936   -5.7900    6.3440 C   0  0  0  0  0  0  0  0  0  0  0  0
    5.4600   -5.5286    5.9937 C   0  0  0  0  0  0  0  0  0  0  0  0
    5.5906   -5.8199    4.5106 C   0  0  0  0  0  0  0  0  0  0  0  0
    4.1695   -5.6369    3.8926 C   0  0  1  0  0  0  0  0  0  0  0  0
    4.0057   -6.6416    2.6819 C   0  0  2  0  0  0  0  0  0  0  0  0
    3.4723   -6.0718    1.3090 C   0  0  0  0  0  0  0  0  0  0  0  0
    3.8857   -4.6243    0.9202 C   0  0  0  0  0  0  0  0  0  0  0  0
    4.6258   -3.9483    2.0744 C   0  0  1  0  0  0  0  0  0  0  0  0
    4.6008   -2.4634    2.4267 C   0  0  1  0  0  0  0  0  0  0  0  0
    3.4304   -1.6075    1.9548 C   0  0  0  0  0  0  0  0  0  0  0  0
    3.1881   -0.4515    2.9405 C   0  0  0  0  0  0  0  0  0  0  0  0
    2.8827   -0.9229    4.4069 C   0  0  2  0  0  0  0  0  0  0  0  0
    1.0789   -1.5130    4.5587 S   0  0  0  0  0  0  0  0  0  0  0  0
    0.8251   -2.5562    3.5555 O   0  0  0  0  0  0  0  0  0  0  0  0
    0.8408   -1.8345    5.9786 O   0  0  0  0  0  0  0  0  0  0  0  0
    0.0272   -0.1181    4.1298 C   0  0  0  0  0  0  0  0  0  0  0  0
   -0.7938    0.4723    5.1160 C   0  0  0  0  0  0  0  0  0  0  0  0
   -1.5987    1.5745    4.7835 C   0  0  0  0  0  0  0  0  0  0  0  0
   -1.5640    2.1097    3.4814 C   0  0  0  0  0  0  0  0  0  0  0  0
   -2.4306    3.2933    3.1235 C   0  0  0  0  0  0  0  0  0  0  0  0
   -0.7405    1.5070    2.4955 C   0  0  0  0  0  0  0  0  0  0  0  0
    0.0219    0.3698    2.8091 C   0  0  0  0  0  0  0  0  0  0  0  0
    3.0860    0.2600    5.3575 C   0  0  0  0  0  0  0  0  0  0  0  0
    4.5478    0.1841    5.7738 C   0  0  0  0  0  0  0  0  0  0  0  0
    4.8058   -1.3079    5.9312 C   0  0  0  0  0  0  0  0  0  0  0  0
    3.8506   -2.0284    4.9518 C   0  0  2  0  0  0  0  0  0  0  0  0
    4.5944   -2.8998    3.9053 C   0  0  1  0  0  0  0  0  0  0  0  0
    3.9470   -4.1960    3.4008 C   0  0  2  0  0  0  0  0  0  0  0  0
    2.4081   -8.6689    1.4970 H   0  0  0  0  0  0  0  0  0  0  0  0
    1.8454   -9.3836    3.0992 H   0  0  0  0  0  0  0  0  0  0  0  0
    2.3713   -8.2024    5.2308 H   0  0  0  0  0  0  0  0  0  0  0  0
    4.1119   -8.1270    5.1135 H   0  0  0  0  0  0  0  0  0  0  0  0
    1.8568   -4.4748    5.2997 H   0  0  0  0  0  0  0  0  0  0  0  0
    0.7673   -7.1447    6.2967 H   0  0  0  0  0  0  0  0  0  0  0  0
   -0.0059   -5.5881    6.4303 H   0  0  0  0  0  0  0  0  0  0  0  0
    1.4790   -5.8903    7.3044 H   0  0  0  0  0  0  0  0  0  0  0  0
    0.5988   -6.7543    3.7078 H   0  0  0  0  0  0  0  0  0  0  0  0
    1.2864   -5.2959    2.9961 H   0  0  0  0  0  0  0  0  0  0  0  0
   -0.0833   -5.1760    4.0634 H   0  0  0  0  0  0  0  0  0  0  0  0
    3.5943   -4.8809    6.8043 H   0  0  0  0  0  0  0  0  0  0  0  0
    3.8996   -6.5804    7.0903 H   0  0  0  0  0  0  0  0  0  0  0  0
    5.7155   -4.4896    6.2043 H   0  0  0  0  0  0  0  0  0  0  0  0
    6.1374   -6.1538    6.5740 H   0  0  0  0  0  0  0  0  0  0  0  0
    6.3555   -5.2098    4.0320 H   0  0  0  0  0  0  0  0  0  0  0  0
    5.9225   -6.8526    4.4029 H   0  0  0  0  0  0  0  0  0  0  0  0
    4.9752   -7.0614    2.4496 H   0  0  0  0  0  0  0  0  0  0  0  0
    3.8001   -6.7399    0.5153 H   0  0  0  0  0  0  0  0  0  0  0  0
    2.3821   -6.1279    1.2829 H   0  0  0  0  0  0  0  0  0  0  0  0
    4.4887   -4.6124    0.0105 H   0  0  0  0  0  0  0  0  0  0  0  0
    2.9794   -4.0707    0.6750 H   0  0  0  0  0  0  0  0  0  0  0  0
    5.6629   -4.2887    2.1015 H   0  0  0  0  0  0  0  0  0  0  0  0
    5.5463   -2.0070    2.1880 H   0  0  0  0  0  0  0  0  0  0  0  0
    3.6251   -1.2139    0.9582 H   0  0  0  0  0  0  0  0  0  0  0  0
    2.5284   -2.2048    1.8598 H   0  0  0  0  0  0  0  0  0  0  0  0
    4.1165    0.1553    2.9577 H   0  0  0  0  0  0  0  0  0  0  0  0
    2.3907    0.1806    2.5370 H   0  0  0  0  0  0  0  0  0  0  0  0
   -0.8213    0.0637    6.1150 H   0  0  0  0  0  0  0  0  0  0  0  0
   -2.2619    2.0056    5.5276 H   0  0  0  0  0  0  0  0  0  0  0  0
   -2.1853    3.6785    2.1317 H   0  0  0  0  0  0  0  0  0  0  0  0
   -2.2904    4.1006    3.8476 H   0  0  0  0  0  0  0  0  0  0  0  0
   -3.4827    2.9962    3.1183 H   0  0  0  0  0  0  0  0  0  0  0  0
   -0.6891    1.9209    1.4942 H   0  0  0  0  0  0  0  0  0  0  0  0
    0.6408   -0.1059    2.0466 H   0  0  0  0  0  0  0  0  0  0  0  0
    2.8315    1.2177    4.8981 H   0  0  0  0  0  0  0  0  0  0  0  0
    2.4658    0.1585    6.2501 H   0  0  0  0  0  0  0  0  0  0  0  0
    5.1856    0.5881    4.9842 H   0  0  0  0  0  0  0  0  0  0  0  0
    4.7581    0.7480    6.6844 H   0  0  0  0  0  0  0  0  0  0  0  0
    5.8666   -1.5456    5.7809 H   0  0  0  0  0  0  0  0  0  0  0  0
    4.5663   -1.6023    6.9530 H   0  0  0  0  0  0  0  0  0  0  0  0
    3.2771   -2.7088    5.5850 H   0  0  0  0  0  0  0  0  0  0  0  0
    5.6281   -3.0996    4.2100 H   0  0  0  0  0  0  0  0  0  0  0  0
    2.9017   -3.9907    3.2862 H   0  0  0  0  0  0  0  0  0  0  0  0
  1  2  2  0
  1 36  1  0
  1 37  1  0
  2 12  1  0
  2  3  1  0
  3  4  1  0
  3 38  1  0
  3 39  1  0
  4 11  1  0
  4  5  1  1
  4  8  1  0
  5  6  1  0
  5  7  1  0
  5 40  1  0
  6 41  1  0
  6 42  1  0
  6 43  1  0
  7 44  1  0
  7 45  1  0
  7 46  1  0
  8  9  1  0
  8 47  1  0
  8 48  1  0
  9 10  1  0
  9 49  1  0
  9 50  1  0
 11 10  1  1
 10 51  1  0
 10 52  1  0
 11 35  1  0
 11 12  1  0
 12 13  1  0
 12 53  1  6
 13 14  1  0
 13 54  1  0
 13 55  1  0
 14 15  1  0
 14 56  1  0
 14 57  1  0
 15 35  1  0
 15 16  1  0
 15 58  1  1
 16 34  1  0
 16 17  1  0
 16 59  1  1
 17 18  1  0
 17 60  1  0
 17 61  1  0
 18 19  1  0
 18 62  1  0
 18 63  1  0
 19 33  1  0
 19 20  1  6
 19 30  1  0
 20 21  2  0
 20 22  2  0
 20 23  1  0
 23 29  1  0
 23 24  2  0
 24 25  1  0
 24 64  1  0
 25 26  2  0
 25 65  1  0
 26 27  1  0
 26 28  1  0
 27 66  1  0
 27 67  1  0
 27 68  1  0
 28 29  2  0
 28 69  1  0
 29 70  1  0
 30 31  1  0
 30 71  1  0
 30 72  1  0
 31 32  1  0
 31 73  1  0
 31 74  1  0
 32 33  1  0
 32 75  1  0
 32 76  1  0
 33 34  1  0
 33 77  1  1
 34 35  1  0
 34 78  1  1
 35 79  1  6
M  END
>  <i_m_ct_stereo_status>  (46) 
1

>  <s_m_source_file>  (46) 
/var/tmp/pbs.5076255.sched01/tmp9stzsw2m/06nqgg2pe.sdf

>  <i_m_source_file_index>  (46) 
23

>  <i_lp_mmshare_version>  (46) 
48012

>  <i_f3d_flags>  (46) 
0

>  <s_epik_input>  (46) 
W0NIMl0xW0NIMl1bQ0gyXVtDQF0oW0NAQF0xMjMpKFtDSF0oW0NIM10pW0NIM10pW0NIMl1DKD1bQ0gyXSlbQ0BIXTJbQ0gyXVtDSDJdW0NASF00W0NAQEhdNVtDQEhdKFtDQEhdMzQpW0NAQEhdNltDQF0oW0NIMl1bQ0gyXTUpKFtDSDJdW0NIMl1bQ0gyXTYpUyg9TykoPU8pYzdbY0hdW2NIXWMoW0NIM10pW2NIXVtjSF03

>  <s_epik_cmdline>  (46) 
J2VwaWtfcHl0aG9uJywgJy1waHQnLCAnMi4wJywgJy1waCcsICc3LjAnLCAnLXRuJywgJzgnLCAnLW1hJywgJzIwMCcsICctaW1hZScsICc8aW5maWxlLm1hZT4nLCAnLW9tYWUnLCAnPG91dGZpbGUubWFlPic=

>  <r_lp_tautomer_probability>  (46) 
1

>  <r_epik_Ionization_Penalty>  (46) 
0

>  <r_epik_Ionization_Penalty_Charging>  (46) 
0

>  <r_epik_Ionization_Penalty_Neutral>  (46) 
0

>  <r_epik_State_Penalty>  (46) 
-0

>  <r_epik_Charging_Adjusted_Penalty>  (46) 
0

>  <i_epik_Tot_Q>  (46) 
0

>  <i_epik_Tot_abs_Q>  (46) 
0

>  <s_lp_Force_Field>  (46) 
OPLS3e

>  <r_lp_Energy>  (46) 
84.6574

>  <b_lp_Chiralities_Consistent>  (46) 
1

>  <s_lp_Variant>  (46) 
15:0-1

>  <s_i_glide_gridfile>  (46) 
pfpi4k_grid

>  <i_i_glide_lignum>  (46) 
23

>  <i_i_glide_rotatable_bonds>  (46) 
3

>  <r_i_docking_score>  (46) 
-0.894658

>  <r_i_glide_ligand_efficiency>  (46) 
-0.0255617

>  <r_i_glide_ligand_efficiency_sa>  (46) 
-0.0836139

>  <r_i_glide_ligand_efficiency_ln>  (46) 
-0.196397

>  <r_i_glide_gscore>  (46) 
-0.894658

>  <r_i_glide_lipo>  (46) 
-0.151616

>  <r_i_glide_hbond>  (46) 
0

>  <r_i_glide_metal>  (46) 
-0

>  <r_i_glide_rewards>  (46) 
-0.0493871

>  <r_i_glide_evdw>  (46) 
-22.6868

>  <r_i_glide_ecoul>  (46) 
1.86034

>  <r_i_glide_erotb>  (46) 
0.16776

>  <r_i_glide_esite>  (46) 
-0.0061264

>  <r_i_glide_emodel>  (46) 
-19.8012

>  <r_i_glide_energy>  (46) 
-20.8265

>  <r_i_glide_einternal>  (46) 
0.983546

>  <r_i_glide_intrahb_reward>  (46) 
-0

>  <i_i_glide_confnum>  (46) 
6

>  <i_i_glide_posenum>  (46) 
6

>  <r_i_glide_eff_state_penalty>  (46) 
0

>  <ligand_id>  (46) 
15

>  <original_smiles>  (46) 
C=C1CC2(C(C)C)CCCC23C1CCC1C2CCC4(S(=O)(=O)c5ccc(C)cc5)CCCC4C2C13

>  <smiles>  (46) 
[H]C([H])=C1C([H])([H])C2(C([H])(C([H])([H])[H])C([H])([H])[H])C([H])([H])C([H])([H])C([H])([H])C23C1([H])C([H])([H])C([H])([H])C1([H])C2([H])C([H])([H])C([H])([H])C4(S(=O)(=O)c5c([H])c([H])c(C([H])([H])[H])c([H])c5[H])C([H])([H])C([H])([H])C([H])([H])C4([H])C2([H])C13[H]

$$$$
16:0:0
     RDKit          3D

 77 82  0  0  1  0  0  0  0  0999 V2000
    3.5285   -2.4316   -1.2021 C   0  0  0  0  0  0  0  0  0  0  0  0
    4.6088   -3.1340   -0.3430 C   0  0  0  0  0  0  0  0  0  0  0  0
    5.7094   -3.4961   -1.3705 C   0  0  0  0  0  0  0  0  0  0  0  0
    5.1542   -2.0744    0.6318 C   0  0  0  0  0  0  0  0  0  0  0  0
    6.0933   -2.6727    1.6713 C   0  0  0  0  0  0  0  0  0  0  0  0
    5.3714   -3.7527    2.4782 C   0  0  0  0  0  0  0  0  0  0  0  0
    4.8921   -4.9909    1.6562 C   0  0  2  0  0  0  0  0  0  0  0  0
    6.0761   -5.7470    1.0165 C   0  0  0  0  0  0  0  0  0  0  0  0
    4.0333   -4.4017    0.4546 C   0  0  1  0  0  0  0  0  0  0  0  0
    2.6268   -4.1549    0.9924 C   0  0  0  0  0  0  0  0  0  0  0  0
    1.9175   -5.4574    1.3132 C   0  0  1  0  0  0  0  0  0  0  0  0
    1.3379   -5.8943    0.0995 O   0  0  0  0  0  0  0  0  0  0  0  0
    2.7242   -6.5776    2.0484 C   0  0  1  0  0  0  0  0  0  0  0  0
    3.3016   -7.5189    1.1517 O   0  0  0  0  0  0  0  0  0  0  0  0
    3.5830   -8.7106    1.8918 C   0  0  1  0  0  0  0  0  0  0  0  0
    4.7699   -8.4838    2.8484 C   0  0  1  0  0  0  0  0  0  0  0  0
    6.0482   -8.7258    2.2935 O   0  0  0  0  0  0  0  0  0  0  0  0
    6.9971   -8.0547    2.9418 C   0  0  0  0  0  0  0  0  0  0  0  0
    8.2110   -8.1419    2.7737 O   0  0  0  0  0  0  0  0  0  0  0  0
    6.3400   -7.1375    3.9692 C   0  0  1  0  0  0  0  0  0  0  0  0
    6.5030   -7.7709    5.3681 C   0  0  0  0  0  0  0  0  0  0  0  0
    7.0395   -5.9273    4.1074 O   0  0  0  0  0  0  0  0  0  0  0  0
    4.8498   -7.1006    3.5101 C   0  0  1  0  0  0  0  0  0  0  0  0
    4.0764   -5.9682    2.6701 C   0  0  1  0  0  0  0  0  0  0  0  0
    2.2424   -8.9528    2.6082 C   0  0  1  0  0  0  0  0  0  0  0  0
    2.0936  -10.0657    3.7209 C   0  0  0  0  0  0  0  0  0  0  0  0
    0.6655  -10.6772    3.7197 C   0  0  0  0  0  0  0  0  0  0  0  0
    3.0161  -11.2845    3.4716 C   0  0  0  0  0  0  0  0  0  0  0  0
    2.3732   -9.4789    5.1220 C   0  0  0  0  0  0  0  0  0  0  0  0
    1.4962   -8.2641    5.4391 C   0  0  0  0  0  0  0  0  0  0  0  0
    1.6514   -7.1167    4.4252 C   0  0  0  0  0  0  0  0  0  0  0  0
    1.7263   -7.5135    2.9124 C   0  0  1  0  0  0  0  0  0  0  0  0
    0.2387   -7.5129    2.4088 C   0  0  0  0  0  0  0  0  0  0  0  0
    3.9541   -1.6696   -1.8588 H   0  0  0  0  0  0  0  0  0  0  0  0
    2.8139   -1.8910   -0.5812 H   0  0  0  0  0  0  0  0  0  0  0  0
    2.9828   -3.1423   -1.8281 H   0  0  0  0  0  0  0  0  0  0  0  0
    6.7025   -3.5564   -0.9288 H   0  0  0  0  0  0  0  0  0  0  0  0
    5.8097   -2.7531   -2.1628 H   0  0  0  0  0  0  0  0  0  0  0  0
    5.4772   -4.4440   -1.8591 H   0  0  0  0  0  0  0  0  0  0  0  0
    5.6680   -1.2849    0.0839 H   0  0  0  0  0  0  0  0  0  0  0  0
    4.3281   -1.5869    1.1517 H   0  0  0  0  0  0  0  0  0  0  0  0
    6.9997   -3.0733    1.2195 H   0  0  0  0  0  0  0  0  0  0  0  0
    6.4099   -1.8758    2.3431 H   0  0  0  0  0  0  0  0  0  0  0  0
    5.9916   -4.0336    3.3122 H   0  0  0  0  0  0  0  0  0  0  0  0
    4.5183   -3.2725    2.9585 H   0  0  0  0  0  0  0  0  0  0  0  0
    5.7963   -6.7644    0.7592 H   0  0  0  0  0  0  0  0  0  0  0  0
    6.9566   -5.7423    1.6475 H   0  0  0  0  0  0  0  0  0  0  0  0
    6.4281   -5.3345    0.0885 H   0  0  0  0  0  0  0  0  0  0  0  0
    3.9363   -5.1942   -0.2918 H   0  0  0  0  0  0  0  0  0  0  0  0
    2.6480   -3.5219    1.8771 H   0  0  0  0  0  0  0  0  0  0  0  0
    1.9892   -3.6313    0.2853 H   0  0  0  0  0  0  0  0  0  0  0  0
    1.1239   -5.1311    1.9824 H   0  0  0  0  0  0  0  0  0  0  0  0
    2.0571   -6.0925   -0.4936 H   0  0  0  0  0  0  0  0  0  0  0  0
    3.7965   -9.5337    1.2080 H   0  0  0  0  0  0  0  0  0  0  0  0
    4.7235   -9.2167    3.6428 H   0  0  0  0  0  0  0  0  0  0  0  0
    6.0491   -8.7612    5.4357 H   0  0  0  0  0  0  0  0  0  0  0  0
    6.0421   -7.1394    6.1272 H   0  0  0  0  0  0  0  0  0  0  0  0
    7.5563   -7.8810    5.6354 H   0  0  0  0  0  0  0  0  0  0  0  0
    7.9384   -6.1408    4.3178 H   0  0  0  0  0  0  0  0  0  0  0  0
    4.3135   -7.1925    4.4428 H   0  0  0  0  0  0  0  0  0  0  0  0
    3.7190   -5.2857    3.4398 H   0  0  0  0  0  0  0  0  0  0  0  0
    1.6454   -9.3447    1.7816 H   0  0  0  0  0  0  0  0  0  0  0  0
    0.5943  -11.5072    4.4291 H   0  0  0  0  0  0  0  0  0  0  0  0
    0.3903  -11.0683    2.7364 H   0  0  0  0  0  0  0  0  0  0  0  0
   -0.1183   -9.9862    4.0215 H   0  0  0  0  0  0  0  0  0  0  0  0
    2.7946  -12.0887    4.1768 H   0  0  0  0  0  0  0  0  0  0  0  0
    4.0754  -11.0796    3.5853 H   0  0  0  0  0  0  0  0  0  0  0  0
    2.8700  -11.6976    2.4724 H   0  0  0  0  0  0  0  0  0  0  0  0
    2.2307  -10.2485    5.8837 H   0  0  0  0  0  0  0  0  0  0  0  0
    3.4110   -9.1799    5.2210 H   0  0  0  0  0  0  0  0  0  0  0  0
    0.4516   -8.5572    5.5194 H   0  0  0  0  0  0  0  0  0  0  0  0
    1.7551   -7.8975    6.4323 H   0  0  0  0  0  0  0  0  0  0  0  0
    0.8061   -6.4495    4.5785 H   0  0  0  0  0  0  0  0  0  0  0  0
    2.4665   -6.4832    4.7443 H   0  0  0  0  0  0  0  0  0  0  0  0
   -0.3749   -8.2323    2.9344 H   0  0  0  0  0  0  0  0  0  0  0  0
    0.1518   -7.7706    1.3553 H   0  0  0  0  0  0  0  0  0  0  0  0
   -0.2798   -6.5730    2.5591 H   0  0  0  0  0  0  0  0  0  0  0  0
  1  2  1  0
  1 34  1  0
  1 35  1  0
  1 36  1  0
  2  9  1  0
  2  3  1  0
  2  4  1  0
  3 37  1  0
  3 38  1  0
  3 39  1  0
  4  5  1  0
  4 40  1  0
  4 41  1  0
  5  6  1  0
  5 42  1  0
  5 43  1  0
  6  7  1  0
  6 44  1  0
  6 45  1  0
  7 24  1  0
  7  8  1  6
  7  9  1  0
  8 46  1  0
  8 47  1  0
  8 48  1  0
  9 10  1  0
  9 49  1  6
 10 11  1  0
 10 50  1  0
 10 51  1  0
 11 12  1  0
 11 13  1  0
 11 52  1  1
 12 53  1  0
 13 24  1  0
 13 32  1  0
 13 14  1  6
 14 15  1  0
 15 16  1  0
 15 25  1  0
 15 54  1  6
 16 23  1  0
 16 17  1  0
 16 55  1  1
 17 18  1  0
 18 19  2  0
 18 20  1  0
 20 21  1  0
 20 22  1  1
 20 23  1  0
 21 56  1  0
 21 57  1  0
 21 58  1  0
 22 59  1  0
 23 24  1  0
 23 60  1  1
 24 61  1  1
 25 32  1  0
 25 26  1  0
 25 62  1  6
 26 27  1  0
 26 28  1  0
 26 29  1  0
 27 63  1  0
 27 64  1  0
 27 65  1  0
 28 66  1  0
 28 67  1  0
 28 68  1  0
 29 30  1  0
 29 69  1  0
 29 70  1  0
 30 31  1  0
 30 71  1  0
 30 72  1  0
 31 32  1  0
 31 73  1  0
 31 74  1  0
 32 33  1  6
 33 75  1  0
 33 76  1  0
 33 77  1  0
M  END
>  <i_m_ct_stereo_status>  (47) 
1

>  <s_m_source_file>  (47) 
/var/tmp/pbs.5076255.sched01/tmp9stzsw2m/06nqgg2pe.sdf

>  <i_m_source_file_index>  (47) 
24

>  <i_lp_mmshare_version>  (47) 
48012

>  <i_f3d_flags>  (47) 
0

>  <s_epik_input>  (47) 
W0NIMl0xW0NIMl1bQ0gyXUMoW0NIM10pKFtDSDNdKVtDQEhdKFtDSDJdW0NASF0yW09IXSlbQ0BdMShbQ0gzXSlbQ0BASF0oW0NAQF0yMzQpW0NASF01W0NASF0oT0MoPU8pW0NAQF01KFtDSDNdKVtPSF0pW0NASF0oTzMpW0NAQEhdNltDQEBdNChbQ0gzXSlbQ0gyXVtDSDJdW0NIMl1DNihbQ0gzXSlbQ0gzXQ==

>  <s_epik_cmdline>  (47) 
J2VwaWtfcHl0aG9uJywgJy1waHQnLCAnMi4wJywgJy1waCcsICc3LjAnLCAnLXRuJywgJzgnLCAnLW1hJywgJzIwMCcsICctaW1hZScsICc8aW5maWxlLm1hZT4nLCAnLW9tYWUnLCAnPG91dGZpbGUubWFlPic=

>  <r_lp_tautomer_probability>  (47) 
1

>  <r_epik_Ionization_Penalty>  (47) 
3.64007e-07

>  <r_epik_Ionization_Penalty_Charging>  (47) 
0

>  <r_epik_Ionization_Penalty_Neutral>  (47) 
3.64007e-07

>  <r_epik_State_Penalty>  (47) 
-0

>  <r_epik_Charging_Adjusted_Penalty>  (47) 
0

>  <i_epik_Tot_Q>  (47) 
0

>  <i_epik_Tot_abs_Q>  (47) 
0

>  <s_epik_Chemistry_Notes>  (47) 
This compound has an ester and may undergo hydrolysis at high or low pH.

>  <s_lp_Force_Field>  (47) 
OPLS3e

>  <r_lp_Energy>  (47) 
124.133

>  <b_lp_Chiralities_Consistent>  (47) 
1

>  <s_lp_Variant>  (47) 
16:0-1

>  <s_i_glide_gridfile>  (47) 
pfpi4k_grid

>  <i_i_glide_lignum>  (47) 
24

>  <i_i_glide_rotatable_bonds>  (47) 
2

>  <r_i_docking_score>  (47) 
-3.08335

>  <r_i_glide_ligand_efficiency>  (47) 
-0.0934348

>  <r_i_glide_ligand_efficiency_sa>  (47) 
-0.299695

>  <r_i_glide_ligand_efficiency_ln>  (47) 
-0.685721

>  <r_i_glide_gscore>  (47) 
-3.08335

>  <r_i_glide_lipo>  (47) 
-0.424865

>  <r_i_glide_hbond>  (47) 
0

>  <r_i_glide_metal>  (47) 
-0

>  <r_i_glide_rewards>  (47) 
-0.319499

>  <r_i_glide_evdw>  (47) 
-31.169

>  <r_i_glide_ecoul>  (47) 
-5.20357

>  <r_i_glide_erotb>  (47) 
0

>  <r_i_glide_esite>  (47) 
0

>  <r_i_glide_emodel>  (47) 
-41.9477

>  <r_i_glide_energy>  (47) 
-36.3725

>  <r_i_glide_einternal>  (47) 
1.81128

>  <r_i_glide_intrahb_reward>  (47) 
-0

>  <i_i_glide_confnum>  (47) 
1

>  <i_i_glide_posenum>  (47) 
5

>  <r_i_glide_eff_state_penalty>  (47) 
0

>  <ligand_id>  (47) 
16

>  <original_smiles>  (47) 
CC1(C)CCCC2(C)C1CC(O)C13OC(C4OC(=O)C(C)(O)C4C21)C1C(C)(C)CCCC13C

>  <smiles>  (47) 
[H]OC1([H])C([H])([H])C2([H])C(C([H])([H])[H])(C([H])([H])[H])C([H])([H])C([H])([H])C([H])([H])C2(C([H])([H])[H])C2([H])C3([H])C([H])(OC(=O)C3(O[H])C([H])([H])[H])C3([H])OC12C1(C([H])([H])[H])C([H])([H])C([H])([H])C([H])([H])C(C([H])([H])[H])(C([H])([H])[H])C31[H]

$$$$
16:0:1
     RDKit          3D

 77 82  0  0  1  0  0  0  0  0999 V2000
    3.5274   -2.4298   -1.2009 C   0  0  0  0  0  0  0  0  0  0  0  0
    4.6075   -3.1331   -0.3426 C   0  0  0  0  0  0  0  0  0  0  0  0
    5.7088   -3.4949   -1.3715 C   0  0  0  0  0  0  0  0  0  0  0  0
    5.1539   -2.0735    0.6315 C   0  0  0  0  0  0  0  0  0  0  0  0
    6.0930   -2.6720    1.6700 C   0  0  0  0  0  0  0  0  0  0  0  0
    5.3697   -3.7496    2.4768 C   0  0  0  0  0  0  0  0  0  0  0  0
    4.8914   -4.9892    1.6543 C   0  0  2  0  0  0  0  0  0  0  0  0
    6.0752   -5.7468    1.0125 C   0  0  0  0  0  0  0  0  0  0  0  0
    4.0324   -4.4009    0.4542 C   0  0  1  0  0  0  0  0  0  0  0  0
    2.6240   -4.1554    0.9919 C   0  0  0  0  0  0  0  0  0  0  0  0
    1.9173   -5.4574    1.3130 C   0  0  1  0  0  0  0  0  0  0  0  0
    1.3377   -5.8939    0.0974 O   0  0  0  0  0  0  0  0  0  0  0  0
    2.7232   -6.5780    2.0470 C   0  0  1  0  0  0  0  0  0  0  0  0
    3.3017   -7.5182    1.1503 O   0  0  0  0  0  0  0  0  0  0  0  0
    3.5827   -8.7108    1.8900 C   0  0  1  0  0  0  0  0  0  0  0  0
    4.7704   -8.4851    2.8451 C   0  0  1  0  0  0  0  0  0  0  0  0
    6.0452   -8.7284    2.2873 O   0  0  0  0  0  0  0  0  0  0  0  0
    6.9985   -8.0614    2.9335 C   0  0  0  0  0  0  0  0  0  0  0  0
    8.2116   -8.1596    2.7616 O   0  0  0  0  0  0  0  0  0  0  0  0
    6.3430   -7.1385    3.9596 C   0  0  1  0  0  0  0  0  0  0  0  0
    6.5083   -7.7645    5.3610 C   0  0  0  0  0  0  0  0  0  0  0  0
    7.0440   -5.9265    4.0815 O   0  0  0  0  0  0  0  0  0  0  0  0
    4.8520   -7.1017    3.5062 C   0  0  1  0  0  0  0  0  0  0  0  0
    4.0769   -5.9684    2.6689 C   0  0  1  0  0  0  0  0  0  0  0  0
    2.2420   -8.9537    2.6057 C   0  0  1  0  0  0  0  0  0  0  0  0
    2.0944  -10.0675    3.7175 C   0  0  0  0  0  0  0  0  0  0  0  0
    0.6653  -10.6786    3.7169 C   0  0  0  0  0  0  0  0  0  0  0  0
    3.0162  -11.2868    3.4675 C   0  0  0  0  0  0  0  0  0  0  0  0
    2.3746   -9.4817    5.1189 C   0  0  0  0  0  0  0  0  0  0  0  0
    1.4972   -8.2677    5.4373 C   0  0  0  0  0  0  0  0  0  0  0  0
    1.6526   -7.1191    4.4249 C   0  0  0  0  0  0  0  0  0  0  0  0
    1.7262   -7.5149    2.9107 C   0  0  1  0  0  0  0  0  0  0  0  0
    0.2384   -7.5136    2.4082 C   0  0  0  0  0  0  0  0  0  0  0  0
    3.9523   -1.6669   -1.8563 H   0  0  0  0  0  0  0  0  0  0  0  0
    2.8135   -1.8897   -0.5780 H   0  0  0  0  0  0  0  0  0  0  0  0
    2.9803   -3.1392   -1.8264 H   0  0  0  0  0  0  0  0  0  0  0  0
    6.7020   -3.5552   -0.9292 H   0  0  0  0  0  0  0  0  0  0  0  0
    5.8088   -2.7516   -2.1631 H   0  0  0  0  0  0  0  0  0  0  0  0
    5.4772   -4.4428   -1.8595 H   0  0  0  0  0  0  0  0  0  0  0  0
    5.6680   -1.2833    0.0838 H   0  0  0  0  0  0  0  0  0  0  0  0
    4.3282   -1.5868    1.1528 H   0  0  0  0  0  0  0  0  0  0  0  0
    6.9991   -3.0740    1.2187 H   0  0  0  0  0  0  0  0  0  0  0  0
    6.4106   -1.8762    2.3416 H   0  0  0  0  0  0  0  0  0  0  0  0
    5.9918   -4.0245    3.3109 H   0  0  0  0  0  0  0  0  0  0  0  0
    4.5148   -3.2699    2.9557 H   0  0  0  0  0  0  0  0  0  0  0  0
    5.7956   -6.7645    0.7561 H   0  0  0  0  0  0  0  0  0  0  0  0
    6.9589   -5.7427    1.6394 H   0  0  0  0  0  0  0  0  0  0  0  0
    6.4264   -5.3342    0.0852 H   0  0  0  0  0  0  0  0  0  0  0  0
    3.9352   -5.1930   -0.2923 H   0  0  0  0  0  0  0  0  0  0  0  0
    2.6478   -3.5221    1.8775 H   0  0  0  0  0  0  0  0  0  0  0  0
    1.9887   -3.6309    0.2855 H   0  0  0  0  0  0  0  0  0  0  0  0
    1.1230   -5.1322    1.9801 H   0  0  0  0  0  0  0  0  0  0  0  0
    2.0564   -6.0914   -0.4942 H   0  0  0  0  0  0  0  0  0  0  0  0
    3.7965   -9.5323    1.2052 H   0  0  0  0  0  0  0  0  0  0  0  0
    4.7248   -9.2168    3.6392 H   0  0  0  0  0  0  0  0  0  0  0  0
    6.0582   -8.7568    5.4266 H   0  0  0  0  0  0  0  0  0  0  0  0
    6.0468   -7.1428    6.1263 H   0  0  0  0  0  0  0  0  0  0  0  0
    7.5624   -7.8738    5.6245 H   0  0  0  0  0  0  0  0  0  0  0  0
    6.6438   -5.4019    4.7583 H   0  0  0  0  0  0  0  0  0  0  0  0
    4.3156   -7.1963    4.4386 H   0  0  0  0  0  0  0  0  0  0  0  0
    3.7169   -5.2861    3.4389 H   0  0  0  0  0  0  0  0  0  0  0  0
    1.6451   -9.3454    1.7787 H   0  0  0  0  0  0  0  0  0  0  0  0
    0.5943  -11.5089    4.4260 H   0  0  0  0  0  0  0  0  0  0  0  0
    0.3892  -11.0687    2.7339 H   0  0  0  0  0  0  0  0  0  0  0  0
   -0.1178   -9.9875    4.0200 H   0  0  0  0  0  0  0  0  0  0  0  0
    2.7960  -12.0899    4.1748 H   0  0  0  0  0  0  0  0  0  0  0  0
    4.0756  -11.0815    3.5819 H   0  0  0  0  0  0  0  0  0  0  0  0
    2.8703  -11.7002    2.4703 H   0  0  0  0  0  0  0  0  0  0  0  0
    2.2330  -10.2516    5.8799 H   0  0  0  0  0  0  0  0  0  0  0  0
    3.4125   -9.1826    5.2164 H   0  0  0  0  0  0  0  0  0  0  0  0
    0.4532   -8.5609    5.5195 H   0  0  0  0  0  0  0  0  0  0  0  0
    1.7579   -7.9012    6.4306 H   0  0  0  0  0  0  0  0  0  0  0  0
    0.8071   -6.4511    4.5786 H   0  0  0  0  0  0  0  0  0  0  0  0
    2.4678   -6.4863    4.7434 H   0  0  0  0  0  0  0  0  0  0  0  0
   -0.3757   -8.2335    2.9336 H   0  0  0  0  0  0  0  0  0  0  0  0
    0.1506   -7.7707    1.3543 H   0  0  0  0  0  0  0  0  0  0  0  0
   -0.2803   -6.5737    2.5594 H   0  0  0  0  0  0  0  0  0  0  0  0
  1  2  1  0
  1 34  1  0
  1 35  1  0
  1 36  1  0
  2  9  1  0
  2  3  1  0
  2  4  1  0
  3 37  1  0
  3 38  1  0
  3 39  1  0
  4  5  1  0
  4 40  1  0
  4 41  1  0
  5  6  1  0
  5 42  1  0
  5 43  1  0
  6  7  1  0
  6 44  1  0
  6 45  1  0
  7 24  1  0
  7  8  1  6
  7  9  1  0
  8 46  1  0
  8 47  1  0
  8 48  1  0
  9 10  1  0
  9 49  1  6
 10 11  1  0
 10 50  1  0
 10 51  1  0
 11 12  1  0
 11 13  1  0
 11 52  1  1
 12 53  1  0
 13 24  1  0
 13 32  1  0
 13 14  1  6
 14 15  1  0
 15 16  1  0
 15 25  1  0
 15 54  1  6
 16 23  1  0
 16 17  1  0
 16 55  1  1
 17 18  1  0
 18 19  2  0
 18 20  1  0
 20 21  1  0
 20 22  1  1
 20 23  1  0
 21 56  1  0
 21 57  1  0
 21 58  1  0
 22 59  1  0
 23 24  1  0
 23 60  1  1
 24 61  1  1
 25 32  1  0
 25 26  1  0
 25 62  1  6
 26 27  1  0
 26 28  1  0
 26 29  1  0
 27 63  1  0
 27 64  1  0
 27 65  1  0
 28 66  1  0
 28 67  1  0
 28 68  1  0
 29 30  1  0
 29 69  1  0
 29 70  1  0
 30 31  1  0
 30 71  1  0
 30 72  1  0
 31 32  1  0
 31 73  1  0
 31 74  1  0
 32 33  1  6
 33 75  1  0
 33 76  1  0
 33 77  1  0
M  END
>  <i_m_ct_stereo_status>  (48) 
1

>  <s_m_source_file>  (48) 
/var/tmp/pbs.5076255.sched01/tmp9stzsw2m/06nqgg2pe.sdf

>  <i_m_source_file_index>  (48) 
24

>  <i_lp_mmshare_version>  (48) 
48012

>  <i_f3d_flags>  (48) 
0

>  <s_epik_input>  (48) 
W0NIMl0xW0NIMl1bQ0gyXUMoW0NIM10pKFtDSDNdKVtDQEhdKFtDSDJdW0NASF0yW09IXSlbQ0BdMShbQ0gzXSlbQ0BASF0oW0NAQF0yMzQpW0NASF01W0NASF0oT0MoPU8pW0NAQF01KFtDSDNdKVtPSF0pW0NASF0oTzMpW0NAQEhdNltDQEBdNChbQ0gzXSlbQ0gyXVtDSDJdW0NIMl1DNihbQ0gzXSlbQ0gzXQ==

>  <s_epik_cmdline>  (48) 
J2VwaWtfcHl0aG9uJywgJy1waHQnLCAnMi4wJywgJy1waCcsICc3LjAnLCAnLXRuJywgJzgnLCAnLW1hJywgJzIwMCcsICctaW1hZScsICc8aW5maWxlLm1hZT4nLCAnLW9tYWUnLCAnPG91dGZpbGUubWFlPic=

>  <r_lp_tautomer_probability>  (48) 
1

>  <r_epik_Ionization_Penalty>  (48) 
3.64007e-07

>  <r_epik_Ionization_Penalty_Charging>  (48) 
0

>  <r_epik_Ionization_Penalty_Neutral>  (48) 
3.64007e-07

>  <r_epik_State_Penalty>  (48) 
-0

>  <r_epik_Charging_Adjusted_Penalty>  (48) 
0

>  <i_epik_Tot_Q>  (48) 
0

>  <i_epik_Tot_abs_Q>  (48) 
0

>  <s_epik_Chemistry_Notes>  (48) 
This compound has an ester and may undergo hydrolysis at high or low pH.

>  <s_lp_Force_Field>  (48) 
OPLS3e

>  <r_lp_Energy>  (48) 
124.133

>  <b_lp_Chiralities_Consistent>  (48) 
1

>  <s_lp_Variant>  (48) 
16:0-1

>  <s_i_glide_gridfile>  (48) 
pfpi4k_grid

>  <i_i_glide_lignum>  (48) 
24

>  <i_i_glide_rotatable_bonds>  (48) 
2

>  <r_i_docking_score>  (48) 
-3.01783

>  <r_i_glide_ligand_efficiency>  (48) 
-0.0914495

>  <r_i_glide_ligand_efficiency_sa>  (48) 
-0.293327

>  <r_i_glide_ligand_efficiency_ln>  (48) 
-0.67115

>  <r_i_glide_gscore>  (48) 
-3.01783

>  <r_i_glide_lipo>  (48) 
-0.425399

>  <r_i_glide_hbond>  (48) 
0

>  <r_i_glide_metal>  (48) 
-0

>  <r_i_glide_rewards>  (48) 
-0.320444

>  <r_i_glide_evdw>  (48) 
-31.1405

>  <r_i_glide_ecoul>  (48) 
-4.76643

>  <r_i_glide_erotb>  (48) 
0

>  <r_i_glide_esite>  (48) 
0

>  <r_i_glide_emodel>  (48) 
-42.3001

>  <r_i_glide_energy>  (48) 
-35.9069

>  <r_i_glide_einternal>  (48) 
0.0973843

>  <r_i_glide_intrahb_reward>  (48) 
-0

>  <i_i_glide_confnum>  (48) 
1

>  <i_i_glide_posenum>  (48) 
38

>  <r_i_glide_eff_state_penalty>  (48) 
0

>  <ligand_id>  (48) 
16

>  <original_smiles>  (48) 
CC1(C)CCCC2(C)C1CC(O)C13OC(C4OC(=O)C(C)(O)C4C21)C1C(C)(C)CCCC13C

>  <smiles>  (48) 
[H]OC1([H])C([H])([H])C2([H])C(C([H])([H])[H])(C([H])([H])[H])C([H])([H])C([H])([H])C([H])([H])C2(C([H])([H])[H])C2([H])C3([H])C([H])(OC(=O)C3(O[H])C([H])([H])[H])C3([H])OC12C1(C([H])([H])[H])C([H])([H])C([H])([H])C([H])([H])C(C([H])([H])[H])(C([H])([H])[H])C31[H]

$$$$
17:0:0
     RDKit          3D

 27 31  0  0  1  0  0  0  0  0999 V2000
    2.9454   -0.3045   -3.3018 C   0  0  0  0  0  0  0  0  0  0  0  0
    3.6509   -1.4078   -2.5262 C   0  0  1  0  0  0  0  0  0  0  0  0
    4.2568   -0.8100   -1.2380 C   0  0  0  0  0  0  0  0  0  0  0  0
    5.3299   -1.6661   -0.5136 C   0  0  0  0  0  0  0  0  0  0  0  0
    5.8912   -1.1787    0.4652 O   0  0  0  0  0  0  0  0  0  0  0  0
    5.6349   -3.0347   -1.1026 C   0  0  1  0  0  0  0  0  0  0  0  0
    4.4628   -4.0555   -1.1537 C   0  0  1  0  0  0  0  0  0  0  0  0
    3.0166   -3.5434   -1.0494 C   0  0  0  0  0  0  0  0  0  0  0  0
    2.8255   -2.7258   -2.3432 C   0  0  2  0  0  0  0  0  0  0  0  0
    3.7126   -3.3766   -3.3881 C   0  0  2  0  0  0  0  0  0  0  0  0
    4.7377   -4.2063   -2.6478 C   0  0  1  0  0  0  0  0  0  0  0  0
    5.7005   -3.0320   -2.6316 C   0  0  1  0  0  0  0  0  0  0  0  0
    4.6546   -2.1969   -3.3725 C   0  0  2  0  0  0  0  0  0  0  0  0
    3.6233    0.5019   -3.5822 H   0  0  0  0  0  0  0  0  0  0  0  0
    2.1539    0.1437   -2.7226 H   0  0  0  0  0  0  0  0  0  0  0  0
    2.4953   -0.6989   -4.2197 H   0  0  0  0  0  0  0  0  0  0  0  0
    4.7228    0.1471   -1.4762 H   0  0  0  0  0  0  0  0  0  0  0  0
    3.4673   -0.6127   -0.5127 H   0  0  0  0  0  0  0  0  0  0  0  0
    6.5321   -3.5044   -0.6876 H   0  0  0  0  0  0  0  0  0  0  0  0
    4.6963   -4.9671   -0.5900 H   0  0  0  0  0  0  0  0  0  0  0  0
    2.3222   -4.3890   -1.0385 H   0  0  0  0  0  0  0  0  0  0  0  0
    2.8220   -2.9625   -0.1437 H   0  0  0  0  0  0  0  0  0  0  0  0
    1.7902   -2.6263   -2.6803 H   0  0  0  0  0  0  0  0  0  0  0  0
    3.3236   -3.7061   -4.3481 H   0  0  0  0  0  0  0  0  0  0  0  0
    5.0127   -5.1622   -3.0799 H   0  0  0  0  0  0  0  0  0  0  0  0
    6.6566   -3.2065   -3.1182 H   0  0  0  0  0  0  0  0  0  0  0  0
    4.9225   -1.7872   -4.3407 H   0  0  0  0  0  0  0  0  0  0  0  0
  2  1  1  6
  1 14  1  0
  1 15  1  0
  1 16  1  0
  2  9  1  0
  2 13  1  0
  2  3  1  0
  3  4  1  0
  3 17  1  0
  3 18  1  0
  4  5  2  0
  4  6  1  0
  6 12  1  0
  6  7  1  0
  6 19  1  1
  7 11  1  0
  7  8  1  0
  7 20  1  1
  8  9  1  0
  8 21  1  0
  8 22  1  0
  9 10  1  0
  9 23  1  6
 10 13  1  0
 10 11  1  0
 10 24  1  6
 11 12  1  0
 11 25  1  6
 12 13  1  0
 12 26  1  1
 13 27  1  6
M  END
>  <i_m_ct_stereo_status>  (49) 
1

>  <s_m_source_file>  (49) 
/var/tmp/pbs.5076255.sched01/tmp9stzsw2m/06nqgg2pe.sdf

>  <i_m_source_file_index>  (49) 
25

>  <i_lp_mmshare_version>  (49) 
48012

>  <i_f3d_flags>  (49) 
0

>  <s_epik_input>  (49) 
W0NIM11bQ0BdMTJbQ0BIXTNbQ0BASF00W0NAQEhdNVtDQEhdKFtDSDJdMylbQ0BIXShDKD1PKVtDSDJdMSlbQ0BASF01W0NASF0yNA==

>  <s_epik_cmdline>  (49) 
J2VwaWtfcHl0aG9uJywgJy1waHQnLCAnMi4wJywgJy1waCcsICc3LjAnLCAnLXRuJywgJzgnLCAnLW1hJywgJzIwMCcsICctaW1hZScsICc8aW5maWxlLm1hZT4nLCAnLW9tYWUnLCAnPG91dGZpbGUubWFlPic=

>  <r_lp_tautomer_probability>  (49) 
1

>  <r_epik_Ionization_Penalty>  (49) 
4.57823e-14

>  <r_epik_Ionization_Penalty_Charging>  (49) 
0

>  <r_epik_Ionization_Penalty_Neutral>  (49) 
4.57823e-14

>  <r_epik_State_Penalty>  (49) 
-0

>  <r_epik_Charging_Adjusted_Penalty>  (49) 
0

>  <i_epik_Tot_Q>  (49) 
0

>  <i_epik_Tot_abs_Q>  (49) 
0

>  <s_lp_Force_Field>  (49) 
OPLS3e

>  <r_lp_Energy>  (49) 
50.0481

>  <b_lp_Chiralities_Consistent>  (49) 
1

>  <s_lp_Variant>  (49) 
17:0-1

>  <s_i_glide_gridfile>  (49) 
pfpi4k_grid

>  <i_i_glide_lignum>  (49) 
25

>  <i_i_glide_rotatable_bonds>  (49) 
0

>  <r_i_docking_score>  (49) 
-3.61078

>  <r_i_glide_ligand_efficiency>  (49) 
-0.277752

>  <r_i_glide_ligand_efficiency_sa>  (49) 
-0.653088

>  <r_i_glide_ligand_efficiency_ln>  (49) 
-1.01286

>  <r_i_glide_gscore>  (49) 
-3.61078

>  <r_i_glide_lipo>  (49) 
-0.572397

>  <r_i_glide_hbond>  (49) 
0

>  <r_i_glide_metal>  (49) 
-0

>  <r_i_glide_rewards>  (49) 
-2.2211

>  <r_i_glide_evdw>  (49) 
-15.0463

>  <r_i_glide_ecoul>  (49) 
-0.252458

>  <r_i_glide_erotb>  (49) 
0

>  <r_i_glide_esite>  (49) 
-0.0271012

>  <r_i_glide_emodel>  (49) 
-18.5415

>  <r_i_glide_energy>  (49) 
-15.2987

>  <r_i_glide_einternal>  (49) 
0

>  <r_i_glide_intrahb_reward>  (49) 
-0

>  <i_i_glide_confnum>  (49) 
1

>  <i_i_glide_posenum>  (49) 
14

>  <r_i_glide_eff_state_penalty>  (49) 
0

>  <ligand_id>  (49) 
17

>  <original_smiles>  (49) 
CC12CC(=O)C3C4CC1C1C4C3C12

>  <smiles>  (49) 
[H]C([H])([H])C12C([H])([H])C(=O)C3([H])C4([H])C([H])([H])C1([H])C1([H])C4([H])C3([H])C12[H]

$$$$
17:0:1
     RDKit          3D

 27 31  0  0  1  0  0  0  0  0999 V2000
    2.6309   -3.0540   -3.3248 C   0  0  0  0  0  0  0  0  0  0  0  0
    3.3763   -2.8374   -2.0016 C   0  0  1  0  0  0  0  0  0  0  0  0
    2.7298   -3.7420   -0.9202 C   0  0  0  0  0  0  0  0  0  0  0  0
    3.1197   -3.4547    0.5395 C   0  0  0  0  0  0  0  0  0  0  0  0
    2.6158   -4.1785    1.4200 O   0  0  0  0  0  0  0  0  0  0  0  0
    4.0849   -2.3214    0.8018 C   0  0  1  0  0  0  0  0  0  0  0  0
    5.5147   -2.4556    0.2015 C   0  0  1  0  0  0  0  0  0  0  0  0
    5.7413   -3.4595   -0.9501 C   0  0  0  0  0  0  0  0  0  0  0  0
    4.9338   -2.8646   -2.1170 C   0  0  2  0  0  0  0  0  0  0  0  0
    4.9410   -1.3484   -1.9137 C   0  0  2  0  0  0  0  0  0  0  0  0
    5.2941   -1.0936   -0.4632 C   0  0  1  0  0  0  0  0  0  0  0  0
    3.8215   -1.1063   -0.0910 C   0  0  1  0  0  0  0  0  0  0  0  0
    3.4716   -1.3795   -1.5592 C   0  0  2  0  0  0  0  0  0  0  0  0
    1.5623   -2.8405   -3.2338 H   0  0  0  0  0  0  0  0  0  0  0  0
    2.7335   -4.0778   -3.6869 H   0  0  0  0  0  0  0  0  0  0  0  0
    3.0240   -2.4016   -4.1041 H   0  0  0  0  0  0  0  0  0  0  0  0
    1.6397   -3.7033   -0.9988 H   0  0  0  0  0  0  0  0  0  0  0  0
    3.0122   -4.7677   -1.1067 H   0  0  0  0  0  0  0  0  0  0  0  0
    4.1376   -2.0066    1.8410 H   0  0  0  0  0  0  0  0  0  0  0  0
    6.2723   -2.4289    0.9742 H   0  0  0  0  0  0  0  0  0  0  0  0
    6.7973   -3.4852   -1.2095 H   0  0  0  0  0  0  0  0  0  0  0  0
    5.4573   -4.4821   -0.6979 H   0  0  0  0  0  0  0  0  0  0  0  0
    5.2579   -3.1625   -3.1118 H   0  0  0  0  0  0  0  0  0  0  0  0
    5.2163   -0.6661   -2.7102 H   0  0  0  0  0  0  0  0  0  0  0  0
    5.8666   -0.2222   -0.1559 H   0  0  0  0  0  0  0  0  0  0  0  0
    3.4557   -0.1961    0.3748 H   0  0  0  0  0  0  0  0  0  0  0  0
    2.8603   -0.6522   -2.0838 H   0  0  0  0  0  0  0  0  0  0  0  0
  2  1  1  6
  1 14  1  0
  1 15  1  0
  1 16  1  0
  2  9  1  0
  2 13  1  0
  2  3  1  0
  3  4  1  0
  3 17  1  0
  3 18  1  0
  4  5  2  0
  4  6  1  0
  6 12  1  0
  6  7  1  0
  6 19  1  1
  7 11  1  0
  7  8  1  0
  7 20  1  1
  8  9  1  0
  8 21  1  0
  8 22  1  0
  9 10  1  0
  9 23  1  6
 10 13  1  0
 10 11  1  0
 10 24  1  6
 11 12  1  0
 11 25  1  6
 12 13  1  0
 12 26  1  1
 13 27  1  6
M  END
>  <i_m_ct_stereo_status>  (50) 
1

>  <s_m_source_file>  (50) 
/var/tmp/pbs.5076255.sched01/tmp9stzsw2m/06nqgg2pe.sdf

>  <i_m_source_file_index>  (50) 
25

>  <i_lp_mmshare_version>  (50) 
48012

>  <i_f3d_flags>  (50) 
0

>  <s_epik_input>  (50) 
W0NIM11bQ0BdMTJbQ0BIXTNbQ0BASF00W0NAQEhdNVtDQEhdKFtDSDJdMylbQ0BIXShDKD1PKVtDSDJdMSlbQ0BASF01W0NASF0yNA==

>  <s_epik_cmdline>  (50) 
J2VwaWtfcHl0aG9uJywgJy1waHQnLCAnMi4wJywgJy1waCcsICc3LjAnLCAnLXRuJywgJzgnLCAnLW1hJywgJzIwMCcsICctaW1hZScsICc8aW5maWxlLm1hZT4nLCAnLW9tYWUnLCAnPG91dGZpbGUubWFlPic=

>  <r_lp_tautomer_probability>  (50) 
1

>  <r_epik_Ionization_Penalty>  (50) 
4.57823e-14

>  <r_epik_Ionization_Penalty_Charging>  (50) 
0

>  <r_epik_Ionization_Penalty_Neutral>  (50) 
4.57823e-14

>  <r_epik_State_Penalty>  (50) 
-0

>  <r_epik_Charging_Adjusted_Penalty>  (50) 
0

>  <i_epik_Tot_Q>  (50) 
0

>  <i_epik_Tot_abs_Q>  (50) 
0

>  <s_lp_Force_Field>  (50) 
OPLS3e

>  <r_lp_Energy>  (50) 
50.0481

>  <b_lp_Chiralities_Consistent>  (50) 
1

>  <s_lp_Variant>  (50) 
17:0-1

>  <s_i_glide_gridfile>  (50) 
pfpi4k_grid

>  <i_i_glide_lignum>  (50) 
25

>  <i_i_glide_rotatable_bonds>  (50) 
0

>  <r_i_docking_score>  (50) 
-3.36632

>  <r_i_glide_ligand_efficiency>  (50) 
-0.258948

>  <r_i_glide_ligand_efficiency_sa>  (50) 
-0.608873

>  <r_i_glide_ligand_efficiency_ln>  (50) 
-0.944283

>  <r_i_glide_gscore>  (50) 
-3.36632

>  <r_i_glide_lipo>  (50) 
-0.362184

>  <r_i_glide_hbond>  (50) 
0

>  <r_i_glide_metal>  (50) 
-0

>  <r_i_glide_rewards>  (50) 
-2.2211

>  <r_i_glide_evdw>  (50) 
-13.7924

>  <r_i_glide_ecoul>  (50) 
-0.562165

>  <r_i_glide_erotb>  (50) 
0

>  <r_i_glide_esite>  (50) 
-0.00909436

>  <r_i_glide_emodel>  (50) 
-17.4173

>  <r_i_glide_energy>  (50) 
-14.3545

>  <r_i_glide_einternal>  (50) 
0

>  <r_i_glide_intrahb_reward>  (50) 
-0

>  <i_i_glide_confnum>  (50) 
1

>  <i_i_glide_posenum>  (50) 
4

>  <r_i_glide_eff_state_penalty>  (50) 
0

>  <ligand_id>  (50) 
17

>  <original_smiles>  (50) 
CC12CC(=O)C3C4CC1C1C4C3C12

>  <smiles>  (50) 
[H]C([H])([H])C12C([H])([H])C(=O)C3([H])C4([H])C([H])([H])C1([H])C1([H])C4([H])C3([H])C12[H]

$$$$
17:0:2
     RDKit          3D

 27 31  0  0  1  0  0  0  0  0999 V2000
    3.2245   -2.4692   -2.5952 C   0  0  0  0  0  0  0  0  0  0  0  0
    4.1909   -2.4743   -1.4114 C   0  0  1  0  0  0  0  0  0  0  0  0
    3.3672   -2.3296   -0.1026 C   0  0  0  0  0  0  0  0  0  0  0  0
    4.1676   -1.9875    1.1825 C   0  0  0  0  0  0  0  0  0  0  0  0
    3.5418   -1.8284    2.2301 O   0  0  0  0  0  0  0  0  0  0  0  0
    5.6745   -1.8632    1.0478 C   0  0  1  0  0  0  0  0  0  0  0  0
    6.4581   -3.1329    0.5934 C   0  0  1  0  0  0  0  0  0  0  0  0
    5.6810   -4.2619   -0.1047 C   0  0  0  0  0  0  0  0  0  0  0  0
    5.2444   -3.6329   -1.4385 C   0  0  2  0  0  0  0  0  0  0  0  0
    6.3160   -2.6051   -1.7964 C   0  0  2  0  0  0  0  0  0  0  0  0
    7.0760   -2.2824   -0.5230 C   0  0  1  0  0  0  0  0  0  0  0  0
    6.1124   -1.1412   -0.2280 C   0  0  1  0  0  0  0  0  0  0  0  0
    5.3519   -1.4683   -1.5206 C   0  0  2  0  0  0  0  0  0  0  0  0
    2.6398   -1.5470   -2.6373 H   0  0  0  0  0  0  0  0  0  0  0  0
    2.5263   -3.3065   -2.5501 H   0  0  0  0  0  0  0  0  0  0  0  0
    3.7653   -2.5514   -3.5421 H   0  0  0  0  0  0  0  0  0  0  0  0
    2.6225   -1.5410   -0.2198 H   0  0  0  0  0  0  0  0  0  0  0  0
    2.8077   -3.2477    0.0868 H   0  0  0  0  0  0  0  0  0  0  0  0
    6.1520   -1.4097    1.9179 H   0  0  0  0  0  0  0  0  0  0  0  0
    7.1838   -3.4520    1.3412 H   0  0  0  0  0  0  0  0  0  0  0  0
    6.3449   -5.1076   -0.2904 H   0  0  0  0  0  0  0  0  0  0  0  0
    4.8472   -4.6438    0.4856 H   0  0  0  0  0  0  0  0  0  0  0  0
    5.0444   -4.3497   -2.2398 H   0  0  0  0  0  0  0  0  0  0  0  0
    6.8163   -2.6472   -2.7610 H   0  0  0  0  0  0  0  0  0  0  0  0
    8.1449   -2.0694   -0.5400 H   0  0  0  0  0  0  0  0  0  0  0  0
    6.5509   -0.1502   -0.1117 H   0  0  0  0  0  0  0  0  0  0  0  0
    5.2978   -0.6885   -2.2881 H   0  0  0  0  0  0  0  0  0  0  0  0
  2  1  1  6
  1 14  1  0
  1 15  1  0
  1 16  1  0
  2  9  1  0
  2 13  1  0
  2  3  1  0
  3  4  1  0
  3 17  1  0
  3 18  1  0
  4  5  2  0
  4  6  1  0
  6 12  1  0
  6  7  1  0
  6 19  1  1
  7 11  1  0
  7  8  1  0
  7 20  1  1
  8  9  1  0
  8 21  1  0
  8 22  1  0
  9 10  1  0
  9 23  1  6
 10 13  1  0
 10 11  1  0
 10 24  1  6
 11 12  1  0
 11 25  1  6
 12 13  1  0
 12 26  1  1
 13 27  1  6
M  END
>  <i_m_ct_stereo_status>  (51) 
1

>  <s_m_source_file>  (51) 
/var/tmp/pbs.5076255.sched01/tmp9stzsw2m/06nqgg2pe.sdf

>  <i_m_source_file_index>  (51) 
25

>  <i_lp_mmshare_version>  (51) 
48012

>  <i_f3d_flags>  (51) 
0

>  <s_epik_input>  (51) 
W0NIM11bQ0BdMTJbQ0BIXTNbQ0BASF00W0NAQEhdNVtDQEhdKFtDSDJdMylbQ0BIXShDKD1PKVtDSDJdMSlbQ0BASF01W0NASF0yNA==

>  <s_epik_cmdline>  (51) 
J2VwaWtfcHl0aG9uJywgJy1waHQnLCAnMi4wJywgJy1waCcsICc3LjAnLCAnLXRuJywgJzgnLCAnLW1hJywgJzIwMCcsICctaW1hZScsICc8aW5maWxlLm1hZT4nLCAnLW9tYWUnLCAnPG91dGZpbGUubWFlPic=

>  <r_lp_tautomer_probability>  (51) 
1

>  <r_epik_Ionization_Penalty>  (51) 
4.57823e-14

>  <r_epik_Ionization_Penalty_Charging>  (51) 
0

>  <r_epik_Ionization_Penalty_Neutral>  (51) 
4.57823e-14

>  <r_epik_State_Penalty>  (51) 
-0

>  <r_epik_Charging_Adjusted_Penalty>  (51) 
0

>  <i_epik_Tot_Q>  (51) 
0

>  <i_epik_Tot_abs_Q>  (51) 
0

>  <s_lp_Force_Field>  (51) 
OPLS3e

>  <r_lp_Energy>  (51) 
50.0481

>  <b_lp_Chiralities_Consistent>  (51) 
1

>  <s_lp_Variant>  (51) 
17:0-1

>  <s_i_glide_gridfile>  (51) 
pfpi4k_grid

>  <i_i_glide_lignum>  (51) 
25

>  <i_i_glide_rotatable_bonds>  (51) 
0

>  <r_i_docking_score>  (51) 
-3.29252

>  <r_i_glide_ligand_efficiency>  (51) 
-0.253271

>  <r_i_glide_ligand_efficiency_sa>  (51) 
-0.595524

>  <r_i_glide_ligand_efficiency_ln>  (51) 
-0.923581

>  <r_i_glide_gscore>  (51) 
-3.29252

>  <r_i_glide_lipo>  (51) 
-0.297185

>  <r_i_glide_hbond>  (51) 
0

>  <r_i_glide_metal>  (51) 
-0

>  <r_i_glide_rewards>  (51) 
-2.2211

>  <r_i_glide_evdw>  (51) 
-13.5531

>  <r_i_glide_ecoul>  (51) 
-0.618204

>  <r_i_glide_erotb>  (51) 
0

>  <r_i_glide_esite>  (51) 
-0.00385188

>  <r_i_glide_emodel>  (51) 
-17.177

>  <r_i_glide_energy>  (51) 
-14.1713

>  <r_i_glide_einternal>  (51) 
0

>  <r_i_glide_intrahb_reward>  (51) 
-0

>  <i_i_glide_confnum>  (51) 
1

>  <i_i_glide_posenum>  (51) 
19

>  <r_i_glide_eff_state_penalty>  (51) 
0

>  <ligand_id>  (51) 
17

>  <original_smiles>  (51) 
CC12CC(=O)C3C4CC1C1C4C3C12

>  <smiles>  (51) 
[H]C([H])([H])C12C([H])([H])C(=O)C3([H])C4([H])C([H])([H])C1([H])C1([H])C4([H])C3([H])C12[H]

$$$$
20:0:0
     RDKit          3D

 87 92  0  0  1  0  0  0  0  0999 V2000
    3.1029   -1.3788   -2.3341 C   0  0  0  0  0  0  0  0  0  0  0  0
    4.1967   -2.4521   -2.2188 C   0  0  0  0  0  0  0  0  0  0  0  0
    4.2600   -3.1671   -3.5778 C   0  0  0  0  0  0  0  0  0  0  0  0
    5.5456   -1.8186   -1.8910 C   0  0  0  0  0  0  0  0  0  0  0  0
    5.5657   -1.1770   -0.4999 C   0  0  0  0  0  0  0  0  0  0  0  0
    5.1552   -2.1121    0.6605 C   0  0  2  0  0  0  0  0  0  0  0  0
    4.9653   -1.1395    1.8538 C   0  0  0  0  0  0  0  0  0  0  0  0
    6.3255   -3.0827    0.9555 C   0  0  0  0  0  0  0  0  0  0  0  0
    5.9210   -4.4813    1.4575 C   0  0  0  0  0  0  0  0  0  0  0  0
    4.6063   -4.5292    2.2823 C   0  0  1  0  0  0  0  0  0  0  0  0
    3.4044   -3.9608    1.4547 C   0  0  2  0  0  0  0  0  0  0  0  0
    2.3972   -3.2298    2.3879 C   0  0  0  0  0  0  0  0  0  0  0  0
    2.7124   -5.1906    0.8469 C   0  0  0  0  0  0  0  0  0  0  0  0
    2.1296   -6.1801    1.8588 C   0  0  0  0  0  0  0  0  0  0  0  0
    2.9049   -6.4368    3.1984 C   0  0  2  0  0  0  0  0  0  0  0  0
    4.4005   -5.9202    3.0758 C   0  0  2  0  0  0  0  0  0  0  0  0
    4.9892   -5.5782    4.4663 C   0  0  0  0  0  0  0  0  0  0  0  0
    5.1796   -7.1063    2.4378 C   0  0  0  0  0  0  0  0  0  0  0  0
    5.0951   -8.4121    3.2425 C   0  0  0  0  0  0  0  0  0  0  0  0
    3.6755   -9.0138    3.4270 C   0  0  1  0  0  0  0  0  0  0  0  0
    3.3408   -9.6237    2.0405 C   0  0  0  0  0  0  0  0  0  0  0  0
    3.7618  -10.2295    4.4610 C   0  0  2  0  0  0  0  0  0  0  0  0
    2.3877  -10.8420    4.6205 C   0  0  0  0  0  0  0  0  0  0  0  0
    1.7485  -10.2526    5.6334 C   0  0  0  0  0  0  0  0  0  0  0  0
    2.6431   -9.1958    6.2300 C   0  0  2  0  0  0  0  0  0  0  0  0
    2.5068   -7.8371    5.4377 C   0  0  0  0  0  0  0  0  0  0  0  0
    2.6013   -7.8954    3.8520 C   0  0  1  0  0  0  0  0  0  0  0  0
    1.1240   -8.2513    3.3956 C   0  0  0  0  0  0  0  0  0  0  0  0
    4.0081   -9.8784    5.9784 C   0  0  0  0  0  0  0  0  0  0  0  0
    4.1838  -11.1905    6.8214 C   0  0  0  0  0  0  0  0  0  0  0  0
    5.2428   -9.0687    6.4385 C   0  0  0  0  0  0  0  0  0  0  0  0
    3.8403   -2.9085    0.3368 C   0  0  2  0  0  0  0  0  0  0  0  0
    3.8877   -3.4788   -1.1152 C   0  0  0  0  0  0  0  0  0  0  0  0
    3.2831   -0.6757   -3.1535 H   0  0  0  0  0  0  0  0  0  0  0  0
    3.0148   -0.7893   -1.4225 H   0  0  0  0  0  0  0  0  0  0  0  0
    2.1382   -1.8556   -2.5123 H   0  0  0  0  0  0  0  0  0  0  0  0
    5.0293   -3.9402   -3.5903 H   0  0  0  0  0  0  0  0  0  0  0  0
    4.4779   -2.4524   -4.3727 H   0  0  0  0  0  0  0  0  0  0  0  0
    3.3024   -3.6407   -3.8147 H   0  0  0  0  0  0  0  0  0  0  0  0
    6.3316   -2.5685   -1.9822 H   0  0  0  0  0  0  0  0  0  0  0  0
    5.7436   -1.0480   -2.6288 H   0  0  0  0  0  0  0  0  0  0  0  0
    6.5648   -0.7950   -0.3062 H   0  0  0  0  0  0  0  0  0  0  0  0
    4.9379   -0.2880   -0.5143 H   0  0  0  0  0  0  0  0  0  0  0  0
    4.8494   -1.6342    2.8111 H   0  0  0  0  0  0  0  0  0  0  0  0
    4.0944   -0.5033    1.7004 H   0  0  0  0  0  0  0  0  0  0  0  0
    5.8165   -0.4691    1.9639 H   0  0  0  0  0  0  0  0  0  0  0  0
    6.9525   -3.2213    0.0750 H   0  0  0  0  0  0  0  0  0  0  0  0
    6.9925   -2.6181    1.6809 H   0  0  0  0  0  0  0  0  0  0  0  0
    5.8298   -5.1497    0.6015 H   0  0  0  0  0  0  0  0  0  0  0  0
    6.7625   -4.8410    2.0512 H   0  0  0  0  0  0  0  0  0  0  0  0
    4.7555   -3.7637    3.0432 H   0  0  0  0  0  0  0  0  0  0  0  0
    1.4627   -3.0356    1.8711 H   0  0  0  0  0  0  0  0  0  0  0  0
    2.7535   -2.2608    2.7243 H   0  0  0  0  0  0  0  0  0  0  0  0
    2.1530   -3.7834    3.2876 H   0  0  0  0  0  0  0  0  0  0  0  0
    1.8972   -4.8896    0.1917 H   0  0  0  0  0  0  0  0  0  0  0  0
    3.4285   -5.7295    0.2259 H   0  0  0  0  0  0  0  0  0  0  0  0
    1.1257   -5.8412    2.1141 H   0  0  0  0  0  0  0  0  0  0  0  0
    2.0172   -7.0874    1.2749 H   0  0  0  0  0  0  0  0  0  0  0  0
    2.4325   -5.7624    3.9082 H   0  0  0  0  0  0  0  0  0  0  0  0
    5.0396   -6.4141    5.1333 H   0  0  0  0  0  0  0  0  0  0  0  0
    4.3920   -4.8154    4.9698 H   0  0  0  0  0  0  0  0  0  0  0  0
    6.0105   -5.2063    4.3827 H   0  0  0  0  0  0  0  0  0  0  0  0
    4.8410   -7.2764    1.4175 H   0  0  0  0  0  0  0  0  0  0  0  0
    6.2403   -6.8872    2.3628 H   0  0  0  0  0  0  0  0  0  0  0  0
    5.7416   -9.1508    2.7685 H   0  0  0  0  0  0  0  0  0  0  0  0
    5.5829   -8.2241    4.1816 H   0  0  0  0  0  0  0  0  0  0  0  0
    2.4250  -10.2112    2.0362 H   0  0  0  0  0  0  0  0  0  0  0  0
    4.1306  -10.2970    1.7139 H   0  0  0  0  0  0  0  0  0  0  0  0
    3.2475   -8.8698    1.2644 H   0  0  0  0  0  0  0  0  0  0  0  0
    4.4652  -10.9877    4.1289 H   0  0  0  0  0  0  0  0  0  0  0  0
    2.0058  -11.6456    4.0033 H   0  0  0  0  0  0  0  0  0  0  0  0
    0.7628  -10.4918    5.9979 H   0  0  0  0  0  0  0  0  0  0  0  0
    2.4372   -9.0829    7.2939 H   0  0  0  0  0  0  0  0  0  0  0  0
    1.5443   -7.4083    5.7059 H   0  0  0  0  0  0  0  0  0  0  0  0
    3.2088   -7.1232    5.8493 H   0  0  0  0  0  0  0  0  0  0  0  0
    0.6479   -9.1019    3.8594 H   0  0  0  0  0  0  0  0  0  0  0  0
    1.0104   -8.4960    2.3410 H   0  0  0  0  0  0  0  0  0  0  0  0
    0.4410   -7.4279    3.6027 H   0  0  0  0  0  0  0  0  0  0  0  0
    4.1145  -10.9812    7.8913 H   0  0  0  0  0  0  0  0  0  0  0  0
    5.1582  -11.6437    6.6383 H   0  0  0  0  0  0  0  0  0  0  0  0
    3.4424  -11.9668    6.6276 H   0  0  0  0  0  0  0  0  0  0  0  0
    5.4146   -9.1857    7.5104 H   0  0  0  0  0  0  0  0  0  0  0  0
    5.1427   -8.0037    6.3167 H   0  0  0  0  0  0  0  0  0  0  0  0
    6.1509   -9.4116    5.9402 H   0  0  0  0  0  0  0  0  0  0  0  0
    3.0420   -2.1682    0.3001 H   0  0  0  0  0  0  0  0  0  0  0  0
    2.9373   -3.9304   -1.3908 H   0  0  0  0  0  0  0  0  0  0  0  0
    4.6360   -4.2682   -1.1722 H   0  0  0  0  0  0  0  0  0  0  0  0
  1  2  1  0
  1 34  1  0
  1 35  1  0
  1 36  1  0
  2 33  1  0
  2  3  1  0
  2  4  1  0
  3 37  1  0
  3 38  1  0
  3 39  1  0
  4  5  1  0
  4 40  1  0
  4 41  1  0
  5  6  1  0
  5 42  1  0
  5 43  1  0
  6 32  1  0
  6  7  1  1
  6  8  1  0
  7 44  1  0
  7 45  1  0
  7 46  1  0
  8  9  1  0
  8 47  1  0
  8 48  1  0
  9 10  1  0
  9 49  1  0
  9 50  1  0
 10 16  1  0
 10 11  1  0
 10 51  1  1
 11 12  1  1
 11 13  1  0
 11 32  1  0
 12 52  1  0
 12 53  1  0
 12 54  1  0
 13 14  1  0
 13 55  1  0
 13 56  1  0
 14 15  1  0
 14 57  1  0
 14 58  1  0
 15 27  1  0
 15 16  1  0
 15 59  1  1
 16 17  1  1
 16 18  1  0
 17 60  1  0
 17 61  1  0
 17 62  1  0
 18 19  1  0
 18 63  1  0
 18 64  1  0
 19 20  1  0
 19 65  1  0
 19 66  1  0
 20 27  1  0
 20 21  1  6
 20 22  1  0
 21 67  1  0
 21 68  1  0
 21 69  1  0
 22 29  1  0
 22 23  1  0
 22 70  1  6
 23 24  2  0
 23 71  1  0
 24 25  1  0
 24 72  1  0
 25 26  1  0
 25 29  1  0
 25 73  1  1
 26 27  1  0
 26 74  1  0
 26 75  1  0
 27 28  1  6
 28 76  1  0
 28 77  1  0
 28 78  1  0
 29 30  1  0
 29 31  1  0
 30 79  1  0
 30 80  1  0
 30 81  1  0
 31 82  1  0
 31 83  1  0
 31 84  1  0
 32 33  1  0
 32 85  1  6
 33 86  1  0
 33 87  1  0
M  END
>  <i_m_ct_stereo_status>  (52) 
1

>  <s_m_source_file>  (52) 
/var/tmp/pbs.5076255.sched01/tmp9stzsw2m/06nqgg2pe.sdf

>  <i_m_source_file_index>  (52) 
28

>  <i_lp_mmshare_version>  (52) 
48012

>  <i_f3d_flags>  (52) 
0

>  <s_epik_input>  (52) 
W0NIMl0xW0NIMl1DKFtDSDNdKShbQ0gzXSlbQ0gyXVtDQEhdKFtDQF0xMltDSDNdKVtDQF0zKFtDSDNdKVtDQEhdKFtDSDJdW0NIMl0yKVtDQEBdNChbQ0gzXSlbQ0BASF0oW0NIMl1bQ0gyXTMpW0NAQF01KFtDSDNdKVtDQEBdKFtDSDNdKShbQ0gyXVtDSDJdNClbQ0BASF02W0NIXT1bQ0hdW0NASF0oW0NIMl01KUM2KFtDSDNdKVtDSDNd

>  <s_epik_cmdline>  (52) 
J2VwaWtfcHl0aG9uJywgJy1waHQnLCAnMi4wJywgJy1waCcsICc3LjAnLCAnLXRuJywgJzgnLCAnLW1hJywgJzIwMCcsICctaW1hZScsICc8aW5maWxlLm1hZT4nLCAnLW9tYWUnLCAnPG91dGZpbGUubWFlPic=

>  <r_lp_tautomer_probability>  (52) 
1

>  <r_epik_Ionization_Penalty>  (52) 
0

>  <r_epik_Ionization_Penalty_Charging>  (52) 
0

>  <r_epik_Ionization_Penalty_Neutral>  (52) 
0

>  <r_epik_State_Penalty>  (52) 
-0

>  <r_epik_Charging_Adjusted_Penalty>  (52) 
0

>  <i_epik_Tot_Q>  (52) 
0

>  <i_epik_Tot_abs_Q>  (52) 
0

>  <s_lp_Force_Field>  (52) 
OPLS3e

>  <r_lp_Energy>  (52) 
150.228

>  <b_lp_Chiralities_Consistent>  (52) 
1

>  <s_lp_Variant>  (52) 
20:0-1

>  <s_i_glide_gridfile>  (52) 
pfpi4k_grid

>  <i_i_glide_lignum>  (52) 
28

>  <i_i_glide_rotatable_bonds>  (52) 
0

>  <r_i_docking_score>  (52) 
-2.51498

>  <r_i_glide_ligand_efficiency>  (52) 
-0.0762117

>  <r_i_glide_ligand_efficiency_sa>  (52) 
-0.244452

>  <r_i_glide_ligand_efficiency_ln>  (52) 
-0.55932

>  <r_i_glide_gscore>  (52) 
-2.51498

>  <r_i_glide_lipo>  (52) 
-0.543772

>  <r_i_glide_hbond>  (52) 
0

>  <r_i_glide_metal>  (52) 
-0

>  <r_i_glide_rewards>  (52) 
-0.335578

>  <r_i_glide_evdw>  (52) 
-30.8569

>  <r_i_glide_ecoul>  (52) 
-0.618594

>  <r_i_glide_erotb>  (52) 
0

>  <r_i_glide_esite>  (52) 
0

>  <r_i_glide_emodel>  (52) 
-35.578

>  <r_i_glide_energy>  (52) 
-31.4755

>  <r_i_glide_einternal>  (52) 
0

>  <r_i_glide_intrahb_reward>  (52) 
-0

>  <i_i_glide_confnum>  (52) 
2

>  <i_i_glide_posenum>  (52) 
1

>  <r_i_glide_eff_state_penalty>  (52) 
0

>  <ligand_id>  (52) 
20

>  <original_smiles>  (52) 
CC1(C)CCC2(C)CCC3C(C)(CCC4C3(C)CCC3(C)C5C=CC(CC43C)C5(C)C)C2C1

>  <smiles>  (52) 
[H]C1=C([H])C2([H])C(C([H])([H])[H])(C([H])([H])[H])C1([H])C([H])([H])C1(C([H])([H])[H])C3([H])C([H])([H])C([H])([H])C4(C([H])([H])[H])C5([H])C([H])([H])C(C([H])([H])[H])(C([H])([H])[H])C([H])([H])C([H])([H])C5(C([H])([H])[H])C([H])([H])C([H])([H])C4([H])C3(C([H])([H])[H])C([H])([H])C([H])([H])C21C([H])([H])[H]

$$$$
20:0:1
     RDKit          3D

 87 92  0  0  1  0  0  0  0  0999 V2000
    6.8870   -2.6352   -1.5719 C   0  0  0  0  0  0  0  0  0  0  0  0
    7.2243   -2.6402   -0.0640 C   0  0  0  0  0  0  0  0  0  0  0  0
    8.6855   -3.0921    0.0877 C   0  0  0  0  0  0  0  0  0  0  0  0
    7.0466   -1.2585    0.5705 C   0  0  0  0  0  0  0  0  0  0  0  0
    5.5922   -0.7816    0.5386 C   0  0  0  0  0  0  0  0  0  0  0  0
    4.5852   -1.7673    1.2057 C   0  0  2  0  0  0  0  0  0  0  0  0
    3.2133   -1.2054    0.7705 C   0  0  0  0  0  0  0  0  0  0  0  0
    4.7106   -1.6737    2.7456 C   0  0  0  0  0  0  0  0  0  0  0  0
    4.4161   -2.9821    3.5086 C   0  0  0  0  0  0  0  0  0  0  0  0
    3.3821   -3.9303    2.8362 C   0  0  1  0  0  0  0  0  0  0  0  0
    3.8499   -4.3294    1.3964 C   0  0  2  0  0  0  0  0  0  0  0  0
    2.6361   -4.5088    0.4456 C   0  0  0  0  0  0  0  0  0  0  0  0
    4.5414   -5.6914    1.5434 C   0  0  0  0  0  0  0  0  0  0  0  0
    3.6478   -6.8244    2.0556 C   0  0  0  0  0  0  0  0  0  0  0  0
    2.5547   -6.4975    3.1319 C   0  0  2  0  0  0  0  0  0  0  0  0
    2.8528   -5.0969    3.8137 C   0  0  2  0  0  0  0  0  0  0  0  0
    1.5582   -4.4662    4.3808 C   0  0  0  0  0  0  0  0  0  0  0  0
    3.8453   -5.4215    4.9672 C   0  0  0  0  0  0  0  0  0  0  0  0
    3.3140   -6.4430    5.9814 C   0  0  0  0  0  0  0  0  0  0  0  0
    2.9904   -7.8545    5.4258 C   0  0  1  0  0  0  0  0  0  0  0  0
    4.3828   -8.5163    5.2222 C   0  0  0  0  0  0  0  0  0  0  0  0
    2.2473   -8.6894    6.5596 C   0  0  2  0  0  0  0  0  0  0  0  0
    1.9610  -10.0745    6.0244 C   0  0  0  0  0  0  0  0  0  0  0  0
    0.7434  -10.1023    5.4805 C   0  0  0  0  0  0  0  0  0  0  0  0
    0.1296   -8.7329    5.5768 C   0  0  2  0  0  0  0  0  0  0  0  0
    0.6007   -7.8227    4.3765 C   0  0  0  0  0  0  0  0  0  0  0  0
    2.1581   -7.7765    4.0483 C   0  0  1  0  0  0  0  0  0  0  0  0
    2.3833   -9.0411    3.1148 C   0  0  0  0  0  0  0  0  0  0  0  0
    0.7640   -8.2876    6.9140 C   0  0  0  0  0  0  0  0  0  0  0  0
    0.2383   -9.1352    8.1162 C   0  0  0  0  0  0  0  0  0  0  0  0
    0.4004   -6.8609    7.3868 C   0  0  0  0  0  0  0  0  0  0  0  0
    4.8016   -3.2444    0.7131 C   0  0  2  0  0  0  0  0  0  0  0  0
    6.3165   -3.6150    0.7203 C   0  0  0  0  0  0  0  0  0  0  0  0
    7.5876   -2.0031   -2.1238 H   0  0  0  0  0  0  0  0  0  0  0  0
    5.8823   -2.2598   -1.7785 H   0  0  0  0  0  0  0  0  0  0  0  0
    6.9556   -3.6322   -2.0069 H   0  0  0  0  0  0  0  0  0  0  0  0
    8.9896   -3.1392    1.1342 H   0  0  0  0  0  0  0  0  0  0  0  0
    9.3698   -2.4048   -0.4178 H   0  0  0  0  0  0  0  0  0  0  0  0
    8.8357   -4.0823   -0.3436 H   0  0  0  0  0  0  0  0  0  0  0  0
    7.3873   -1.2686    1.6094 H   0  0  0  0  0  0  0  0  0  0  0  0
    7.6836   -0.5340    0.0950 H   0  0  0  0  0  0  0  0  0  0  0  0
    5.5454    0.1778    1.0537 H   0  0  0  0  0  0  0  0  0  0  0  0
    5.2944   -0.5600   -0.4869 H   0  0  0  0  0  0  0  0  0  0  0  0
    2.3662   -1.6604    1.2709 H   0  0  0  0  0  0  0  0  0  0  0  0
    3.0664   -1.3361   -0.3019 H   0  0  0  0  0  0  0  0  0  0  0  0
    3.1357   -0.1337    0.9544 H   0  0  0  0  0  0  0  0  0  0  0  0
    5.7023   -1.3341    3.0433 H   0  0  0  0  0  0  0  0  0  0  0  0
    4.0355   -0.8979    3.1100 H   0  0  0  0  0  0  0  0  0  0  0  0
    5.3521   -3.5226    3.6469 H   0  0  0  0  0  0  0  0  0  0  0  0
    4.0730   -2.6830    4.5001 H   0  0  0  0  0  0  0  0  0  0  0  0
    2.5269   -3.2841    2.6388 H   0  0  0  0  0  0  0  0  0  0  0  0
    2.9419   -5.0152   -0.4698 H   0  0  0  0  0  0  0  0  0  0  0  0
    2.2016   -3.5599    0.1413 H   0  0  0  0  0  0  0  0  0  0  0  0
    1.8282   -5.0872    0.8789 H   0  0  0  0  0  0  0  0  0  0  0  0
    4.9466   -6.0201    0.5860 H   0  0  0  0  0  0  0  0  0  0  0  0
    5.3807   -5.5855    2.2299 H   0  0  0  0  0  0  0  0  0  0  0  0
    3.1500   -7.2659    1.1909 H   0  0  0  0  0  0  0  0  0  0  0  0
    4.3679   -7.5540    2.4132 H   0  0  0  0  0  0  0  0  0  0  0  0
    1.6527   -6.3441    2.5460 H   0  0  0  0  0  0  0  0  0  0  0  0
    1.0921   -5.0532    5.1454 H   0  0  0  0  0  0  0  0  0  0  0  0
    0.8131   -4.3237    3.5963 H   0  0  0  0  0  0  0  0  0  0  0  0
    1.7619   -3.4968    4.8349 H   0  0  0  0  0  0  0  0  0  0  0  0
    4.7962   -5.7637    4.5621 H   0  0  0  0  0  0  0  0  0  0  0  0
    4.0756   -4.5359    5.5513 H   0  0  0  0  0  0  0  0  0  0  0  0
    4.0397   -6.5343    6.7919 H   0  0  0  0  0  0  0  0  0  0  0  0
    2.4642   -5.9883    6.4563 H   0  0  0  0  0  0  0  0  0  0  0  0
    4.3225   -9.5695    4.9467 H   0  0  0  0  0  0  0  0  0  0  0  0
    4.9750   -8.4852    6.1392 H   0  0  0  0  0  0  0  0  0  0  0  0
    4.9686   -8.0168    4.4548 H   0  0  0  0  0  0  0  0  0  0  0  0
    2.8491   -8.7700    7.4628 H   0  0  0  0  0  0  0  0  0  0  0  0
    2.6331  -10.9169    6.1159 H   0  0  0  0  0  0  0  0  0  0  0  0
    0.2527  -10.9620    5.0446 H   0  0  0  0  0  0  0  0  0  0  0  0
   -0.9519   -8.8224    5.6381 H   0  0  0  0  0  0  0  0  0  0  0  0
    0.0767   -8.1836    3.4899 H   0  0  0  0  0  0  0  0  0  0  0  0
    0.1937   -6.8266    4.5131 H   0  0  0  0  0  0  0  0  0  0  0  0
    2.0119   -9.9944    3.4587 H   0  0  0  0  0  0  0  0  0  0  0  0
    3.4225   -9.2837    2.9103 H   0  0  0  0  0  0  0  0  0  0  0  0
    1.8938   -8.9105    2.1492 H   0  0  0  0  0  0  0  0  0  0  0  0
   -0.8425   -9.0305    8.2213 H   0  0  0  0  0  0  0  0  0  0  0  0
    0.6990   -8.8087    9.0504 H   0  0  0  0  0  0  0  0  0  0  0  0
    0.4269  -10.2080    8.0410 H   0  0  0  0  0  0  0  0  0  0  0  0
   -0.5688   -6.8397    7.8835 H   0  0  0  0  0  0  0  0  0  0  0  0
    0.2871   -6.1525    6.5877 H   0  0  0  0  0  0  0  0  0  0  0  0
    1.1219   -6.4907    8.1134 H   0  0  0  0  0  0  0  0  0  0  0  0
    4.5346   -3.2454   -0.3448 H   0  0  0  0  0  0  0  0  0  0  0  0
    6.4905   -4.5954    0.2811 H   0  0  0  0  0  0  0  0  0  0  0  0
    6.6711   -3.6629    1.7464 H   0  0  0  0  0  0  0  0  0  0  0  0
  1  2  1  0
  1 34  1  0
  1 35  1  0
  1 36  1  0
  2 33  1  0
  2  3  1  0
  2  4  1  0
  3 37  1  0
  3 38  1  0
  3 39  1  0
  4  5  1  0
  4 40  1  0
  4 41  1  0
  5  6  1  0
  5 42  1  0
  5 43  1  0
  6 32  1  0
  6  7  1  1
  6  8  1  0
  7 44  1  0
  7 45  1  0
  7 46  1  0
  8  9  1  0
  8 47  1  0
  8 48  1  0
  9 10  1  0
  9 49  1  0
  9 50  1  0
 10 16  1  0
 10 11  1  0
 10 51  1  6
 11 12  1  6
 11 13  1  0
 11 32  1  0
 12 52  1  0
 12 53  1  0
 12 54  1  0
 13 14  1  0
 13 55  1  0
 13 56  1  0
 14 15  1  0
 14 57  1  0
 14 58  1  0
 15 27  1  0
 15 16  1  0
 15 59  1  6
 16 17  1  1
 16 18  1  0
 17 60  1  0
 17 61  1  0
 17 62  1  0
 18 19  1  0
 18 63  1  0
 18 64  1  0
 19 20  1  0
 19 65  1  0
 19 66  1  0
 20 27  1  0
 20 21  1  6
 20 22  1  0
 21 67  1  0
 21 68  1  0
 21 69  1  0
 22 29  1  0
 22 23  1  0
 22 70  1  1
 23 24  2  0
 23 71  1  0
 24 25  1  0
 24 72  1  0
 25 26  1  0
 25 29  1  0
 25 73  1  1
 26 27  1  0
 26 74  1  0
 26 75  1  0
 27 28  1  6
 28 76  1  0
 28 77  1  0
 28 78  1  0
 29 30  1  0
 29 31  1  0
 30 79  1  0
 30 80  1  0
 30 81  1  0
 31 82  1  0
 31 83  1  0
 31 84  1  0
 32 33  1  0
 32 85  1  6
 33 86  1  0
 33 87  1  0
M  END
>  <i_m_ct_stereo_status>  (53) 
1

>  <s_m_source_file>  (53) 
/var/tmp/pbs.5076255.sched01/tmp9stzsw2m/06nqgg2pe.sdf

>  <i_m_source_file_index>  (53) 
28

>  <i_lp_mmshare_version>  (53) 
48012

>  <i_f3d_flags>  (53) 
0

>  <s_epik_input>  (53) 
W0NIMl0xW0NIMl1DKFtDSDNdKShbQ0gzXSlbQ0gyXVtDQEhdKFtDQF0xMltDSDNdKVtDQF0zKFtDSDNdKVtDQEhdKFtDSDJdW0NIMl0yKVtDQEBdNChbQ0gzXSlbQ0BASF0oW0NIMl1bQ0gyXTMpW0NAQF01KFtDSDNdKVtDQEBdKFtDSDNdKShbQ0gyXVtDSDJdNClbQ0BASF02W0NIXT1bQ0hdW0NASF0oW0NIMl01KUM2KFtDSDNdKVtDSDNd

>  <s_epik_cmdline>  (53) 
J2VwaWtfcHl0aG9uJywgJy1waHQnLCAnMi4wJywgJy1waCcsICc3LjAnLCAnLXRuJywgJzgnLCAnLW1hJywgJzIwMCcsICctaW1hZScsICc8aW5maWxlLm1hZT4nLCAnLW9tYWUnLCAnPG91dGZpbGUubWFlPic=

>  <r_lp_tautomer_probability>  (53) 
1

>  <r_epik_Ionization_Penalty>  (53) 
0

>  <r_epik_Ionization_Penalty_Charging>  (53) 
0

>  <r_epik_Ionization_Penalty_Neutral>  (53) 
0

>  <r_epik_State_Penalty>  (53) 
-0

>  <r_epik_Charging_Adjusted_Penalty>  (53) 
0

>  <i_epik_Tot_Q>  (53) 
0

>  <i_epik_Tot_abs_Q>  (53) 
0

>  <s_lp_Force_Field>  (53) 
OPLS3e

>  <r_lp_Energy>  (53) 
150.228

>  <b_lp_Chiralities_Consistent>  (53) 
1

>  <s_lp_Variant>  (53) 
20:0-1

>  <s_i_glide_gridfile>  (53) 
pfpi4k_grid

>  <i_i_glide_lignum>  (53) 
28

>  <i_i_glide_rotatable_bonds>  (53) 
0

>  <r_i_docking_score>  (53) 
-2.3895

>  <r_i_glide_ligand_efficiency>  (53) 
-0.072409

>  <r_i_glide_ligand_efficiency_sa>  (53) 
-0.232254

>  <r_i_glide_ligand_efficiency_ln>  (53) 
-0.531412

>  <r_i_glide_gscore>  (53) 
-2.3895

>  <r_i_glide_lipo>  (53) 
-0.526858

>  <r_i_glide_hbond>  (53) 
0

>  <r_i_glide_metal>  (53) 
-0

>  <r_i_glide_rewards>  (53) 
-0.335578

>  <r_i_glide_evdw>  (53) 
-29.2047

>  <r_i_glide_ecoul>  (53) 
-0.44551

>  <r_i_glide_erotb>  (53) 
0

>  <r_i_glide_esite>  (53) 
0

>  <r_i_glide_emodel>  (53) 
-33.5303

>  <r_i_glide_energy>  (53) 
-29.6502

>  <r_i_glide_einternal>  (53) 
0

>  <r_i_glide_intrahb_reward>  (53) 
-0

>  <i_i_glide_confnum>  (53) 
1

>  <i_i_glide_posenum>  (53) 
25

>  <r_i_glide_eff_state_penalty>  (53) 
0

>  <ligand_id>  (53) 
20

>  <original_smiles>  (53) 
CC1(C)CCC2(C)CCC3C(C)(CCC4C3(C)CCC3(C)C5C=CC(CC43C)C5(C)C)C2C1

>  <smiles>  (53) 
[H]C1=C([H])C2([H])C(C([H])([H])[H])(C([H])([H])[H])C1([H])C([H])([H])C1(C([H])([H])[H])C3([H])C([H])([H])C([H])([H])C4(C([H])([H])[H])C5([H])C([H])([H])C(C([H])([H])[H])(C([H])([H])[H])C([H])([H])C([H])([H])C5(C([H])([H])[H])C([H])([H])C([H])([H])C4([H])C3(C([H])([H])[H])C([H])([H])C([H])([H])C21C([H])([H])[H]

$$$$
20:0:2
     RDKit          3D

 87 92  0  0  1  0  0  0  0  0999 V2000
    3.4314   -1.6874   -2.1216 C   0  0  0  0  0  0  0  0  0  0  0  0
    4.4915   -2.6784   -1.5941 C   0  0  0  0  0  0  0  0  0  0  0  0
    4.8121   -3.6607   -2.7303 C   0  0  0  0  0  0  0  0  0  0  0  0
    5.7840   -1.9678   -1.1756 C   0  0  0  0  0  0  0  0  0  0  0  0
    5.5554   -1.0448    0.0253 C   0  0  0  0  0  0  0  0  0  0  0  0
    4.9110   -1.7159    1.2671 C   0  0  2  0  0  0  0  0  0  0  0  0
    4.5111   -0.5235    2.1699 C   0  0  0  0  0  0  0  0  0  0  0  0
    5.9818   -2.5659    1.9831 C   0  0  0  0  0  0  0  0  0  0  0  0
    5.4579   -3.8353    2.6875 C   0  0  0  0  0  0  0  0  0  0  0  0
    4.0271   -3.7316    3.2645 C   0  0  1  0  0  0  0  0  0  0  0  0
    3.0153   -3.3913    2.1232 C   0  0  2  0  0  0  0  0  0  0  0  0
    1.8676   -2.4988    2.6812 C   0  0  0  0  0  0  0  0  0  0  0  0
    2.4608   -4.7548    1.6894 C   0  0  0  0  0  0  0  0  0  0  0  0
    1.6622   -5.5051    2.7625 C   0  0  0  0  0  0  0  0  0  0  0  0
    2.1648   -5.4473    4.2465 C   0  0  2  0  0  0  0  0  0  0  0  0
    3.6605   -4.9253    4.2933 C   0  0  2  0  0  0  0  0  0  0  0  0
    3.9855   -4.2718    5.6574 C   0  0  0  0  0  0  0  0  0  0  0  0
    4.5286   -6.2015    4.0873 C   0  0  0  0  0  0  0  0  0  0  0  0
    4.2780   -7.3039    5.1276 C   0  0  0  0  0  0  0  0  0  0  0  0
    2.8417   -7.8949    5.1720 C   0  0  1  0  0  0  0  0  0  0  0  0
    2.7672   -8.8080    3.9151 C   0  0  0  0  0  0  0  0  0  0  0  0
    2.7144   -8.8457    6.4469 C   0  0  2  0  0  0  0  0  0  0  0  0
    1.3250   -9.4535    6.4743 C   0  0  0  0  0  0  0  0  0  0  0  0
    0.5157   -8.6832    7.2129 C   0  0  0  0  0  0  0  0  0  0  0  0
    1.2964   -7.4867    7.7094 C   0  0  2  0  0  0  0  0  0  0  0  0
    1.3299   -6.3392    6.6246 C   0  0  0  0  0  0  0  0  0  0  0  0
    1.7226   -6.7351    5.1358 C   0  0  1  0  0  0  0  0  0  0  0  0
    0.3516   -7.2209    4.5039 C   0  0  0  0  0  0  0  0  0  0  0  0
    2.6713   -8.1685    7.8689 C   0  0  0  0  0  0  0  0  0  0  0  0
    2.6672   -9.2592    8.9957 C   0  0  0  0  0  0  0  0  0  0  0  0
    3.8135   -7.2443    8.3589 C   0  0  0  0  0  0  0  0  0  0  0  0
    3.6643   -2.5989    0.8949 C   0  0  2  0  0  0  0  0  0  0  0  0
    3.9821   -3.4684   -0.3678 C   0  0  0  0  0  0  0  0  0  0  0  0
    3.7782   -1.1707   -3.0182 H   0  0  0  0  0  0  0  0  0  0  0  0
    3.1743   -0.9216   -1.3944 H   0  0  0  0  0  0  0  0  0  0  0  0
    2.5027   -2.2031   -2.3710 H   0  0  0  0  0  0  0  0  0  0  0  0
    5.5426   -4.4008   -2.4095 H   0  0  0  0  0  0  0  0  0  0  0  0
    5.2080   -3.1524   -3.6111 H   0  0  0  0  0  0  0  0  0  0  0  0
    3.9161   -4.1999   -3.0404 H   0  0  0  0  0  0  0  0  0  0  0  0
    6.5502   -2.7070   -0.9374 H   0  0  0  0  0  0  0  0  0  0  0  0
    6.1776   -1.4000   -2.0178 H   0  0  0  0  0  0  0  0  0  0  0  0
    6.5079   -0.6025    0.3050 H   0  0  0  0  0  0  0  0  0  0  0  0
    4.9430   -0.2080   -0.3016 H   0  0  0  0  0  0  0  0  0  0  0  0
    4.2129   -0.8047    3.1712 H   0  0  0  0  0  0  0  0  0  0  0  0
    3.6988    0.0546    1.7281 H   0  0  0  0  0  0  0  0  0  0  0  0
    5.3490    0.1545    2.2942 H   0  0  0  0  0  0  0  0  0  0  0  0
    6.7516   -2.8846    1.2791 H   0  0  0  0  0  0  0  0  0  0  0  0
    6.5483   -1.9329    2.6716 H   0  0  0  0  0  0  0  0  0  0  0  0
    5.5093   -4.6761    2.0002 H   0  0  0  0  0  0  0  0  0  0  0  0
    6.1603   -4.0554    3.4902 H   0  0  0  0  0  0  0  0  0  0  0  0
    4.0505   -2.8180    3.8541 H   0  0  0  0  0  0  0  0  0  0  0  0
    1.0433   -2.4241    1.9821 H   0  0  0  0  0  0  0  0  0  0  0  0
    2.1750   -1.4744    2.8628 H   0  0  0  0  0  0  0  0  0  0  0  0
    1.4532   -2.8514    3.6184 H   0  0  0  0  0  0  0  0  0  0  0  0
    1.8116   -4.6332    0.8224 H   0  0  0  0  0  0  0  0  0  0  0  0
    3.2789   -5.3926    1.3625 H   0  0  0  0  0  0  0  0  0  0  0  0
    0.6386   -5.1412    2.7434 H   0  0  0  0  0  0  0  0  0  0  0  0
    1.6483   -6.5246    2.3815 H   0  0  0  0  0  0  0  0  0  0  0  0
    1.5769   -4.6455    4.6902 H   0  0  0  0  0  0  0  0  0  0  0  0
    3.8999   -4.9390    6.4894 H   0  0  0  0  0  0  0  0  0  0  0  0
    3.3175   -3.4344    5.8620 H   0  0  0  0  0  0  0  0  0  0  0  0
    5.0096   -3.8990    5.6841 H   0  0  0  0  0  0  0  0  0  0  0  0
    4.3857   -6.5977    3.0839 H   0  0  0  0  0  0  0  0  0  0  0  0
    5.5899   -5.9746    4.1638 H   0  0  0  0  0  0  0  0  0  0  0  0
    4.9929   -8.1069    4.9539 H   0  0  0  0  0  0  0  0  0  0  0  0
    4.5831   -6.9002    6.0755 H   0  0  0  0  0  0  0  0  0  0  0  0
    1.8532   -9.3959    3.8661 H   0  0  0  0  0  0  0  0  0  0  0  0
    3.5836   -9.5297    3.9012 H   0  0  0  0  0  0  0  0  0  0  0  0
    2.8380   -8.2453    2.9902 H   0  0  0  0  0  0  0  0  0  0  0  0
    3.4576   -9.6418    6.4268 H   0  0  0  0  0  0  0  0  0  0  0  0
    1.0542  -10.3810    5.9919 H   0  0  0  0  0  0  0  0  0  0  0  0
   -0.5246   -8.8658    7.4216 H   0  0  0  0  0  0  0  0  0  0  0  0
    0.9032   -7.1414    8.6654 H   0  0  0  0  0  0  0  0  0  0  0  0
    0.3434   -5.8855    6.6072 H   0  0  0  0  0  0  0  0  0  0  0  0
    1.9595   -5.5346    6.9897 H   0  0  0  0  0  0  0  0  0  0  0  0
   -0.2112   -7.9622    5.0499 H   0  0  0  0  0  0  0  0  0  0  0  0
    0.4354   -7.6905    3.5271 H   0  0  0  0  0  0  0  0  0  0  0  0
   -0.3448   -6.3902    4.3960 H   0  0  0  0  0  0  0  0  0  0  0  0
    2.4109   -8.8241    9.9634 H   0  0  0  0  0  0  0  0  0  0  0  0
    3.6532   -9.7149    9.0944 H   0  0  0  0  0  0  0  0  0  0  0  0
    1.9710  -10.0834    8.8433 H   0  0  0  0  0  0  0  0  0  0  0  0
    3.7852   -7.1175    9.4438 H   0  0  0  0  0  0  0  0  0  0  0  0
    3.7572   -6.2342    7.9895 H   0  0  0  0  0  0  0  0  0  0  0  0
    4.7945   -7.6624    8.1247 H   0  0  0  0  0  0  0  0  0  0  0  0
    2.8925   -1.9111    0.5523 H   0  0  0  0  0  0  0  0  0  0  0  0
    3.1020   -4.0095   -0.7129 H   0  0  0  0  0  0  0  0  0  0  0  0
    4.7224   -4.2226   -0.1087 H   0  0  0  0  0  0  0  0  0  0  0  0
  1  2  1  0
  1 34  1  0
  1 35  1  0
  1 36  1  0
  2 33  1  0
  2  3  1  0
  2  4  1  0
  3 37  1  0
  3 38  1  0
  3 39  1  0
  4  5  1  0
  4 40  1  0
  4 41  1  0
  5  6  1  0
  5 42  1  0
  5 43  1  0
  6 32  1  0
  6  7  1  1
  6  8  1  0
  7 44  1  0
  7 45  1  0
  7 46  1  0
  8  9  1  0
  8 47  1  0
  8 48  1  0
  9 10  1  0
  9 49  1  0
  9 50  1  0
 10 16  1  0
 10 11  1  0
 10 51  1  1
 11 12  1  1
 11 13  1  0
 11 32  1  0
 12 52  1  0
 12 53  1  0
 12 54  1  0
 13 14  1  0
 13 55  1  0
 13 56  1  0
 14 15  1  0
 14 57  1  0
 14 58  1  0
 15 27  1  0
 15 16  1  0
 15 59  1  1
 16 17  1  1
 16 18  1  0
 17 60  1  0
 17 61  1  0
 17 62  1  0
 18 19  1  0
 18 63  1  0
 18 64  1  0
 19 20  1  0
 19 65  1  0
 19 66  1  0
 20 27  1  0
 20 21  1  6
 20 22  1  0
 21 67  1  0
 21 68  1  0
 21 69  1  0
 22 29  1  0
 22 23  1  0
 22 70  1  1
 23 24  2  0
 23 71  1  0
 24 25  1  0
 24 72  1  0
 25 26  1  0
 25 29  1  0
 25 73  1  1
 26 27  1  0
 26 74  1  0
 26 75  1  0
 27 28  1  6
 28 76  1  0
 28 77  1  0
 28 78  1  0
 29 30  1  0
 29 31  1  0
 30 79  1  0
 30 80  1  0
 30 81  1  0
 31 82  1  0
 31 83  1  0
 31 84  1  0
 32 33  1  0
 32 85  1  6
 33 86  1  0
 33 87  1  0
M  END
>  <i_m_ct_stereo_status>  (54) 
1

>  <s_m_source_file>  (54) 
/var/tmp/pbs.5076255.sched01/tmp9stzsw2m/06nqgg2pe.sdf

>  <i_m_source_file_index>  (54) 
28

>  <i_lp_mmshare_version>  (54) 
48012

>  <i_f3d_flags>  (54) 
0

>  <s_epik_input>  (54) 
W0NIMl0xW0NIMl1DKFtDSDNdKShbQ0gzXSlbQ0gyXVtDQEhdKFtDQF0xMltDSDNdKVtDQF0zKFtDSDNdKVtDQEhdKFtDSDJdW0NIMl0yKVtDQEBdNChbQ0gzXSlbQ0BASF0oW0NIMl1bQ0gyXTMpW0NAQF01KFtDSDNdKVtDQEBdKFtDSDNdKShbQ0gyXVtDSDJdNClbQ0BASF02W0NIXT1bQ0hdW0NASF0oW0NIMl01KUM2KFtDSDNdKVtDSDNd

>  <s_epik_cmdline>  (54) 
J2VwaWtfcHl0aG9uJywgJy1waHQnLCAnMi4wJywgJy1waCcsICc3LjAnLCAnLXRuJywgJzgnLCAnLW1hJywgJzIwMCcsICctaW1hZScsICc8aW5maWxlLm1hZT4nLCAnLW9tYWUnLCAnPG91dGZpbGUubWFlPic=

>  <r_lp_tautomer_probability>  (54) 
1

>  <r_epik_Ionization_Penalty>  (54) 
0

>  <r_epik_Ionization_Penalty_Charging>  (54) 
0

>  <r_epik_Ionization_Penalty_Neutral>  (54) 
0

>  <r_epik_State_Penalty>  (54) 
-0

>  <r_epik_Charging_Adjusted_Penalty>  (54) 
0

>  <i_epik_Tot_Q>  (54) 
0

>  <i_epik_Tot_abs_Q>  (54) 
0

>  <s_lp_Force_Field>  (54) 
OPLS3e

>  <r_lp_Energy>  (54) 
150.228

>  <b_lp_Chiralities_Consistent>  (54) 
1

>  <s_lp_Variant>  (54) 
20:0-1

>  <s_i_glide_gridfile>  (54) 
pfpi4k_grid

>  <i_i_glide_lignum>  (54) 
28

>  <i_i_glide_rotatable_bonds>  (54) 
0

>  <r_i_docking_score>  (54) 
-1.89541

>  <r_i_glide_ligand_efficiency>  (54) 
-0.0574365

>  <r_i_glide_ligand_efficiency_sa>  (54) 
-0.18423

>  <r_i_glide_ligand_efficiency_ln>  (54) 
-0.421528

>  <r_i_glide_gscore>  (54) 
-1.89541

>  <r_i_glide_lipo>  (54) 
-0.285597

>  <r_i_glide_hbond>  (54) 
0

>  <r_i_glide_metal>  (54) 
-0

>  <r_i_glide_rewards>  (54) 
-0.335578

>  <r_i_glide_evdw>  (54) 
-24.7517

>  <r_i_glide_ecoul>  (54) 
-0.244318

>  <r_i_glide_erotb>  (54) 
0

>  <r_i_glide_esite>  (54) 
0

>  <r_i_glide_emodel>  (54) 
-27.9961

>  <r_i_glide_energy>  (54) 
-24.996

>  <r_i_glide_einternal>  (54) 
0

>  <r_i_glide_intrahb_reward>  (54) 
-0

>  <i_i_glide_confnum>  (54) 
1

>  <i_i_glide_posenum>  (54) 
39

>  <r_i_glide_eff_state_penalty>  (54) 
0

>  <ligand_id>  (54) 
20

>  <original_smiles>  (54) 
CC1(C)CCC2(C)CCC3C(C)(CCC4C3(C)CCC3(C)C5C=CC(CC43C)C5(C)C)C2C1

>  <smiles>  (54) 
[H]C1=C([H])C2([H])C(C([H])([H])[H])(C([H])([H])[H])C1([H])C([H])([H])C1(C([H])([H])[H])C3([H])C([H])([H])C([H])([H])C4(C([H])([H])[H])C5([H])C([H])([H])C(C([H])([H])[H])(C([H])([H])[H])C([H])([H])C([H])([H])C5(C([H])([H])[H])C([H])([H])C([H])([H])C4([H])C3(C([H])([H])[H])C([H])([H])C([H])([H])C21C([H])([H])[H]

$$$$
21:0:0
     RDKit          3D

 89 95  0  0  1  0  0  0  0  0999 V2000
    3.7004   -2.8166    6.4306 C   0  0  0  0  0  0  0  0  0  0  0  0
    3.6306   -3.6669    5.1278 C   0  0  2  0  0  0  0  0  0  0  0  0
    3.9415   -2.8555    3.8235 C   0  0  1  0  0  0  0  0  0  0  0  0
    5.2617   -2.0627    3.9252 C   0  0  0  0  0  0  0  0  0  0  0  0
    5.7402   -1.5150    2.5805 C   0  0  0  0  0  0  0  0  0  0  0  0
    5.1973   -1.8239    1.3828 C   0  0  0  0  0  0  0  0  0  0  0  0
    5.7750   -1.2879    0.0838 C   0  0  0  0  0  0  0  0  0  0  0  0
    6.2744   -2.4721   -0.7652 C   0  0  0  0  0  0  0  0  0  0  0  0
    7.2093   -2.3524   -1.5352 O   0  0  0  0  0  0  0  0  0  0  0  0
    5.5617   -3.8091   -0.5996 C   0  0  0  0  0  0  0  0  0  0  0  0
    4.1266   -3.6162   -0.0939 C   0  0  0  0  0  0  0  0  0  0  0  0
    4.0073   -2.7922    1.2333 C   0  0  2  0  0  0  0  0  0  0  0  0
    2.7856   -1.8853    1.0407 C   0  0  0  0  0  0  0  0  0  0  0  0
    3.8781   -3.7389    2.5085 C   0  0  1  0  0  0  0  0  0  0  0  0
    5.0489   -4.7566    2.5267 C   0  0  0  0  0  0  0  0  0  0  0  0
    2.5756   -4.6020    2.5102 C   0  0  0  0  0  0  0  0  0  0  0  0
    2.3777   -5.2511    3.7580 O   0  0  0  0  0  0  0  0  0  0  0  0
    2.2909   -4.4497    4.9430 C   0  0  1  0  0  0  0  0  0  0  0  0
    2.2129   -5.5731    6.0159 C   0  0  0  0  0  0  0  0  0  0  0  0
    0.9486   -3.6205    4.9589 C   0  0  2  0  0  0  0  0  0  0  0  0
    0.7593   -2.4465    3.9421 C   0  0  0  0  0  0  0  0  0  0  0  0
    0.8318   -1.2402    4.8466 C   0  0  1  0  0  0  0  0  0  0  0  0
    0.3171    0.1229    4.3731 C   0  0  2  0  0  0  0  0  0  0  0  0
    1.0561    0.5898    3.1092 C   0  0  0  0  0  0  0  0  0  0  0  0
    0.5573    1.9531    2.6626 C   0  0  0  0  0  0  0  0  0  0  0  0
    0.7121    2.9962    3.7590 C   0  0  0  0  0  0  0  0  0  0  0  0
    1.2966    4.1765    3.5071 C   0  0  0  0  0  0  0  0  0  0  0  0
    1.4513    5.3267    4.4865 C   0  0  0  0  0  0  0  0  0  0  0  0
    0.6790    5.0442    5.7705 C   0  0  0  0  0  0  0  0  0  0  0  0
    0.1068    5.9218    6.3923 O   0  0  0  0  0  0  0  0  0  0  0  0
    0.6651    3.5901    6.2226 C   0  0  0  0  0  0  0  0  0  0  0  0
    0.1268    2.6195    5.1390 C   0  0  1  0  0  0  0  0  0  0  0  0
   -1.4120    2.7332    5.0495 C   0  0  0  0  0  0  0  0  0  0  0  0
    0.5615    1.1620    5.5237 C   0  0  1  0  0  0  0  0  0  0  0  0
   -0.0137    0.6530    6.8855 C   0  0  0  0  0  0  0  0  0  0  0  0
    0.4269   -0.7886    7.2525 C   0  0  0  0  0  0  0  0  0  0  0  0
    0.1317   -1.7482    6.0833 C   0  0  1  0  0  0  0  0  0  0  0  0
   -1.3798   -2.0012    5.9182 C   0  0  0  0  0  0  0  0  0  0  0  0
    0.7026   -3.0434    6.2484 O   0  0  0  0  0  0  0  0  0  0  0  0
    3.0280   -1.9643    6.4043 H   0  0  0  0  0  0  0  0  0  0  0  0
    4.7111   -2.4313    6.6032 H   0  0  0  0  0  0  0  0  0  0  0  0
    3.4457   -3.4191    7.3090 H   0  0  0  0  0  0  0  0  0  0  0  0
    4.4128   -4.4071    5.2557 H   0  0  0  0  0  0  0  0  0  0  0  0
    3.2457   -2.0371    3.7399 H   0  0  0  0  0  0  0  0  0  0  0  0
    5.1078   -1.1832    4.5613 H   0  0  0  0  0  0  0  0  0  0  0  0
    6.0426   -2.6623    4.3912 H   0  0  0  0  0  0  0  0  0  0  0  0
    6.5876   -0.8209    2.6094 H   0  0  0  0  0  0  0  0  0  0  0  0
    5.0260   -0.6974   -0.4543 H   0  0  0  0  0  0  0  0  0  0  0  0
    6.6013   -0.6048    0.3200 H   0  0  0  0  0  0  0  0  0  0  0  0
    5.5663   -4.2897   -1.5714 H   0  0  0  0  0  0  0  0  0  0  0  0
    6.1650   -4.4065    0.0755 H   0  0  0  0  0  0  0  0  0  0  0  0
    3.5921   -3.0995   -0.8975 H   0  0  0  0  0  0  0  0  0  0  0  0
    3.6452   -4.5949   -0.0366 H   0  0  0  0  0  0  0  0  0  0  0  0
    1.8625   -2.4388    0.8688 H   0  0  0  0  0  0  0  0  0  0  0  0
    2.9021   -1.2278    0.1822 H   0  0  0  0  0  0  0  0  0  0  0  0
    2.6807   -1.2241    1.8876 H   0  0  0  0  0  0  0  0  0  0  0  0
    4.9863   -5.4578    1.6911 H   0  0  0  0  0  0  0  0  0  0  0  0
    5.0396   -5.3894    3.4224 H   0  0  0  0  0  0  0  0  0  0  0  0
    6.0441   -4.2888    2.4771 H   0  0  0  0  0  0  0  0  0  0  0  0
    1.6819   -4.0313    2.2891 H   0  0  0  0  0  0  0  0  0  0  0  0
    2.6703   -5.3956    1.7549 H   0  0  0  0  0  0  0  0  0  0  0  0
    2.1110   -5.1846    7.0353 H   0  0  0  0  0  0  0  0  0  0  0  0
    3.1072   -6.2064    6.0058 H   0  0  0  0  0  0  0  0  0  0  0  0
    1.3632   -6.2480    5.8515 H   0  0  0  0  0  0  0  0  0  0  0  0
    0.1547   -4.3363    4.7692 H   0  0  0  0  0  0  0  0  0  0  0  0
    1.5092   -2.3725    3.1951 H   0  0  0  0  0  0  0  0  0  0  0  0
   -0.2323   -2.5118    3.4536 H   0  0  0  0  0  0  0  0  0  0  0  0
    1.8693   -1.0576    5.0954 H   0  0  0  0  0  0  0  0  0  0  0  0
   -0.7527    0.0667    4.1365 H   0  0  0  0  0  0  0  0  0  0  0  0
    2.1318    0.6402    3.2732 H   0  0  0  0  0  0  0  0  0  0  0  0
    0.8775   -0.1101    2.3018 H   0  0  0  0  0  0  0  0  0  0  0  0
    1.0876    2.2651    1.7568 H   0  0  0  0  0  0  0  0  0  0  0  0
   -0.4938    1.8676    2.3923 H   0  0  0  0  0  0  0  0  0  0  0  0
    1.6711    4.3818    2.5041 H   0  0  0  0  0  0  0  0  0  0  0  0
    2.5003    5.4785    4.7094 H   0  0  0  0  0  0  0  0  0  0  0  0
    1.0738    6.2382    4.0293 H   0  0  0  0  0  0  0  0  0  0  0  0
    1.6897    3.3259    6.4816 H   0  0  0  0  0  0  0  0  0  0  0  0
    0.0798    3.5004    7.1390 H   0  0  0  0  0  0  0  0  0  0  0  0
   -1.8822    2.6178    6.0291 H   0  0  0  0  0  0  0  0  0  0  0  0
   -1.8451    1.9864    4.3768 H   0  0  0  0  0  0  0  0  0  0  0  0
   -1.7005    3.7129    4.6668 H   0  0  0  0  0  0  0  0  0  0  0  0
    1.6465    1.2125    5.6674 H   0  0  0  0  0  0  0  0  0  0  0  0
    0.3100    1.3064    7.6898 H   0  0  0  0  0  0  0  0  0  0  0  0
   -1.1004    0.6940    6.8546 H   0  0  0  0  0  0  0  0  0  0  0  0
    1.4997   -0.7933    7.4734 H   0  0  0  0  0  0  0  0  0  0  0  0
   -0.0718   -1.1266    8.1715 H   0  0  0  0  0  0  0  0  0  0  0  0
   -1.9552   -1.0795    5.7604 H   0  0  0  0  0  0  0  0  0  0  0  0
   -1.7781   -2.5610    6.7747 H   0  0  0  0  0  0  0  0  0  0  0  0
   -1.5641   -2.6372    5.0572 H   0  0  0  0  0  0  0  0  0  0  0  0
  1  2  1  0
  1 40  1  0
  1 41  1  0
  1 42  1  0
  2 18  1  0
  2  3  1  0
  2 43  1  1
  3 14  1  0
  3  4  1  0
  3 44  1  6
  4  5  1  0
  4 45  1  0
  4 46  1  0
  5  6  2  0
  5 47  1  0
  6 12  1  0
  6  7  1  0
  7  8  1  0
  7 48  1  0
  7 49  1  0
  8  9  2  0
  8 10  1  0
 10 11  1  0
 10 50  1  0
 10 51  1  0
 11 12  1  0
 11 52  1  0
 11 53  1  0
 12 13  1  6
 12 14  1  0
 13 54  1  0
 13 55  1  0
 13 56  1  0
 14 15  1  1
 14 16  1  0
 15 57  1  0
 15 58  1  0
 15 59  1  0
 16 17  1  0
 16 60  1  0
 16 61  1  0
 17 18  1  0
 18 19  1  1
 18 20  1  0
 19 62  1  0
 19 63  1  0
 19 64  1  0
 20 39  1  0
 20 21  1  0
 20 65  1  6
 21 22  1  0
 21 66  1  0
 21 67  1  0
 22 37  1  0
 22 23  1  0
 22 68  1  1
 23 34  1  0
 23 24  1  0
 23 69  1  6
 24 25  1  0
 24 70  1  0
 24 71  1  0
 25 26  1  0
 25 72  1  0
 25 73  1  0
 26 32  1  0
 26 27  2  0
 27 28  1  0
 27 74  1  0
 28 29  1  0
 28 75  1  0
 28 76  1  0
 29 30  2  0
 29 31  1  0
 31 32  1  0
 31 77  1  0
 31 78  1  0
 32 33  1  6
 32 34  1  0
 33 79  1  0
 33 80  1  0
 33 81  1  0
 34 35  1  0
 34 82  1  1
 35 36  1  0
 35 83  1  0
 35 84  1  0
 36 37  1  0
 36 85  1  0
 36 86  1  0
 37 38  1  6
 37 39  1  0
 38 87  1  0
 38 88  1  0
 38 89  1  0
M  END
>  <i_m_ct_stereo_status>  (55) 
1

>  <s_m_source_file>  (55) 
/var/tmp/pbs.5076255.sched01/tmp9stzsw2m/06nqgg2pe.sdf

>  <i_m_source_file_index>  (55) 
29

>  <i_lp_mmshare_version>  (55) 
48012

>  <i_f3d_flags>  (55) 
0

>  <s_epik_input>  (55) 
W0NIMl0xW0NIMl1DKD1PKVtDSDJdQyhbQ0BAXTEyW0NIM10pPVtDSF1bQ0gyXVtDQEhdM1tDQEBdMihbQ0gzXSlbQ0gyXU9bQ0BAXShbQ0gzXSkoW0NAQEhdM1tDSDNdKVtDQEhdKFtDSDJdNClPW0NAQF0oW0NIM10pKFtDSDJdW0NIMl1bQ0BASF01NilbQ0BASF00W0NAQEhdNVtDSDJdW0NIMl1DKFtDQEBdNjdbQ0gzXSk9W0NIXVtDSDJdQyg9TylbQ0gyXTc=

>  <s_epik_cmdline>  (55) 
J2VwaWtfcHl0aG9uJywgJy1waHQnLCAnMi4wJywgJy1waCcsICc3LjAnLCAnLXRuJywgJzgnLCAnLW1hJywgJzIwMCcsICctaW1hZScsICc8aW5maWxlLm1hZT4nLCAnLW9tYWUnLCAnPG91dGZpbGUubWFlPic=

>  <r_lp_tautomer_probability>  (55) 
1

>  <r_epik_Ionization_Penalty>  (55) 
4.54881e-11

>  <r_epik_Ionization_Penalty_Charging>  (55) 
0

>  <r_epik_Ionization_Penalty_Neutral>  (55) 
4.54881e-11

>  <r_epik_State_Penalty>  (55) 
-0

>  <r_epik_Charging_Adjusted_Penalty>  (55) 
0

>  <i_epik_Tot_Q>  (55) 
0

>  <i_epik_Tot_abs_Q>  (55) 
0

>  <s_lp_Force_Field>  (55) 
OPLS3e

>  <r_lp_Energy>  (55) 
61.0217

>  <b_lp_Chiralities_Consistent>  (55) 
1

>  <s_lp_Variant>  (55) 
21:0-1

>  <s_i_glide_gridfile>  (55) 
pfpi4k_grid

>  <i_i_glide_lignum>  (55) 
29

>  <i_i_glide_rotatable_bonds>  (55) 
1

>  <r_i_docking_score>  (55) 
-2.51875

>  <r_i_glide_ligand_efficiency>  (55) 
-0.0645834

>  <r_i_glide_ligand_efficiency_sa>  (55) 
-0.219016

>  <r_i_glide_ligand_efficiency_ln>  (55) 
-0.540092

>  <r_i_glide_gscore>  (55) 
-2.51875

>  <r_i_glide_lipo>  (55) 
-0.366851

>  <r_i_glide_hbond>  (55) 
-0.16

>  <r_i_glide_metal>  (55) 
-0

>  <r_i_glide_rewards>  (55) 
0

>  <r_i_glide_evdw>  (55) 
-27.6895

>  <r_i_glide_ecoul>  (55) 
-4.30995

>  <r_i_glide_erotb>  (55) 
0.0721745

>  <r_i_glide_esite>  (55) 
-0.0331089

>  <r_i_glide_emodel>  (55) 
-32.4378

>  <r_i_glide_energy>  (55) 
-31.9995

>  <r_i_glide_einternal>  (55) 
7.06411

>  <r_i_glide_intrahb_reward>  (55) 
-0

>  <i_i_glide_confnum>  (55) 
4

>  <i_i_glide_posenum>  (55) 
24

>  <r_i_glide_eff_state_penalty>  (55) 
0

>  <ligand_id>  (55) 
21

>  <original_smiles>  (55) 
CC1C2CC=C3CC(=O)CCC3(C)C2(C)COC1(C)C1CC2C3CCC4=CCC(=O)CC4(C)C3CCC2(C)O1

>  <smiles>  (55) 
[H]C1=C2C([H])([H])C([H])([H])C3([H])C4([H])C([H])([H])C([H])(C5(C([H])([H])[H])OC([H])([H])C6(C([H])([H])[H])C([H])(C([H])([H])C([H])=C7C([H])([H])C(=O)C([H])([H])C([H])([H])C76C([H])([H])[H])C5([H])C([H])([H])[H])OC4(C([H])([H])[H])C([H])([H])C([H])([H])C3([H])C2(C([H])([H])[H])C([H])([H])C(=O)C1([H])[H]

$$$$
21:0:1
     RDKit          3D

 89 95  0  0  1  0  0  0  0  0999 V2000
    2.1572   -2.7763    6.5431 C   0  0  0  0  0  0  0  0  0  0  0  0
    2.6496   -1.3878    6.0212 C   0  0  2  0  0  0  0  0  0  0  0  0
    1.6309   -0.6337    5.0982 C   0  0  1  0  0  0  0  0  0  0  0  0
    0.2021   -0.6045    5.6860 C   0  0  0  0  0  0  0  0  0  0  0  0
   -0.7266    0.3540    4.9754 C   0  0  0  0  0  0  0  0  0  0  0  0
   -0.3455    1.2110    4.0073 C   0  0  0  0  0  0  0  0  0  0  0  0
   -1.3444    2.1708    3.3789 C   0  0  0  0  0  0  0  0  0  0  0  0
   -0.9441    3.6090    3.6904 C   0  0  0  0  0  0  0  0  0  0  0  0
   -1.7879    4.5106    3.7547 O   0  0  0  0  0  0  0  0  0  0  0  0
    0.5528    3.8876    3.8887 C   0  0  0  0  0  0  0  0  0  0  0  0
    1.4279    2.8332    3.1683 C   0  0  0  0  0  0  0  0  0  0  0  0
    1.1208    1.3450    3.5310 C   0  0  2  0  0  0  0  0  0  0  0  0
    1.2094    0.5479    2.1878 C   0  0  0  0  0  0  0  0  0  0  0  0
    2.1109    0.7889    4.6499 C   0  0  1  0  0  0  0  0  0  0  0  0
    2.1682    1.7555    5.8761 C   0  0  0  0  0  0  0  0  0  0  0  0
    3.5646    0.6445    4.1224 C   0  0  0  0  0  0  0  0  0  0  0  0
    4.4089   -0.0407    5.0452 O   0  0  0  0  0  0  0  0  0  0  0  0
    4.0902   -1.3960    5.3812 C   0  0  1  0  0  0  0  0  0  0  0  0
    5.1582   -1.6544    6.4710 C   0  0  0  0  0  0  0  0  0  0  0  0
    4.3054   -2.3256    4.1262 C   0  0  2  0  0  0  0  0  0  0  0  0
    3.0930   -3.0830    3.4997 C   0  0  0  0  0  0  0  0  0  0  0  0
    3.4977   -4.5135    3.8105 C   0  0  1  0  0  0  0  0  0  0  0  0
    2.8123   -5.6726    3.0709 C   0  0  2  0  0  0  0  0  0  0  0  0
    1.2781   -5.6073    3.2124 C   0  0  0  0  0  0  0  0  0  0  0  0
    0.6343   -6.7645    2.4477 C   0  0  0  0  0  0  0  0  0  0  0  0
    1.1482   -8.1044    2.9417 C   0  0  0  0  0  0  0  0  0  0  0  0
    0.2924   -9.0948    3.2771 C   0  0  0  0  0  0  0  0  0  0  0  0
    0.6831  -10.4852    3.7412 C   0  0  0  0  0  0  0  0  0  0  0  0
    2.1795  -10.7072    3.5890 C   0  0  0  0  0  0  0  0  0  0  0  0
    2.6503  -11.7988    3.2861 O   0  0  0  0  0  0  0  0  0  0  0  0
    3.0673   -9.5038    3.8535 C   0  0  0  0  0  0  0  0  0  0  0  0
    2.6856   -8.2670    2.9949 C   0  0  1  0  0  0  0  0  0  0  0  0
    3.1960   -8.4738    1.5520 C   0  0  0  0  0  0  0  0  0  0  0  0
    3.3383   -7.0090    3.6611 C   0  0  1  0  0  0  0  0  0  0  0  0
    4.8989   -7.0348    3.7122 C   0  0  0  0  0  0  0  0  0  0  0  0
    5.5346   -5.7773    4.3569 C   0  0  0  0  0  0  0  0  0  0  0  0
    5.0169   -4.5059    3.6681 C   0  0  1  0  0  0  0  0  0  0  0  0
    5.5440   -4.3272    2.2286 C   0  0  0  0  0  0  0  0  0  0  0  0
    5.3207   -3.3261    4.3933 O   0  0  0  0  0  0  0  0  0  0  0  0
    1.8547   -3.4314    5.7306 H   0  0  0  0  0  0  0  0  0  0  0  0
    1.3067   -2.6486    7.2366 H   0  0  0  0  0  0  0  0  0  0  0  0
    2.9405   -3.2518    7.1534 H   0  0  0  0  0  0  0  0  0  0  0  0
    2.7489   -0.7887    6.9376 H   0  0  0  0  0  0  0  0  0  0  0  0
    1.5540   -1.1986    4.1911 H   0  0  0  0  0  0  0  0  0  0  0  0
   -0.2057   -1.6023    5.5753 H   0  0  0  0  0  0  0  0  0  0  0  0
    0.2044   -0.3687    6.7560 H   0  0  0  0  0  0  0  0  0  0  0  0
   -1.7617    0.3171    5.2791 H   0  0  0  0  0  0  0  0  0  0  0  0
   -1.3881    2.0245    2.2977 H   0  0  0  0  0  0  0  0  0  0  0  0
   -2.3431    1.9829    3.7792 H   0  0  0  0  0  0  0  0  0  0  0  0
    0.7822    4.8783    3.5028 H   0  0  0  0  0  0  0  0  0  0  0  0
    0.7637    3.9057    4.9570 H   0  0  0  0  0  0  0  0  0  0  0  0
    1.2666    2.9540    2.0985 H   0  0  0  0  0  0  0  0  0  0  0  0
    2.4831    3.0780    3.2955 H   0  0  0  0  0  0  0  0  0  0  0  0
    2.1700    0.6594    1.6879 H   0  0  0  0  0  0  0  0  0  0  0  0
    0.4666    0.8954    1.4720 H   0  0  0  0  0  0  0  0  0  0  0  0
    1.0106   -0.5146    2.2816 H   0  0  0  0  0  0  0  0  0  0  0  0
    2.5985    2.7211    5.6056 H   0  0  0  0  0  0  0  0  0  0  0  0
    2.7968    1.3568    6.6698 H   0  0  0  0  0  0  0  0  0  0  0  0
    1.1770    1.9287    6.2946 H   0  0  0  0  0  0  0  0  0  0  0  0
    3.6038    0.1175    3.1751 H   0  0  0  0  0  0  0  0  0  0  0  0
    4.0112    1.6213    3.9393 H   0  0  0  0  0  0  0  0  0  0  0  0
    5.1080   -2.6664    6.8613 H   0  0  0  0  0  0  0  0  0  0  0  0
    5.0665   -0.9749    7.3210 H   0  0  0  0  0  0  0  0  0  0  0  0
    6.1651   -1.5186    6.0815 H   0  0  0  0  0  0  0  0  0  0  0  0
    4.7818   -1.7183    3.3460 H   0  0  0  0  0  0  0  0  0  0  0  0
    2.1098   -2.9332    3.9230 H   0  0  0  0  0  0  0  0  0  0  0  0
    3.0969   -2.9150    2.4036 H   0  0  0  0  0  0  0  0  0  0  0  0
    3.3186   -4.6843    4.8713 H   0  0  0  0  0  0  0  0  0  0  0  0
    3.0555   -5.5935    2.0101 H   0  0  0  0  0  0  0  0  0  0  0  0
    0.9775   -5.6578    4.2627 H   0  0  0  0  0  0  0  0  0  0  0  0
    0.8965   -4.6588    2.8333 H   0  0  0  0  0  0  0  0  0  0  0  0
   -0.4499   -6.7279    2.5378 H   0  0  0  0  0  0  0  0  0  0  0  0
    0.8705   -6.6758    1.3888 H   0  0  0  0  0  0  0  0  0  0  0  0
   -0.7701   -8.9275    3.2232 H   0  0  0  0  0  0  0  0  0  0  0  0
    0.3952  -10.6292    4.7821 H   0  0  0  0  0  0  0  0  0  0  0  0
    0.1546  -11.2289    3.1464 H   0  0  0  0  0  0  0  0  0  0  0  0
    2.9658   -9.2800    4.9146 H   0  0  0  0  0  0  0  0  0  0  0  0
    4.1044   -9.7870    3.6922 H   0  0  0  0  0  0  0  0  0  0  0  0
    4.2512   -8.7397    1.5267 H   0  0  0  0  0  0  0  0  0  0  0  0
    3.0550   -7.5826    0.9441 H   0  0  0  0  0  0  0  0  0  0  0  0
    2.6521   -9.2837    1.0671 H   0  0  0  0  0  0  0  0  0  0  0  0
    3.0111   -7.0300    4.7034 H   0  0  0  0  0  0  0  0  0  0  0  0
    5.2352   -7.9013    4.2788 H   0  0  0  0  0  0  0  0  0  0  0  0
    5.2992   -7.1472    2.7026 H   0  0  0  0  0  0  0  0  0  0  0  0
    5.2917   -5.7430    5.4235 H   0  0  0  0  0  0  0  0  0  0  0  0
    6.6202   -5.8147    4.2947 H   0  0  0  0  0  0  0  0  0  0  0  0
    5.3123   -5.1828    1.5997 H   0  0  0  0  0  0  0  0  0  0  0  0
    6.6230   -4.1903    2.2439 H   0  0  0  0  0  0  0  0  0  0  0  0
    5.1209   -3.4497    1.7415 H   0  0  0  0  0  0  0  0  0  0  0  0
  1  2  1  0
  1 40  1  0
  1 41  1  0
  1 42  1  0
  2 18  1  0
  2  3  1  0
  2 43  1  1
  3 14  1  0
  3  4  1  0
  3 44  1  6
  4  5  1  0
  4 45  1  0
  4 46  1  0
  5  6  2  0
  5 47  1  0
  6 12  1  0
  6  7  1  0
  7  8  1  0
  7 48  1  0
  7 49  1  0
  8  9  2  0
  8 10  1  0
 10 11  1  0
 10 50  1  0
 10 51  1  0
 11 12  1  0
 11 52  1  0
 11 53  1  0
 12 13  1  6
 12 14  1  0
 13 54  1  0
 13 55  1  0
 13 56  1  0
 14 15  1  1
 14 16  1  0
 15 57  1  0
 15 58  1  0
 15 59  1  0
 16 17  1  0
 16 60  1  0
 16 61  1  0
 17 18  1  0
 18 19  1  1
 18 20  1  0
 19 62  1  0
 19 63  1  0
 19 64  1  0
 20 39  1  0
 20 21  1  0
 20 65  1  6
 21 22  1  0
 21 66  1  0
 21 67  1  0
 22 37  1  0
 22 23  1  0
 22 68  1  1
 23 34  1  0
 23 24  1  0
 23 69  1  6
 24 25  1  0
 24 70  1  0
 24 71  1  0
 25 26  1  0
 25 72  1  0
 25 73  1  0
 26 32  1  0
 26 27  2  0
 27 28  1  0
 27 74  1  0
 28 29  1  0
 28 75  1  0
 28 76  1  0
 29 30  2  0
 29 31  1  0
 31 32  1  0
 31 77  1  0
 31 78  1  0
 32 33  1  6
 32 34  1  0
 33 79  1  0
 33 80  1  0
 33 81  1  0
 34 35  1  0
 34 82  1  1
 35 36  1  0
 35 83  1  0
 35 84  1  0
 36 37  1  0
 36 85  1  0
 36 86  1  0
 37 38  1  6
 37 39  1  0
 38 87  1  0
 38 88  1  0
 38 89  1  0
M  END
>  <i_m_ct_stereo_status>  (56) 
1

>  <s_m_source_file>  (56) 
/var/tmp/pbs.5076255.sched01/tmp9stzsw2m/06nqgg2pe.sdf

>  <i_m_source_file_index>  (56) 
29

>  <i_lp_mmshare_version>  (56) 
48012

>  <i_f3d_flags>  (56) 
0

>  <s_epik_input>  (56) 
W0NIMl0xW0NIMl1DKD1PKVtDSDJdQyhbQ0BAXTEyW0NIM10pPVtDSF1bQ0gyXVtDQEhdM1tDQEBdMihbQ0gzXSlbQ0gyXU9bQ0BAXShbQ0gzXSkoW0NAQEhdM1tDSDNdKVtDQEhdKFtDSDJdNClPW0NAQF0oW0NIM10pKFtDSDJdW0NIMl1bQ0BASF01NilbQ0BASF00W0NAQEhdNVtDSDJdW0NIMl1DKFtDQEBdNjdbQ0gzXSk9W0NIXVtDSDJdQyg9TylbQ0gyXTc=

>  <s_epik_cmdline>  (56) 
J2VwaWtfcHl0aG9uJywgJy1waHQnLCAnMi4wJywgJy1waCcsICc3LjAnLCAnLXRuJywgJzgnLCAnLW1hJywgJzIwMCcsICctaW1hZScsICc8aW5maWxlLm1hZT4nLCAnLW9tYWUnLCAnPG91dGZpbGUubWFlPic=

>  <r_lp_tautomer_probability>  (56) 
1

>  <r_epik_Ionization_Penalty>  (56) 
4.54881e-11

>  <r_epik_Ionization_Penalty_Charging>  (56) 
0

>  <r_epik_Ionization_Penalty_Neutral>  (56) 
4.54881e-11

>  <r_epik_State_Penalty>  (56) 
-0

>  <r_epik_Charging_Adjusted_Penalty>  (56) 
0

>  <i_epik_Tot_Q>  (56) 
0

>  <i_epik_Tot_abs_Q>  (56) 
0

>  <s_lp_Force_Field>  (56) 
OPLS3e

>  <r_lp_Energy>  (56) 
61.0217

>  <b_lp_Chiralities_Consistent>  (56) 
1

>  <s_lp_Variant>  (56) 
21:0-1

>  <s_i_glide_gridfile>  (56) 
pfpi4k_grid

>  <i_i_glide_lignum>  (56) 
29

>  <i_i_glide_rotatable_bonds>  (56) 
1

>  <r_i_docking_score>  (56) 
-2.40216

>  <r_i_glide_ligand_efficiency>  (56) 
-0.0615938

>  <r_i_glide_ligand_efficiency_sa>  (56) 
-0.208878

>  <r_i_glide_ligand_efficiency_ln>  (56) 
-0.515091

>  <r_i_glide_gscore>  (56) 
-2.40216

>  <r_i_glide_lipo>  (56) 
-0.0475498

>  <r_i_glide_hbond>  (56) 
-0.16

>  <r_i_glide_metal>  (56) 
-0

>  <r_i_glide_rewards>  (56) 
-0.0440369

>  <r_i_glide_evdw>  (56) 
-34.6148

>  <r_i_glide_ecoul>  (56) 
-2.73034

>  <r_i_glide_erotb>  (56) 
0.0721745

>  <r_i_glide_esite>  (56) 
-0.0824561

>  <r_i_glide_emodel>  (56) 
-37.6166

>  <r_i_glide_energy>  (56) 
-37.3451

>  <r_i_glide_einternal>  (56) 
7.04491

>  <r_i_glide_intrahb_reward>  (56) 
-0

>  <i_i_glide_confnum>  (56) 
3

>  <i_i_glide_posenum>  (56) 
18

>  <r_i_glide_eff_state_penalty>  (56) 
0

>  <ligand_id>  (56) 
21

>  <original_smiles>  (56) 
CC1C2CC=C3CC(=O)CCC3(C)C2(C)COC1(C)C1CC2C3CCC4=CCC(=O)CC4(C)C3CCC2(C)O1

>  <smiles>  (56) 
[H]C1=C2C([H])([H])C([H])([H])C3([H])C4([H])C([H])([H])C([H])(C5(C([H])([H])[H])OC([H])([H])C6(C([H])([H])[H])C([H])(C([H])([H])C([H])=C7C([H])([H])C(=O)C([H])([H])C([H])([H])C76C([H])([H])[H])C5([H])C([H])([H])[H])OC4(C([H])([H])[H])C([H])([H])C([H])([H])C3([H])C2(C([H])([H])[H])C([H])([H])C(=O)C1([H])[H]

$$$$
21:0:2
     RDKit          3D

 89 95  0  0  1  0  0  0  0  0999 V2000
    4.2195   -2.3800    5.0399 C   0  0  0  0  0  0  0  0  0  0  0  0
    3.9760   -1.0618    4.2284 C   0  0  2  0  0  0  0  0  0  0  0  0
    2.5732   -0.4085    4.4954 C   0  0  1  0  0  0  0  0  0  0  0  0
    2.2475   -0.2911    6.0008 C   0  0  0  0  0  0  0  0  0  0  0  0
    1.0468    0.5772    6.2889 C   0  0  0  0  0  0  0  0  0  0  0  0
    0.3779    1.2970    5.3575 C   0  0  0  0  0  0  0  0  0  0  0  0
   -0.7897    2.1760    5.7507 C   0  0  0  0  0  0  0  0  0  0  0  0
   -0.4485    3.6341    5.4555 C   0  0  0  0  0  0  0  0  0  0  0  0
   -0.9693    4.5428    6.0914 O   0  0  0  0  0  0  0  0  0  0  0  0
    0.5352    3.9194    4.3206 C   0  0  0  0  0  0  0  0  0  0  0  0
    0.5245    2.7759    3.2884 C   0  0  0  0  0  0  0  0  0  0  0  0
    0.7963    1.3476    3.8727 C   0  0  2  0  0  0  0  0  0  0  0  0
   -0.1783    0.3913    3.1175 C   0  0  0  0  0  0  0  0  0  0  0  0
    2.3254    0.9279    3.7214 C   0  0  1  0  0  0  0  0  0  0  0  0
    3.2701    2.0334    4.2772 C   0  0  0  0  0  0  0  0  0  0  0  0
    2.7236    0.6846    2.2376 C   0  0  0  0  0  0  0  0  0  0  0  0
    4.0244    0.1148    2.1091 O   0  0  0  0  0  0  0  0  0  0  0  0
    4.2446   -1.1799    2.6853 C   0  0  1  0  0  0  0  0  0  0  0  0
    5.7638   -1.3222    2.4165 C   0  0  0  0  0  0  0  0  0  0  0  0
    3.4422   -2.2753    1.8851 C   0  0  2  0  0  0  0  0  0  0  0  0
    2.2573   -3.0033    2.5971 C   0  0  0  0  0  0  0  0  0  0  0  0
    2.7734   -4.4186    2.6432 C   0  0  1  0  0  0  0  0  0  0  0  0
    1.7878   -5.5706    2.8907 C   0  0  2  0  0  0  0  0  0  0  0  0
    0.9529   -5.3446    4.1719 C   0  0  0  0  0  0  0  0  0  0  0  0
   -0.0019   -6.5147    4.3895 C   0  0  0  0  0  0  0  0  0  0  0  0
    0.7501   -7.8380    4.4910 C   0  0  0  0  0  0  0  0  0  0  0  0
    0.5263   -8.6800    5.4876 C   0  0  0  0  0  0  0  0  0  0  0  0
    1.1736  -10.0520    5.6767 C   0  0  0  0  0  0  0  0  0  0  0  0
    1.9797  -10.4287    4.4415 C   0  0  0  0  0  0  0  0  0  0  0  0
    2.0643  -11.5916    4.0524 O   0  0  0  0  0  0  0  0  0  0  0  0
    2.6943   -9.2947    3.7341 C   0  0  0  0  0  0  0  0  0  0  0  0
    1.7452   -8.1301    3.3339 C   0  0  1  0  0  0  0  0  0  0  0  0
    0.9270   -8.5431    2.0937 C   0  0  0  0  0  0  0  0  0  0  0  0
    2.6255   -6.8744    3.0378 C   0  0  1  0  0  0  0  0  0  0  0  0
    3.6289   -7.0411    1.8498 C   0  0  0  0  0  0  0  0  0  0  0  0
    4.4840   -5.7812    1.5536 C   0  0  0  0  0  0  0  0  0  0  0  0
    3.5812   -4.5516    1.3658 C   0  0  1  0  0  0  0  0  0  0  0  0
    2.7668   -4.5870    0.0492 C   0  0  0  0  0  0  0  0  0  0  0  0
    4.2957   -3.3251    1.3949 O   0  0  0  0  0  0  0  0  0  0  0  0
    3.4450   -3.1331    4.9071 H   0  0  0  0  0  0  0  0  0  0  0  0
    4.3161   -2.1455    6.1121 H   0  0  0  0  0  0  0  0  0  0  0  0
    5.1777   -2.8196    4.7484 H   0  0  0  0  0  0  0  0  0  0  0  0
    4.7246   -0.3668    4.5999 H   0  0  0  0  0  0  0  0  0  0  0  0
    1.8106   -1.0407    4.1236 H   0  0  0  0  0  0  0  0  0  0  0  0
    2.0130   -1.2931    6.3539 H   0  0  0  0  0  0  0  0  0  0  0  0
    3.0957    0.0637    6.5872 H   0  0  0  0  0  0  0  0  0  0  0  0
    0.7157    0.5958    7.3224 H   0  0  0  0  0  0  0  0  0  0  0  0
   -1.6894    1.9006    5.2016 H   0  0  0  0  0  0  0  0  0  0  0  0
   -0.9980    2.0729    6.8168 H   0  0  0  0  0  0  0  0  0  0  0  0
    0.2610    4.8570    3.8375 H   0  0  0  0  0  0  0  0  0  0  0  0
    1.5278    4.0638    4.7448 H   0  0  0  0  0  0  0  0  0  0  0  0
   -0.4622    2.7954    2.8212 H   0  0  0  0  0  0  0  0  0  0  0  0
    1.2047    3.0148    2.4667 H   0  0  0  0  0  0  0  0  0  0  0  0
   -0.0514    0.4229    2.0349 H   0  0  0  0  0  0  0  0  0  0  0  0
   -1.2166    0.6582    3.3045 H   0  0  0  0  0  0  0  0  0  0  0  0
   -0.1103   -0.6482    3.4222 H   0  0  0  0  0  0  0  0  0  0  0  0
    3.2114    2.9550    3.6907 H   0  0  0  0  0  0  0  0  0  0  0  0
    4.3178    1.7259    4.2371 H   0  0  0  0  0  0  0  0  0  0  0  0
    3.0457    2.2762    5.3202 H   0  0  0  0  0  0  0  0  0  0  0  0
    2.0280    0.0309    1.7219 H   0  0  0  0  0  0  0  0  0  0  0  0
    2.7295    1.6197    1.6793 H   0  0  0  0  0  0  0  0  0  0  0  0
    6.1495   -2.2793    2.7633 H   0  0  0  0  0  0  0  0  0  0  0  0
    6.3523   -0.5425    2.9085 H   0  0  0  0  0  0  0  0  0  0  0  0
    6.0012   -1.2598    1.3525 H   0  0  0  0  0  0  0  0  0  0  0  0
    3.0700   -1.8059    0.9752 H   0  0  0  0  0  0  0  0  0  0  0  0
    1.9895   -2.7755    3.6037 H   0  0  0  0  0  0  0  0  0  0  0  0
    1.3541   -2.8951    2.0117 H   0  0  0  0  0  0  0  0  0  0  0  0
    3.4969   -4.4422    3.4511 H   0  0  0  0  0  0  0  0  0  0  0  0
    1.0908   -5.6545    2.0506 H   0  0  0  0  0  0  0  0  0  0  0  0
    1.5967   -5.2398    5.0499 H   0  0  0  0  0  0  0  0  0  0  0  0
    0.3780   -4.4220    4.1077 H   0  0  0  0  0  0  0  0  0  0  0  0
   -0.6044   -6.3599    5.2880 H   0  0  0  0  0  0  0  0  0  0  0  0
   -0.6988   -6.5784    3.5564 H   0  0  0  0  0  0  0  0  0  0  0  0
   -0.1864   -8.4283    6.2701 H   0  0  0  0  0  0  0  0  0  0  0  0
    1.8249  -10.0463    6.5442 H   0  0  0  0  0  0  0  0  0  0  0  0
    0.4031  -10.7982    5.8480 H   0  0  0  0  0  0  0  0  0  0  0  0
    3.4614   -8.9383    4.4214 H   0  0  0  0  0  0  0  0  0  0  0  0
    3.2194   -9.6877    2.8638 H   0  0  0  0  0  0  0  0  0  0  0  0
    1.5682   -8.9070    1.2886 H   0  0  0  0  0  0  0  0  0  0  0  0
    0.3229   -7.7245    1.7014 H   0  0  0  0  0  0  0  0  0  0  0  0
    0.2406   -9.3541    2.3394 H   0  0  0  0  0  0  0  0  0  0  0  0
    3.2435   -6.7369    3.9309 H   0  0  0  0  0  0  0  0  0  0  0  0
    4.3114   -7.8615    2.0579 H   0  0  0  0  0  0  0  0  0  0  0  0
    3.0826   -7.3037    0.9451 H   0  0  0  0  0  0  0  0  0  0  0  0
    5.1680   -5.5967    2.3866 H   0  0  0  0  0  0  0  0  0  0  0  0
    5.1130   -5.9290    0.6698 H   0  0  0  0  0  0  0  0  0  0  0  0
    2.1571   -5.4907   -0.0301 H   0  0  0  0  0  0  0  0  0  0  0  0
    3.4468   -4.5451   -0.8078 H   0  0  0  0  0  0  0  0  0  0  0  0
    2.0932   -3.7298   -0.0370 H   0  0  0  0  0  0  0  0  0  0  0  0
  1  2  1  0
  1 40  1  0
  1 41  1  0
  1 42  1  0
  2 18  1  0
  2  3  1  0
  2 43  1  1
  3 14  1  0
  3  4  1  0
  3 44  1  6
  4  5  1  0
  4 45  1  0
  4 46  1  0
  5  6  2  0
  5 47  1  0
  6 12  1  0
  6  7  1  0
  7  8  1  0
  7 48  1  0
  7 49  1  0
  8  9  2  0
  8 10  1  0
 10 11  1  0
 10 50  1  0
 10 51  1  0
 11 12  1  0
 11 52  1  0
 11 53  1  0
 12 13  1  6
 12 14  1  0
 13 54  1  0
 13 55  1  0
 13 56  1  0
 14 15  1  1
 14 16  1  0
 15 57  1  0
 15 58  1  0
 15 59  1  0
 16 17  1  0
 16 60  1  0
 16 61  1  0
 17 18  1  0
 18 19  1  1
 18 20  1  0
 19 62  1  0
 19 63  1  0
 19 64  1  0
 20 39  1  0
 20 21  1  0
 20 65  1  6
 21 22  1  0
 21 66  1  0
 21 67  1  0
 22 37  1  0
 22 23  1  0
 22 68  1  1
 23 34  1  0
 23 24  1  0
 23 69  1  6
 24 25  1  0
 24 70  1  0
 24 71  1  0
 25 26  1  0
 25 72  1  0
 25 73  1  0
 26 32  1  0
 26 27  2  0
 27 28  1  0
 27 74  1  0
 28 29  1  0
 28 75  1  0
 28 76  1  0
 29 30  2  0
 29 31  1  0
 31 32  1  0
 31 77  1  0
 31 78  1  0
 32 33  1  6
 32 34  1  0
 33 79  1  0
 33 80  1  0
 33 81  1  0
 34 35  1  0
 34 82  1  1
 35 36  1  0
 35 83  1  0
 35 84  1  0
 36 37  1  0
 36 85  1  0
 36 86  1  0
 37 38  1  6
 37 39  1  0
 38 87  1  0
 38 88  1  0
 38 89  1  0
M  END
>  <i_m_ct_stereo_status>  (57) 
1

>  <s_m_source_file>  (57) 
/var/tmp/pbs.5076255.sched01/tmp9stzsw2m/06nqgg2pe.sdf

>  <i_m_source_file_index>  (57) 
29

>  <i_lp_mmshare_version>  (57) 
48012

>  <i_f3d_flags>  (57) 
0

>  <s_epik_input>  (57) 
W0NIMl0xW0NIMl1DKD1PKVtDSDJdQyhbQ0BAXTEyW0NIM10pPVtDSF1bQ0gyXVtDQEhdM1tDQEBdMihbQ0gzXSlbQ0gyXU9bQ0BAXShbQ0gzXSkoW0NAQEhdM1tDSDNdKVtDQEhdKFtDSDJdNClPW0NAQF0oW0NIM10pKFtDSDJdW0NIMl1bQ0BASF01NilbQ0BASF00W0NAQEhdNVtDSDJdW0NIMl1DKFtDQEBdNjdbQ0gzXSk9W0NIXVtDSDJdQyg9TylbQ0gyXTc=

>  <s_epik_cmdline>  (57) 
J2VwaWtfcHl0aG9uJywgJy1waHQnLCAnMi4wJywgJy1waCcsICc3LjAnLCAnLXRuJywgJzgnLCAnLW1hJywgJzIwMCcsICctaW1hZScsICc8aW5maWxlLm1hZT4nLCAnLW9tYWUnLCAnPG91dGZpbGUubWFlPic=

>  <r_lp_tautomer_probability>  (57) 
1

>  <r_epik_Ionization_Penalty>  (57) 
4.54881e-11

>  <r_epik_Ionization_Penalty_Charging>  (57) 
0

>  <r_epik_Ionization_Penalty_Neutral>  (57) 
4.54881e-11

>  <r_epik_State_Penalty>  (57) 
-0

>  <r_epik_Charging_Adjusted_Penalty>  (57) 
0

>  <i_epik_Tot_Q>  (57) 
0

>  <i_epik_Tot_abs_Q>  (57) 
0

>  <s_lp_Force_Field>  (57) 
OPLS3e

>  <r_lp_Energy>  (57) 
61.0217

>  <b_lp_Chiralities_Consistent>  (57) 
1

>  <s_lp_Variant>  (57) 
21:0-1

>  <s_i_glide_gridfile>  (57) 
pfpi4k_grid

>  <i_i_glide_lignum>  (57) 
29

>  <i_i_glide_rotatable_bonds>  (57) 
1

>  <r_i_docking_score>  (57) 
-2.12894

>  <r_i_glide_ligand_efficiency>  (57) 
-0.0545881

>  <r_i_glide_ligand_efficiency_sa>  (57) 
-0.18512

>  <r_i_glide_ligand_efficiency_ln>  (57) 
-0.456504

>  <r_i_glide_gscore>  (57) 
-2.12894

>  <r_i_glide_lipo>  (57) 
-0.284655

>  <r_i_glide_hbond>  (57) 
0

>  <r_i_glide_metal>  (57) 
-0

>  <r_i_glide_rewards>  (57) 
0

>  <r_i_glide_evdw>  (57) 
-34.4544

>  <r_i_glide_ecoul>  (57) 
-1.06434

>  <r_i_glide_erotb>  (57) 
0.0721745

>  <r_i_glide_esite>  (57) 
-0.034086

>  <r_i_glide_emodel>  (57) 
-34.8371

>  <r_i_glide_energy>  (57) 
-35.5187

>  <r_i_glide_einternal>  (57) 
7.00431

>  <r_i_glide_intrahb_reward>  (57) 
-0

>  <i_i_glide_confnum>  (57) 
3

>  <i_i_glide_posenum>  (57) 
11

>  <r_i_glide_eff_state_penalty>  (57) 
0

>  <ligand_id>  (57) 
21

>  <original_smiles>  (57) 
CC1C2CC=C3CC(=O)CCC3(C)C2(C)COC1(C)C1CC2C3CCC4=CCC(=O)CC4(C)C3CCC2(C)O1

>  <smiles>  (57) 
[H]C1=C2C([H])([H])C([H])([H])C3([H])C4([H])C([H])([H])C([H])(C5(C([H])([H])[H])OC([H])([H])C6(C([H])([H])[H])C([H])(C([H])([H])C([H])=C7C([H])([H])C(=O)C([H])([H])C([H])([H])C76C([H])([H])[H])C5([H])C([H])([H])[H])OC4(C([H])([H])[H])C([H])([H])C([H])([H])C3([H])C2(C([H])([H])[H])C([H])([H])C(=O)C1([H])[H]

$$$$
22:0:0
     RDKit          3D

 63 68  0  0  1  0  0  0  0  0999 V2000
    1.0968   -5.4878    3.6198 C   0  0  0  0  0  0  0  0  0  0  0  0
    2.2724   -4.5099    3.8670 C   0  0  0  0  0  0  0  0  0  0  0  0
    3.0162   -5.0975    5.0834 C   0  0  0  0  0  0  0  0  0  0  0  0
    3.2604   -4.6940    2.5499 C   0  0  2  0  0  0  0  0  0  0  0  0
    4.8371   -4.8751    2.4365 C   0  0  1  0  0  0  0  0  0  0  0  0
    5.2154   -6.2135    2.6813 O   0  0  0  0  0  0  0  0  0  0  0  0
    5.1887   -4.4090    0.9465 C   0  0  2  0  0  0  0  0  0  0  0  0
    4.9770   -5.5517    0.1202 O   0  0  0  0  0  0  0  0  0  0  0  0
    6.5122   -3.7204    0.4808 C   0  0  0  0  0  0  0  0  0  0  0  0
    6.1627   -2.3123   -0.1561 C   0  0  1  0  0  0  0  0  0  0  0  0
    5.9679   -2.3278   -1.5510 O   0  0  0  0  0  0  0  0  0  0  0  0
    4.9426   -1.8410    0.7005 C   0  0  1  0  0  0  0  0  0  0  0  0
    5.8078   -1.2189    1.8568 C   0  0  0  0  0  0  0  0  0  0  0  0
    3.9000   -0.6636    0.4110 C   0  0  0  0  0  0  0  0  0  0  0  0
    2.9688    0.0967    1.5260 C   0  0  0  0  0  0  0  0  0  0  0  0
    2.1555   -0.4192    2.8637 C   0  0  2  0  0  0  0  0  0  0  0  0
    0.9222    0.2742    2.8238 O   0  0  0  0  0  0  0  0  0  0  0  0
    2.9153   -0.0286    4.1934 C   0  0  1  0  0  0  0  0  0  0  0  0
    2.1578    0.7644    5.0939 O   0  0  0  0  0  0  0  0  0  0  0  0
    3.4289   -1.3052    4.9059 C   0  0  2  0  0  0  0  0  0  0  0  0
    4.0508   -2.1362    3.8175 C   0  0  0  0  0  0  0  0  0  0  0  0
    3.2015   -2.3798    2.7680 C   0  0  0  0  0  0  0  0  0  0  0  0
    1.8248   -1.9526    2.9217 C   0  0  1  0  0  0  0  0  0  0  0  0
    1.6245   -2.9514    4.1648 C   0  0  1  0  0  0  0  0  0  0  0  0
    0.2471   -3.0160    4.4745 O   0  0  0  0  0  0  0  0  0  0  0  0
    2.2545   -2.1906    5.3934 C   0  0  0  0  0  0  0  0  0  0  0  0
    3.1798   -3.4452    1.7583 C   0  0  1  0  0  0  0  0  0  0  0  0
    4.1901   -3.2712    0.6754 C   0  0  2  0  0  0  0  0  0  0  0  0
    3.3931   -3.5456   -0.6693 C   0  0  0  0  0  0  0  0  0  0  0  0
    1.4560   -6.4988    3.4044 H   0  0  0  0  0  0  0  0  0  0  0  0
    0.5011   -5.1706    2.7695 H   0  0  0  0  0  0  0  0  0  0  0  0
    0.4518   -5.5691    4.4931 H   0  0  0  0  0  0  0  0  0  0  0  0
    3.9216   -4.5448    5.3208 H   0  0  0  0  0  0  0  0  0  0  0  0
    3.3241   -6.1307    4.9021 H   0  0  0  0  0  0  0  0  0  0  0  0
    2.3816   -5.1105    5.9664 H   0  0  0  0  0  0  0  0  0  0  0  0
    2.8523   -5.4936    1.9221 H   0  0  0  0  0  0  0  0  0  0  0  0
    5.3995   -4.2863    3.1429 H   0  0  0  0  0  0  0  0  0  0  0  0
    4.7856   -6.7430    2.0277 H   0  0  0  0  0  0  0  0  0  0  0  0
    4.9087   -5.2613   -0.7768 H   0  0  0  0  0  0  0  0  0  0  0  0
    7.1694   -3.5942    1.3422 H   0  0  0  0  0  0  0  0  0  0  0  0
    7.0900   -4.3303   -0.2133 H   0  0  0  0  0  0  0  0  0  0  0  0
    7.0473   -1.6770   -0.0964 H   0  0  0  0  0  0  0  0  0  0  0  0
    5.2240   -2.8754   -1.7467 H   0  0  0  0  0  0  0  0  0  0  0  0
    5.2764   -0.5304    2.5060 H   0  0  0  0  0  0  0  0  0  0  0  0
    6.5632   -0.5310    1.4808 H   0  0  0  0  0  0  0  0  0  0  0  0
    6.3334   -1.9478    2.4656 H   0  0  0  0  0  0  0  0  0  0  0  0
    4.4924    0.1394   -0.0304 H   0  0  0  0  0  0  0  0  0  0  0  0
    3.2416   -0.9301   -0.4091 H   0  0  0  0  0  0  0  0  0  0  0  0
    3.5501    0.9629    1.8474 H   0  0  0  0  0  0  0  0  0  0  0  0
    2.2075    0.5559    0.8908 H   0  0  0  0  0  0  0  0  0  0  0  0
    0.5849    0.2195    1.9418 H   0  0  0  0  0  0  0  0  0  0  0  0
    3.7799    0.5911    3.9511 H   0  0  0  0  0  0  0  0  0  0  0  0
    1.8502    1.5153    4.6092 H   0  0  0  0  0  0  0  0  0  0  0  0
    4.1364   -1.0628    5.7002 H   0  0  0  0  0  0  0  0  0  0  0  0
    5.0213   -2.5571    4.0228 H   0  0  0  0  0  0  0  0  0  0  0  0
    1.1108   -2.1615    2.1239 H   0  0  0  0  0  0  0  0  0  0  0  0
   -0.1996   -3.4214    3.7422 H   0  0  0  0  0  0  0  0  0  0  0  0
    2.5979   -2.8598    6.1755 H   0  0  0  0  0  0  0  0  0  0  0  0
    1.5063   -1.5649    5.8877 H   0  0  0  0  0  0  0  0  0  0  0  0
    2.2099   -3.5321    1.2749 H   0  0  0  0  0  0  0  0  0  0  0  0
    2.6204   -2.8067   -0.8861 H   0  0  0  0  0  0  0  0  0  0  0  0
    2.8327   -4.4828   -0.6021 H   0  0  0  0  0  0  0  0  0  0  0  0
    3.9984   -3.6604   -1.5640 H   0  0  0  0  0  0  0  0  0  0  0  0
  1  2  1  0
  1 30  1  0
  1 31  1  0
  1 32  1  0
  2 24  1  0
  2  3  1  0
  2  4  1  0
  3 33  1  0
  3 34  1  0
  3 35  1  0
  4 27  1  0
  4  5  1  0
  4 36  1  6
  5  6  1  0
  5  7  1  0
  5 37  1  1
  6 38  1  0
  7 28  1  0
  7  8  1  6
  7  9  1  0
  8 39  1  0
  9 10  1  0
  9 40  1  0
  9 41  1  0
 10 11  1  0
 10 12  1  0
 10 42  1  6
 11 43  1  0
 12 28  1  0
 12 13  1  1
 12 14  1  0
 13 44  1  0
 13 45  1  0
 13 46  1  0
 14 15  1  0
 14 47  1  0
 14 48  1  0
 15 16  1  0
 15 49  1  0
 15 50  1  0
 16 23  1  0
 16 17  1  1
 16 18  1  0
 17 51  1  0
 18 19  1  0
 18 20  1  0
 18 52  1  6
 19 53  1  0
 20 26  1  0
 20 21  1  0
 20 54  1  1
 21 22  2  0
 21 55  1  0
 22 23  1  0
 22 27  1  0
 23 24  1  0
 23 56  1  6
 24 25  1  1
 24 26  1  0
 25 57  1  0
 26 58  1  0
 26 59  1  0
 27 28  1  0
 27 60  1  6
 28 29  1  6
 29 61  1  0
 29 62  1  0
 29 63  1  0
M  END
>  <i_m_ct_stereo_status>  (58) 
1

>  <s_m_source_file>  (58) 
/var/tmp/pbs.5076255.sched01/tmp9stzsw2m/06nqgg2pe.sdf

>  <i_m_source_file_index>  (58) 
30

>  <i_lp_mmshare_version>  (58) 
48012

>  <i_f3d_flags>  (58) 
0

>  <s_epik_input>  (58) 
W09IXVtDQEhdMVtDQEhdKFtDSF09MilbQ0gyXVtDQF0zKFtPSF0pQyhbQ0gzXSkoW0NIM10pW0NASF0oW0NASF00W09IXSlbQ0BIXTVDMltDQEBIXTNbQ0BdMShbT0hdKVtDSDJdW0NIMl1bQ0BdKFtDSDNdKShbQ0BASF0oW0NIMl02KVtPSF0pW0NAQF01KFtDSDNdKVtDQF00NltPSF0=

>  <s_epik_cmdline>  (58) 
J2VwaWtfcHl0aG9uJywgJy1waHQnLCAnMi4wJywgJy1waCcsICc3LjAnLCAnLXRuJywgJzgnLCAnLW1hJywgJzIwMCcsICctaW1hZScsICc8aW5maWxlLm1hZT4nLCAnLW9tYWUnLCAnPG91dGZpbGUubWFlPic=

>  <r_lp_tautomer_probability>  (58) 
1

>  <r_epik_Ionization_Penalty>  (58) 
4.1994e-06

>  <r_epik_Ionization_Penalty_Charging>  (58) 
0

>  <r_epik_Ionization_Penalty_Neutral>  (58) 
4.1994e-06

>  <r_epik_State_Penalty>  (58) 
-0

>  <r_epik_Charging_Adjusted_Penalty>  (58) 
0

>  <i_epik_Tot_Q>  (58) 
0

>  <i_epik_Tot_abs_Q>  (58) 
0

>  <s_lp_Force_Field>  (58) 
OPLS3e

>  <r_lp_Energy>  (58) 
251.502

>  <b_lp_Chiralities_Consistent>  (58) 
1

>  <s_lp_Variant>  (58) 
22:0-1

>  <s_i_glide_gridfile>  (58) 
pfpi4k_grid

>  <i_i_glide_lignum>  (58) 
30

>  <i_i_glide_rotatable_bonds>  (58) 
6

>  <r_i_docking_score>  (58) 
-3.40596

>  <r_i_glide_ligand_efficiency>  (58) 
-0.117447

>  <r_i_glide_ligand_efficiency_sa>  (58) 
-0.360834

>  <r_i_glide_ligand_efficiency_ln>  (58) 
-0.779879

>  <r_i_glide_gscore>  (58) 
-3.40596

>  <r_i_glide_lipo>  (58) 
-0.395353

>  <r_i_glide_hbond>  (58) 
0

>  <r_i_glide_metal>  (58) 
-0

>  <r_i_glide_rewards>  (58) 
-0.637415

>  <r_i_glide_evdw>  (58) 
-26.7883

>  <r_i_glide_ecoul>  (58) 
-6.89187

>  <r_i_glide_erotb>  (58) 
0

>  <r_i_glide_esite>  (58) 
0

>  <r_i_glide_emodel>  (58) 
-39.8216

>  <r_i_glide_energy>  (58) 
-33.6802

>  <r_i_glide_einternal>  (58) 
0.893999

>  <r_i_glide_intrahb_reward>  (58) 
-0

>  <i_i_glide_confnum>  (58) 
2

>  <i_i_glide_posenum>  (58) 
32

>  <r_i_glide_eff_state_penalty>  (58) 
0

>  <ligand_id>  (58) 
22

>  <original_smiles>  (58) 
CC1(C)C2C(O)C3(O)CC(O)C4(C)CCC5(O)C(O)C6C=C(C5C1(O)C6)C2C43C

>  <smiles>  (58) 
[H]OC1([H])C2([H])C([H])=C3C4([H])C1(O[H])C([H])([H])C([H])([H])C1(C([H])([H])[H])C([H])(O[H])C([H])([H])C5(O[H])C([H])(O[H])C([H])(C3([H])C51C([H])([H])[H])C(C([H])([H])[H])(C([H])([H])[H])C4(O[H])C2([H])[H]

$$$$
22:0:1
     RDKit          3D

 63 68  0  0  1  0  0  0  0  0999 V2000
    1.8301   -6.6857    2.7423 C   0  0  0  0  0  0  0  0  0  0  0  0
    2.8200   -5.6194    3.2860 C   0  0  0  0  0  0  0  0  0  0  0  0
    3.7711   -6.4053    4.2139 C   0  0  0  0  0  0  0  0  0  0  0  0
    3.6967   -5.1441    1.9625 C   0  0  2  0  0  0  0  0  0  0  0  0
    5.2591   -4.9364    1.7528 C   0  0  1  0  0  0  0  0  0  0  0  0
    5.9123   -6.1674    1.5240 O   0  0  0  0  0  0  0  0  0  0  0  0
    5.3795   -3.9261    0.5171 C   0  0  2  0  0  0  0  0  0  0  0  0
    5.3576   -4.7004   -0.6759 O   0  0  0  0  0  0  0  0  0  0  0  0
    6.4938   -2.8598    0.2968 C   0  0  0  0  0  0  0  0  0  0  0  0
    5.8125   -1.4353    0.1781 C   0  0  1  0  0  0  0  0  0  0  0  0
    5.4902   -1.0586   -1.1401 O   0  0  0  0  0  0  0  0  0  0  0  0
    4.6093   -1.5421    1.1728 C   0  0  1  0  0  0  0  0  0  0  0  0
    5.4461   -1.1656    2.4516 C   0  0  0  0  0  0  0  0  0  0  0  0
    3.3353   -0.5827    1.3238 C   0  0  0  0  0  0  0  0  0  0  0  0
    2.3772   -0.4596    2.6524 C   0  0  0  0  0  0  0  0  0  0  0  0
    1.8141   -1.5529    3.7560 C   0  0  2  0  0  0  0  0  0  0  0  0
    0.4587   -1.2044    3.9925 O   0  0  0  0  0  0  0  0  0  0  0  0
    2.6052   -1.4664    5.1224 C   0  0  1  0  0  0  0  0  0  0  0  0
    1.7964   -1.1997    6.2594 O   0  0  0  0  0  0  0  0  0  0  0  0
    3.4252   -2.7667    5.3413 C   0  0  2  0  0  0  0  0  0  0  0  0
    4.0923   -3.0351    4.0205 C   0  0  0  0  0  0  0  0  0  0  0  0
    3.2164   -3.0977    2.9673 C   0  0  0  0  0  0  0  0  0  0  0  0
    1.8060   -3.0527    3.2947 C   0  0  1  0  0  0  0  0  0  0  0  0
    1.9173   -4.4255    4.1165 C   0  0  1  0  0  0  0  0  0  0  0  0
    0.6179   -4.9008    4.4040 O   0  0  0  0  0  0  0  0  0  0  0  0
    2.4962   -3.9957    5.5220 C   0  0  0  0  0  0  0  0  0  0  0  0
    3.3017   -3.7500    1.6550 C   0  0  1  0  0  0  0  0  0  0  0  0
    4.1551   -3.0131    0.6758 C   0  0  2  0  0  0  0  0  0  0  0  0
    3.3127   -3.0099   -0.6642 C   0  0  0  0  0  0  0  0  0  0  0  0
    2.3486   -7.4642    2.1771 H   0  0  0  0  0  0  0  0  0  0  0  0
    1.0905   -6.2400    2.0801 H   0  0  0  0  0  0  0  0  0  0  0  0
    1.3022   -7.1998    3.5429 H   0  0  0  0  0  0  0  0  0  0  0  0
    4.5694   -5.7789    4.6069 H   0  0  0  0  0  0  0  0  0  0  0  0
    4.2543   -7.2302    3.6828 H   0  0  0  0  0  0  0  0  0  0  0  0
    3.2370   -6.8432    5.0553 H   0  0  0  0  0  0  0  0  0  0  0  0
    3.3801   -5.7549    1.1129 H   0  0  0  0  0  0  0  0  0  0  0  0
    5.7547   -4.5105    2.6116 H   0  0  0  0  0  0  0  0  0  0  0  0
    5.4907   -6.5957    0.7970 H   0  0  0  0  0  0  0  0  0  0  0  0
    4.5097   -5.1055   -0.7703 H   0  0  0  0  0  0  0  0  0  0  0  0
    7.1879   -2.8952    1.1350 H   0  0  0  0  0  0  0  0  0  0  0  0
    7.1065   -3.0723   -0.5798 H   0  0  0  0  0  0  0  0  0  0  0  0
    6.5543   -0.6762    0.4277 H   0  0  0  0  0  0  0  0  0  0  0  0
    4.7369   -1.5634   -1.4134 H   0  0  0  0  0  0  0  0  0  0  0  0
    4.8533   -0.8700    3.3101 H   0  0  0  0  0  0  0  0  0  0  0  0
    6.0172   -0.2455    2.3240 H   0  0  0  0  0  0  0  0  0  0  0  0
    6.1648   -1.9213    2.7578 H   0  0  0  0  0  0  0  0  0  0  0  0
    3.7174    0.4263    1.1592 H   0  0  0  0  0  0  0  0  0  0  0  0
    2.6708   -0.6992    0.4765 H   0  0  0  0  0  0  0  0  0  0  0  0
    2.8137    0.3559    3.2330 H   0  0  0  0  0  0  0  0  0  0  0  0
    1.4853    0.0129    2.2389 H   0  0  0  0  0  0  0  0  0  0  0  0
    0.4086   -0.2719    4.1206 H   0  0  0  0  0  0  0  0  0  0  0  0
    3.3131   -0.6351    5.0862 H   0  0  0  0  0  0  0  0  0  0  0  0
    1.4226   -0.3399    6.1579 H   0  0  0  0  0  0  0  0  0  0  0  0
    4.1448   -2.6528    6.1549 H   0  0  0  0  0  0  0  0  0  0  0  0
    5.1396   -3.2841    4.0446 H   0  0  0  0  0  0  0  0  0  0  0  0
    1.0688   -3.1359    2.4985 H   0  0  0  0  0  0  0  0  0  0  0  0
    0.7243   -5.6792    4.9281 H   0  0  0  0  0  0  0  0  0  0  0  0
    3.0421   -4.7892    6.0252 H   0  0  0  0  0  0  0  0  0  0  0  0
    1.6973   -3.7452    6.2224 H   0  0  0  0  0  0  0  0  0  0  0  0
    2.3212   -3.8666    1.1967 H   0  0  0  0  0  0  0  0  0  0  0  0
    2.4073   -2.4154   -0.5956 H   0  0  0  0  0  0  0  0  0  0  0  0
    2.9495   -4.0104   -0.9121 H   0  0  0  0  0  0  0  0  0  0  0  0
    3.8400   -2.6959   -1.5604 H   0  0  0  0  0  0  0  0  0  0  0  0
  1  2  1  0
  1 30  1  0
  1 31  1  0
  1 32  1  0
  2 24  1  0
  2  3  1  0
  2  4  1  0
  3 33  1  0
  3 34  1  0
  3 35  1  0
  4 27  1  0
  4  5  1  0
  4 36  1  6
  5  6  1  0
  5  7  1  0
  5 37  1  1
  6 38  1  0
  7 28  1  0
  7  8  1  6
  7  9  1  0
  8 39  1  0
  9 10  1  0
  9 40  1  0
  9 41  1  0
 10 11  1  0
 10 12  1  0
 10 42  1  1
 11 43  1  0
 12 28  1  0
 12 13  1  1
 12 14  1  0
 13 44  1  0
 13 45  1  0
 13 46  1  0
 14 15  1  0
 14 47  1  0
 14 48  1  0
 15 16  1  0
 15 49  1  0
 15 50  1  0
 16 23  1  0
 16 17  1  1
 16 18  1  0
 17 51  1  0
 18 19  1  0
 18 20  1  0
 18 52  1  6
 19 53  1  0
 20 26  1  0
 20 21  1  0
 20 54  1  1
 21 22  2  0
 21 55  1  0
 22 23  1  0
 22 27  1  0
 23 24  1  0
 23 56  1  6
 24 25  1  1
 24 26  1  0
 25 57  1  0
 26 58  1  0
 26 59  1  0
 27 28  1  0
 27 60  1  6
 28 29  1  6
 29 61  1  0
 29 62  1  0
 29 63  1  0
M  END
>  <i_m_ct_stereo_status>  (59) 
1

>  <s_m_source_file>  (59) 
/var/tmp/pbs.5076255.sched01/tmp9stzsw2m/06nqgg2pe.sdf

>  <i_m_source_file_index>  (59) 
30

>  <i_lp_mmshare_version>  (59) 
48012

>  <i_f3d_flags>  (59) 
0

>  <s_epik_input>  (59) 
W09IXVtDQEhdMVtDQEhdKFtDSF09MilbQ0gyXVtDQF0zKFtPSF0pQyhbQ0gzXSkoW0NIM10pW0NASF0oW0NASF00W09IXSlbQ0BIXTVDMltDQEBIXTNbQ0BdMShbT0hdKVtDSDJdW0NIMl1bQ0BdKFtDSDNdKShbQ0BASF0oW0NIMl02KVtPSF0pW0NAQF01KFtDSDNdKVtDQF00NltPSF0=

>  <s_epik_cmdline>  (59) 
J2VwaWtfcHl0aG9uJywgJy1waHQnLCAnMi4wJywgJy1waCcsICc3LjAnLCAnLXRuJywgJzgnLCAnLW1hJywgJzIwMCcsICctaW1hZScsICc8aW5maWxlLm1hZT4nLCAnLW9tYWUnLCAnPG91dGZpbGUubWFlPic=

>  <r_lp_tautomer_probability>  (59) 
1

>  <r_epik_Ionization_Penalty>  (59) 
4.1994e-06

>  <r_epik_Ionization_Penalty_Charging>  (59) 
0

>  <r_epik_Ionization_Penalty_Neutral>  (59) 
4.1994e-06

>  <r_epik_State_Penalty>  (59) 
-0

>  <r_epik_Charging_Adjusted_Penalty>  (59) 
0

>  <i_epik_Tot_Q>  (59) 
0

>  <i_epik_Tot_abs_Q>  (59) 
0

>  <s_lp_Force_Field>  (59) 
OPLS3e

>  <r_lp_Energy>  (59) 
251.502

>  <b_lp_Chiralities_Consistent>  (59) 
1

>  <s_lp_Variant>  (59) 
22:0-1

>  <s_i_glide_gridfile>  (59) 
pfpi4k_grid

>  <i_i_glide_lignum>  (59) 
30

>  <i_i_glide_rotatable_bonds>  (59) 
6

>  <r_i_docking_score>  (59) 
-2.44938

>  <r_i_glide_ligand_efficiency>  (59) 
-0.0844615

>  <r_i_glide_ligand_efficiency_sa>  (59) 
-0.259492

>  <r_i_glide_ligand_efficiency_ln>  (59) 
-0.560847

>  <r_i_glide_gscore>  (59) 
-2.44938

>  <r_i_glide_lipo>  (59) 
-0.370378

>  <r_i_glide_hbond>  (59) 
-0.0115726

>  <r_i_glide_metal>  (59) 
-0

>  <r_i_glide_rewards>  (59) 
-0.637415

>  <r_i_glide_evdw>  (59) 
-24.3363

>  <r_i_glide_ecoul>  (59) 
-1.42134

>  <r_i_glide_erotb>  (59) 
0

>  <r_i_glide_esite>  (59) 
0

>  <r_i_glide_emodel>  (59) 
-30.1934

>  <r_i_glide_energy>  (59) 
-25.7576

>  <r_i_glide_einternal>  (59) 
0.677994

>  <r_i_glide_intrahb_reward>  (59) 
-0

>  <i_i_glide_confnum>  (59) 
2

>  <i_i_glide_posenum>  (59) 
14

>  <r_i_glide_eff_state_penalty>  (59) 
0

>  <ligand_id>  (59) 
22

>  <original_smiles>  (59) 
CC1(C)C2C(O)C3(O)CC(O)C4(C)CCC5(O)C(O)C6C=C(C5C1(O)C6)C2C43C

>  <smiles>  (59) 
[H]OC1([H])C2([H])C([H])=C3C4([H])C1(O[H])C([H])([H])C([H])([H])C1(C([H])([H])[H])C([H])(O[H])C([H])([H])C5(O[H])C([H])(O[H])C([H])(C3([H])C51C([H])([H])[H])C(C([H])([H])[H])(C([H])([H])[H])C4(O[H])C2([H])[H]

$$$$
23:0:0
     RDKit          3D

 47 52  0  0  1  0  0  0  0  0999 V2000
    4.2422   -8.4953    1.0027 O   0  0  0  0  0  0  0  0  0  0  0  0
    4.6901   -7.2259    1.2160 C   0  0  0  0  0  0  0  0  0  0  0  0
    5.9935   -7.0449    1.7505 C   0  0  0  0  0  0  0  0  0  0  0  0
    6.3649   -5.7743    2.2210 C   0  0  0  0  0  0  0  0  0  0  0  0
    5.5586   -4.6719    1.9248 C   0  0  0  0  0  0  0  0  0  0  0  0
    4.4785   -4.8578    1.0024 C   0  0  0  0  0  0  0  0  0  0  0  0
    3.8463   -6.1080    0.9568 C   0  0  0  0  0  0  0  0  0  0  0  0
    2.4837   -6.1730    0.7930 O   0  0  0  0  0  0  0  0  0  0  0  0
    1.6742   -5.4827    1.8484 N   0  0  0  0  0  0  0  0  0  0  0  0
    2.3577   -4.3478    2.5408 C   0  0  0  0  0  0  0  0  0  0  0  0
    3.0597   -3.1427    1.7515 C   0  0  1  0  0  0  0  0  0  0  0  0
    2.0209   -2.1739    1.6821 O   0  0  0  0  0  0  0  0  0  0  0  0
    4.2659   -2.4803    2.5266 C   0  0  1  0  0  0  0  0  0  0  0  0
    5.2431   -3.5848    2.9657 C   0  0  0  0  0  0  0  0  0  0  0  0
    5.0312   -1.3860    1.8044 N   0  0  2  0  0  0  0  0  0  0  0  0
    4.2052   -0.5047    0.9195 C   0  0  0  0  0  0  0  0  0  0  0  0
    3.8134   -1.2313   -0.4103 C   0  0  0  0  0  0  0  0  0  0  0  0
    4.4861   -2.6075   -0.4894 C   0  0  1  0  0  0  0  0  0  0  0  0
    5.0100   -3.2113   -1.8203 C   0  0  0  0  0  0  0  0  0  0  0  0
    6.3669   -3.4227   -1.1265 C   0  0  0  0  0  0  0  0  0  0  0  0
    5.9520   -2.2263   -0.3010 C   0  0  2  0  0  0  0  0  0  0  0  0
    6.3009   -1.8015    1.1016 C   0  0  0  0  0  0  0  0  0  0  0  0
    3.6992   -3.6380    0.4426 C   0  0  1  0  0  0  0  0  0  0  0  0
    2.6283   -3.9276   -0.4443 O   0  0  0  0  0  0  0  0  0  0  0  0
    4.8409   -9.1818    1.2677 H   0  0  0  0  0  0  0  0  0  0  0  0
    6.6239   -7.8962    1.9568 H   0  0  0  0  0  0  0  0  0  0  0  0
    7.2006   -5.6879    2.9197 H   0  0  0  0  0  0  0  0  0  0  0  0
    1.4109   -6.1981    2.5135 H   0  0  0  0  0  0  0  0  0  0  0  0
    1.5831   -3.9112    3.1621 H   0  0  0  0  0  0  0  0  0  0  0  0
    3.0238   -4.8154    3.2590 H   0  0  0  0  0  0  0  0  0  0  0  0
    2.0216   -1.7675    0.8203 H   0  0  0  0  0  0  0  0  0  0  0  0
    3.8705   -1.9991    3.4210 H   0  0  0  0  0  0  0  0  0  0  0  0
    4.8296   -4.0744    3.8453 H   0  0  0  0  0  0  0  0  0  0  0  0
    6.1503   -3.1514    3.3698 H   0  0  0  0  0  0  0  0  0  0  0  0
    3.3385   -0.1102    1.4481 H   0  0  0  0  0  0  0  0  0  0  0  0
    4.7878    0.3856    0.6821 H   0  0  0  0  0  0  0  0  0  0  0  0
    2.7467   -1.2935   -0.5345 H   0  0  0  0  0  0  0  0  0  0  0  0
    4.1272   -0.5991   -1.2383 H   0  0  0  0  0  0  0  0  0  0  0  0
    4.5480   -4.1455   -2.1275 H   0  0  0  0  0  0  0  0  0  0  0  0
    5.0435   -2.4930   -2.6434 H   0  0  0  0  0  0  0  0  0  0  0  0
    6.4419   -4.3526   -0.5717 H   0  0  0  0  0  0  0  0  0  0  0  0
    7.2196   -3.2511   -1.7819 H   0  0  0  0  0  0  0  0  0  0  0  0
    6.1892   -1.3771   -0.9471 H   0  0  0  0  0  0  0  0  0  0  0  0
    6.9330   -0.9174    1.0615 H   0  0  0  0  0  0  0  0  0  0  0  0
    6.9468   -2.5255    1.5810 H   0  0  0  0  0  0  0  0  0  0  0  0
    2.9613   -4.4223   -1.1803 H   0  0  0  0  0  0  0  0  0  0  0  0
    5.3503   -0.7878    2.5550 H   0  0  0  0  0  0  0  0  0  0  0  0
  1  2  1  0
  1 25  1  0
  2  7  2  0
  2  3  1  0
  3  4  2  0
  3 26  1  0
  4  5  1  0
  4 27  1  0
  5 14  1  0
  5  6  2  0
  6 23  1  0
  6  7  1  0
  7  8  1  0
  8  9  1  0
  9 10  1  0
  9 28  1  0
 10 11  1  0
 10 29  1  0
 10 30  1  0
 11 23  1  0
 11 12  1  6
 11 13  1  0
 12 31  1  0
 13 14  1  0
 13 15  1  0
 13 32  1  1
 14 33  1  0
 14 34  1  0
 15 22  1  0
 15 16  1  0
 15 47  1  1
 16 17  1  0
 16 35  1  0
 16 36  1  0
 17 18  1  0
 17 37  1  0
 17 38  1  0
 18 21  1  0
 18 19  1  6
 18 23  1  0
 19 20  1  0
 19 39  1  0
 19 40  1  0
 20 21  1  0
 20 41  1  0
 20 42  1  0
 21 22  1  0
 21 43  1  6
 22 44  1  0
 22 45  1  0
 23 24  1  6
 24 46  1  0
M  CHG  1  15   1
M  END
>  <i_m_ct_stereo_status>  (60) 
1

>  <s_m_source_file>  (60) 
/var/tmp/pbs.5076255.sched01/tmp9stzsw2m/06nqgg2pe.sdf

>  <i_m_source_file_index>  (60) 
31

>  <i_lp_mmshare_version>  (60) 
48012

>  <i_f3d_flags>  (60) 
0

>  <s_epik_input>  (60) 
W0NIMl0xW05IXU9jMmMoW09IXSlbY0hdW2NIXWMoW0NIMl0zKWMyW0NAQF00KFtPSF0pW0NAXTEoW09IXSlbQ0BASF0zTihbQ0gyXVtDSDJdNSlbQ0gyXVtDQEhdKFtDQEBdNDU2KVtDSDJdW0NIMl02

>  <s_epik_cmdline>  (60) 
J2VwaWtfcHl0aG9uJywgJy1waHQnLCAnMi4wJywgJy1waCcsICc3LjAnLCAnLXRuJywgJzgnLCAnLW1hJywgJzIwMCcsICctaW1hZScsICc8aW5maWxlLm1hZT4nLCAnLW9tYWUnLCAnPG91dGZpbGUubWFlPic=

>  <r_lp_tautomer_probability>  (60) 
1

>  <r_epik_Ionization_Penalty>  (60) 
0.114017

>  <r_epik_Ionization_Penalty_Charging>  (60) 
0.111821

>  <r_epik_Ionization_Penalty_Neutral>  (60) 
0.0021963

>  <r_epik_State_Penalty>  (60) 
0.101536

>  <r_epik_Charging_Adjusted_Penalty>  (60) 
0.213357

>  <i_epik_Tot_Q>  (60) 
1

>  <i_epik_Tot_abs_Q>  (60) 
1

>  <s_epik_Chemistry_Notes>  (60) 
This compound has a N-S or N-O group and may undergo hydrolysis at high or low pH.

>  <s_lp_Force_Field>  (60) 
OPLS3e

>  <r_lp_Energy>  (60) 
156.977

>  <b_lp_Chiralities_Consistent>  (60) 
1

>  <s_lp_Variant>  (60) 
23:0-1

>  <s_i_glide_gridfile>  (60) 
pfpi4k_grid

>  <i_i_glide_lignum>  (60) 
31

>  <i_i_glide_rotatable_bonds>  (60) 
3

>  <r_i_docking_score>  (60) 
-3.93729

>  <r_i_glide_ligand_efficiency>  (60) 
-0.164054

>  <r_i_glide_ligand_efficiency_sa>  (60) 
-0.473213

>  <r_i_glide_ligand_efficiency_ln>  (60) 
-0.942373

>  <r_i_glide_gscore>  (60) 
-3.93729

>  <r_i_glide_lipo>  (60) 
-0.81636

>  <r_i_glide_hbond>  (60) 
0

>  <r_i_glide_metal>  (60) 
-0

>  <r_i_glide_rewards>  (60) 
-1.14964

>  <r_i_glide_evdw>  (60) 
-21.6929

>  <r_i_glide_ecoul>  (60) 
-5.34307

>  <r_i_glide_erotb>  (60) 
0

>  <r_i_glide_esite>  (60) 
-0.0851799

>  <r_i_glide_emodel>  (60) 
-36.0783

>  <r_i_glide_energy>  (60) 
-27.036

>  <r_i_glide_einternal>  (60) 
1.25029

>  <r_i_glide_intrahb_reward>  (60) 
-0

>  <i_i_glide_confnum>  (60) 
1

>  <i_i_glide_posenum>  (60) 
3

>  <r_i_glide_eff_state_penalty>  (60) 
0

>  <ligand_id>  (60) 
23

>  <original_smiles>  (60) 
Oc1ccc2c3c1ONCC1(O)C(C2)N2CCC4(CCC4C2)C31O

>  <smiles>  (60) 
[H]Oc1c([H])c([H])c2c3c1ON([H])C([H])([H])C1(O[H])C3(O[H])C34C([H])([H])C([H])([H])C3([H])C([H])([H])[N+]([H])(C([H])([H])C4([H])[H])C1([H])C2([H])[H]

$$$$
23:0:1
     RDKit          3D

 47 52  0  0  1  0  0  0  0  0999 V2000
   -1.7460   -7.0832    3.6741 O   0  0  0  0  0  0  0  0  0  0  0  0
   -0.7513   -7.9962    3.5375 C   0  0  0  0  0  0  0  0  0  0  0  0
   -0.8533   -8.9409    2.4893 C   0  0  0  0  0  0  0  0  0  0  0  0
    0.0059  -10.0519    2.5016 C   0  0  0  0  0  0  0  0  0  0  0  0
    1.1028  -10.0706    3.3767 C   0  0  0  0  0  0  0  0  0  0  0  0
    1.3982   -8.8772    4.0949 C   0  0  0  0  0  0  0  0  0  0  0  0
    0.3385   -8.0246    4.4445 C   0  0  0  0  0  0  0  0  0  0  0  0
    0.3283   -7.3931    5.6702 O   0  0  0  0  0  0  0  0  0  0  0  0
    0.4400   -8.2885    6.8702 N   0  0  0  0  0  0  0  0  0  0  0  0
    1.0406   -9.6286    6.6149 C   0  0  0  0  0  0  0  0  0  0  0  0
    2.4891   -9.8116    5.9469 C   0  0  1  0  0  0  0  0  0  0  0  0
    3.3435   -9.7974    7.0840 O   0  0  0  0  0  0  0  0  0  0  0  0
    2.6734  -11.1661    5.1460 C   0  0  1  0  0  0  0  0  0  0  0  0
    1.5066  -11.3427    4.1507 C   0  0  0  0  0  0  0  0  0  0  0  0
    3.9831  -11.3534    4.4181 N   0  0  2  0  0  0  0  0  0  0  0  0
    5.1819  -10.7769    5.1049 C   0  0  0  0  0  0  0  0  0  0  0  0
    5.2411   -9.2154    4.9831 C   0  0  0  0  0  0  0  0  0  0  0  0
    4.0992   -8.7261    4.0643 C   0  0  1  0  0  0  0  0  0  0  0  0
    4.2520   -7.5342    3.0773 C   0  0  0  0  0  0  0  0  0  0  0  0
    3.7261   -8.4511    1.9564 C   0  0  0  0  0  0  0  0  0  0  0  0
    4.3371   -9.5608    2.8019 C   0  0  2  0  0  0  0  0  0  0  0  0
    3.9932  -11.0178    2.9534 C   0  0  0  0  0  0  0  0  0  0  0  0
    2.7277   -8.7259    4.8835 C   0  0  1  0  0  0  0  0  0  0  0  0
    2.9098   -7.4871    5.5564 O   0  0  0  0  0  0  0  0  0  0  0  0
   -1.7160   -6.6508    4.5132 H   0  0  0  0  0  0  0  0  0  0  0  0
   -1.6899   -8.9197    1.8139 H   0  0  0  0  0  0  0  0  0  0  0  0
   -0.2470  -10.9385    1.9246 H   0  0  0  0  0  0  0  0  0  0  0  0
   -0.5110   -8.4260    7.1902 H   0  0  0  0  0  0  0  0  0  0  0  0
    1.0793  -10.0846    7.6005 H   0  0  0  0  0  0  0  0  0  0  0  0
    0.2742  -10.2150    6.1049 H   0  0  0  0  0  0  0  0  0  0  0  0
    3.0866  -10.5081    7.6583 H   0  0  0  0  0  0  0  0  0  0  0  0
    2.6348  -11.9954    5.8442 H   0  0  0  0  0  0  0  0  0  0  0  0
    0.6323  -11.6714    4.7087 H   0  0  0  0  0  0  0  0  0  0  0  0
    1.6538  -12.1845    3.4741 H   0  0  0  0  0  0  0  0  0  0  0  0
    5.2436  -11.1025    6.1406 H   0  0  0  0  0  0  0  0  0  0  0  0
    6.0698  -11.1962    4.6387 H   0  0  0  0  0  0  0  0  0  0  0  0
    5.2549   -8.7231    5.9563 H   0  0  0  0  0  0  0  0  0  0  0  0
    6.2095   -8.9499    4.5525 H   0  0  0  0  0  0  0  0  0  0  0  0
    3.6021   -6.6845    3.2663 H   0  0  0  0  0  0  0  0  0  0  0  0
    5.2873   -7.2222    2.9299 H   0  0  0  0  0  0  0  0  0  0  0  0
    2.6416   -8.4818    1.8663 H   0  0  0  0  0  0  0  0  0  0  0  0
    4.2166   -8.2989    0.9928 H   0  0  0  0  0  0  0  0  0  0  0  0
    5.4000   -9.5165    2.5323 H   0  0  0  0  0  0  0  0  0  0  0  0
    4.7852  -11.6135    2.5137 H   0  0  0  0  0  0  0  0  0  0  0  0
    3.1373  -11.2821    2.3482 H   0  0  0  0  0  0  0  0  0  0  0  0
    3.6584   -7.5801    6.1234 H   0  0  0  0  0  0  0  0  0  0  0  0
    4.1108  -12.3493    4.4292 H   0  0  0  0  0  0  0  0  0  0  0  0
  1  2  1  0
  1 25  1  0
  2  7  2  0
  2  3  1  0
  3  4  2  0
  3 26  1  0
  4  5  1  0
  4 27  1  0
  5 14  1  0
  5  6  2  0
  6 23  1  0
  6  7  1  0
  7  8  1  0
  8  9  1  0
  9 10  1  0
  9 28  1  0
 10 11  1  0
 10 29  1  0
 10 30  1  0
 11 23  1  0
 11 12  1  1
 11 13  1  0
 12 31  1  0
 13 14  1  0
 13 15  1  0
 13 32  1  1
 14 33  1  0
 14 34  1  0
 15 22  1  0
 15 16  1  0
 15 47  1  6
 16 17  1  0
 16 35  1  0
 16 36  1  0
 17 18  1  0
 17 37  1  0
 17 38  1  0
 18 21  1  0
 18 19  1  6
 18 23  1  0
 19 20  1  0
 19 39  1  0
 19 40  1  0
 20 21  1  0
 20 41  1  0
 20 42  1  0
 21 22  1  0
 21 43  1  6
 22 44  1  0
 22 45  1  0
 23 24  1  1
 24 46  1  0
M  CHG  1  15   1
M  END
>  <i_m_ct_stereo_status>  (61) 
1

>  <s_m_source_file>  (61) 
/var/tmp/pbs.5076255.sched01/tmp9stzsw2m/06nqgg2pe.sdf

>  <i_m_source_file_index>  (61) 
31

>  <i_lp_mmshare_version>  (61) 
48012

>  <i_f3d_flags>  (61) 
0

>  <s_epik_input>  (61) 
W0NIMl0xW05IXU9jMmMoW09IXSlbY0hdW2NIXWMoW0NIMl0zKWMyW0NAQF00KFtPSF0pW0NAXTEoW09IXSlbQ0BASF0zTihbQ0gyXVtDSDJdNSlbQ0gyXVtDQEhdKFtDQEBdNDU2KVtDSDJdW0NIMl02

>  <s_epik_cmdline>  (61) 
J2VwaWtfcHl0aG9uJywgJy1waHQnLCAnMi4wJywgJy1waCcsICc3LjAnLCAnLXRuJywgJzgnLCAnLW1hJywgJzIwMCcsICctaW1hZScsICc8aW5maWxlLm1hZT4nLCAnLW9tYWUnLCAnPG91dGZpbGUubWFlPic=

>  <r_lp_tautomer_probability>  (61) 
1

>  <r_epik_Ionization_Penalty>  (61) 
0.114017

>  <r_epik_Ionization_Penalty_Charging>  (61) 
0.111821

>  <r_epik_Ionization_Penalty_Neutral>  (61) 
0.0021963

>  <r_epik_State_Penalty>  (61) 
0.101536

>  <r_epik_Charging_Adjusted_Penalty>  (61) 
0.213357

>  <i_epik_Tot_Q>  (61) 
1

>  <i_epik_Tot_abs_Q>  (61) 
1

>  <s_epik_Chemistry_Notes>  (61) 
This compound has a N-S or N-O group and may undergo hydrolysis at high or low pH.

>  <s_lp_Force_Field>  (61) 
OPLS3e

>  <r_lp_Energy>  (61) 
156.977

>  <b_lp_Chiralities_Consistent>  (61) 
1

>  <s_lp_Variant>  (61) 
23:0-1

>  <s_i_glide_gridfile>  (61) 
pfpi4k_grid

>  <i_i_glide_lignum>  (61) 
31

>  <i_i_glide_rotatable_bonds>  (61) 
3

>  <r_i_docking_score>  (61) 
-3.6622

>  <r_i_glide_ligand_efficiency>  (61) 
-0.152592

>  <r_i_glide_ligand_efficiency_sa>  (61) 
-0.44015

>  <r_i_glide_ligand_efficiency_ln>  (61) 
-0.876532

>  <r_i_glide_gscore>  (61) 
-3.6622

>  <r_i_glide_lipo>  (61) 
-0.333257

>  <r_i_glide_hbond>  (61) 
0

>  <r_i_glide_metal>  (61) 
-0

>  <r_i_glide_rewards>  (61) 
-1.14964

>  <r_i_glide_evdw>  (61) 
-20.5653

>  <r_i_glide_ecoul>  (61) 
-7.26098

>  <r_i_glide_erotb>  (61) 
0

>  <r_i_glide_esite>  (61) 
-0.0618884

>  <r_i_glide_emodel>  (61) 
-36.9504

>  <r_i_glide_energy>  (61) 
-27.8263

>  <r_i_glide_einternal>  (61) 
0.261764

>  <r_i_glide_intrahb_reward>  (61) 
-0

>  <i_i_glide_confnum>  (61) 
2

>  <i_i_glide_posenum>  (61) 
8

>  <r_i_glide_eff_state_penalty>  (61) 
0

>  <ligand_id>  (61) 
23

>  <original_smiles>  (61) 
Oc1ccc2c3c1ONCC1(O)C(C2)N2CCC4(CCC4C2)C31O

>  <smiles>  (61) 
[H]Oc1c([H])c([H])c2c3c1ON([H])C([H])([H])C1(O[H])C3(O[H])C34C([H])([H])C([H])([H])C3([H])C([H])([H])[N+]([H])(C([H])([H])C4([H])[H])C1([H])C2([H])[H]

$$$$
23:0:2
     RDKit          3D

 47 52  0  0  1  0  0  0  0  0999 V2000
    4.1940   -8.4832    0.8210 O   0  0  0  0  0  0  0  0  0  0  0  0
    4.6479   -7.2237    1.0752 C   0  0  0  0  0  0  0  0  0  0  0  0
    5.9509   -7.0782    1.6167 C   0  0  0  0  0  0  0  0  0  0  0  0
    6.3328   -5.8323    2.1388 C   0  0  0  0  0  0  0  0  0  0  0  0
    5.5368   -4.7083    1.8898 C   0  0  0  0  0  0  0  0  0  0  0  0
    4.4562   -4.8415    0.9611 C   0  0  0  0  0  0  0  0  0  0  0  0
    3.8144   -6.0856    0.8607 C   0  0  0  0  0  0  0  0  0  0  0  0
    2.4508   -6.1300    0.6972 O   0  0  0  0  0  0  0  0  0  0  0  0
    1.6499   -5.4756    1.7818 N   0  0  0  0  0  0  0  0  0  0  0  0
    2.3446   -4.3753    2.5178 C   0  0  0  0  0  0  0  0  0  0  0  0
    3.0558   -3.1436    1.7770 C   0  0  1  0  0  0  0  0  0  0  0  0
    2.0042   -2.1855    1.7201 O   0  0  0  0  0  0  0  0  0  0  0  0
    4.2707   -2.5277    2.5838 C   0  0  1  0  0  0  0  0  0  0  0  0
    5.2358   -3.6636    2.9767 C   0  0  0  0  0  0  0  0  0  0  0  0
    5.0509   -1.4147    1.9081 N   0  0  2  0  0  0  0  0  0  0  0  0
    4.2336   -0.4868    1.0625 C   0  0  0  0  0  0  0  0  0  0  0  0
    3.8280   -1.1473   -0.2977 C   0  0  0  0  0  0  0  0  0  0  0  0
    4.4857   -2.5281   -0.4360 C   0  0  1  0  0  0  0  0  0  0  0  0
    5.0053   -3.0849   -1.7910 C   0  0  0  0  0  0  0  0  0  0  0  0
    6.3631   -3.3397   -1.1105 C   0  0  0  0  0  0  0  0  0  0  0  0
    5.9591   -2.1753   -0.2318 C   0  0  2  0  0  0  0  0  0  0  0  0
    6.3150   -1.8170    1.1870 C   0  0  0  0  0  0  0  0  0  0  0  0
    3.6864   -3.5909    0.4506 C   0  0  1  0  0  0  0  0  0  0  0  0
    2.6108   -3.8410   -0.4461 O   0  0  0  0  0  0  0  0  0  0  0  0
    4.7923   -9.1869    1.0334 H   0  0  0  0  0  0  0  0  0  0  0  0
    6.5714   -7.9459    1.7874 H   0  0  0  0  0  0  0  0  0  0  0  0
    7.1695   -5.7839    2.8375 H   0  0  0  0  0  0  0  0  0  0  0  0
    1.3843   -6.2154    2.4183 H   0  0  0  0  0  0  0  0  0  0  0  0
    1.5735   -3.9600    3.1577 H   0  0  0  0  0  0  0  0  0  0  0  0
    3.0047   -4.8781    3.2176 H   0  0  0  0  0  0  0  0  0  0  0  0
    2.1165   -1.6039    0.9813 H   0  0  0  0  0  0  0  0  0  0  0  0
    3.8848   -2.0834    3.5013 H   0  0  0  0  0  0  0  0  0  0  0  0
    4.8227   -4.1871    3.8373 H   0  0  0  0  0  0  0  0  0  0  0  0
    6.1519   -3.2667    3.3958 H   0  0  0  0  0  0  0  0  0  0  0  0
    3.3745   -0.1063    1.6114 H   0  0  0  0  0  0  0  0  0  0  0  0
    4.8287    0.4047    0.8633 H   0  0  0  0  0  0  0  0  0  0  0  0
    2.7576   -1.1766   -0.4300 H   0  0  0  0  0  0  0  0  0  0  0  0
    4.1604   -0.4871   -1.0964 H   0  0  0  0  0  0  0  0  0  0  0  0
    4.5260   -4.0000   -2.1314 H   0  0  0  0  0  0  0  0  0  0  0  0
    5.0495   -2.3385   -2.5879 H   0  0  0  0  0  0  0  0  0  0  0  0
    6.4301   -4.2940   -0.5975 H   0  0  0  0  0  0  0  0  0  0  0  0
    7.2211   -3.1535   -1.7558 H   0  0  0  0  0  0  0  0  0  0  0  0
    6.2050   -1.2999   -0.8386 H   0  0  0  0  0  0  0  0  0  0  0  0
    6.9621   -0.9429    1.1846 H   0  0  0  0  0  0  0  0  0  0  0  0
    6.9521   -2.5695    1.6327 H   0  0  0  0  0  0  0  0  0  0  0  0
    2.2317   -3.0243   -0.7314 H   0  0  0  0  0  0  0  0  0  0  0  0
    5.3824   -0.8541    2.6816 H   0  0  0  0  0  0  0  0  0  0  0  0
  1  2  1  0
  1 25  1  0
  2  7  2  0
  2  3  1  0
  3  4  2  0
  3 26  1  0
  4  5  1  0
  4 27  1  0
  5 14  1  0
  5  6  2  0
  6 23  1  0
  6  7  1  0
  7  8  1  0
  8  9  1  0
  9 10  1  0
  9 28  1  0
 10 11  1  0
 10 29  1  0
 10 30  1  0
 11 23  1  0
 11 12  1  6
 11 13  1  0
 12 31  1  0
 13 14  1  0
 13 15  1  0
 13 32  1  1
 14 33  1  0
 14 34  1  0
 15 22  1  0
 15 16  1  0
 15 47  1  1
 16 17  1  0
 16 35  1  0
 16 36  1  0
 17 18  1  0
 17 37  1  0
 17 38  1  0
 18 21  1  0
 18 19  1  6
 18 23  1  0
 19 20  1  0
 19 39  1  0
 19 40  1  0
 20 21  1  0
 20 41  1  0
 20 42  1  0
 21 22  1  0
 21 43  1  6
 22 44  1  0
 22 45  1  0
 23 24  1  6
 24 46  1  0
M  CHG  1  15   1
M  END
>  <i_m_ct_stereo_status>  (62) 
1

>  <s_m_source_file>  (62) 
/var/tmp/pbs.5076255.sched01/tmp9stzsw2m/06nqgg2pe.sdf

>  <i_m_source_file_index>  (62) 
31

>  <i_lp_mmshare_version>  (62) 
48012

>  <i_f3d_flags>  (62) 
0

>  <s_epik_input>  (62) 
W0NIMl0xW05IXU9jMmMoW09IXSlbY0hdW2NIXWMoW0NIMl0zKWMyW0NAQF00KFtPSF0pW0NAXTEoW09IXSlbQ0BASF0zTihbQ0gyXVtDSDJdNSlbQ0gyXVtDQEhdKFtDQEBdNDU2KVtDSDJdW0NIMl02

>  <s_epik_cmdline>  (62) 
J2VwaWtfcHl0aG9uJywgJy1waHQnLCAnMi4wJywgJy1waCcsICc3LjAnLCAnLXRuJywgJzgnLCAnLW1hJywgJzIwMCcsICctaW1hZScsICc8aW5maWxlLm1hZT4nLCAnLW9tYWUnLCAnPG91dGZpbGUubWFlPic=

>  <r_lp_tautomer_probability>  (62) 
1

>  <r_epik_Ionization_Penalty>  (62) 
0.114017

>  <r_epik_Ionization_Penalty_Charging>  (62) 
0.111821

>  <r_epik_Ionization_Penalty_Neutral>  (62) 
0.0021963

>  <r_epik_State_Penalty>  (62) 
0.101536

>  <r_epik_Charging_Adjusted_Penalty>  (62) 
0.213357

>  <i_epik_Tot_Q>  (62) 
1

>  <i_epik_Tot_abs_Q>  (62) 
1

>  <s_epik_Chemistry_Notes>  (62) 
This compound has a N-S or N-O group and may undergo hydrolysis at high or low pH.

>  <s_lp_Force_Field>  (62) 
OPLS3e

>  <r_lp_Energy>  (62) 
156.977

>  <b_lp_Chiralities_Consistent>  (62) 
1

>  <s_lp_Variant>  (62) 
23:0-1

>  <s_i_glide_gridfile>  (62) 
pfpi4k_grid

>  <i_i_glide_lignum>  (62) 
31

>  <i_i_glide_rotatable_bonds>  (62) 
3

>  <r_i_docking_score>  (62) 
-3.65821

>  <r_i_glide_ligand_efficiency>  (62) 
-0.152425

>  <r_i_glide_ligand_efficiency_sa>  (62) 
-0.439671

>  <r_i_glide_ligand_efficiency_ln>  (62) 
-0.875578

>  <r_i_glide_gscore>  (62) 
-3.65821

>  <r_i_glide_lipo>  (62) 
-0.819784

>  <r_i_glide_hbond>  (62) 
0

>  <r_i_glide_metal>  (62) 
-0

>  <r_i_glide_rewards>  (62) 
-1.14964

>  <r_i_glide_evdw>  (62) 
-21.4167

>  <r_i_glide_ecoul>  (62) 
-3.49247

>  <r_i_glide_erotb>  (62) 
0

>  <r_i_glide_esite>  (62) 
-0.0940847

>  <r_i_glide_emodel>  (62) 
-33.7344

>  <r_i_glide_energy>  (62) 
-24.9091

>  <r_i_glide_einternal>  (62) 
0.465486

>  <r_i_glide_intrahb_reward>  (62) 
-0

>  <i_i_glide_confnum>  (62) 
1

>  <i_i_glide_posenum>  (62) 
1

>  <r_i_glide_eff_state_penalty>  (62) 
0

>  <ligand_id>  (62) 
23

>  <original_smiles>  (62) 
Oc1ccc2c3c1ONCC1(O)C(C2)N2CCC4(CCC4C2)C31O

>  <smiles>  (62) 
[H]Oc1c([H])c([H])c2c3c1ON([H])C([H])([H])C1(O[H])C3(O[H])C34C([H])([H])C([H])([H])C3([H])C([H])([H])[N+]([H])(C([H])([H])C4([H])[H])C1([H])C2([H])[H]

$$$$
23:1:0
     RDKit          3D

 46 51  0  0  1  0  0  0  0  0999 V2000
    2.4766   -7.9720    1.4508 O   0  0  0  0  0  0  0  0  0  0  0  0
    3.4300   -7.0198    1.2212 C   0  0  0  0  0  0  0  0  0  0  0  0
    4.7513   -7.4252    0.9929 C   0  0  0  0  0  0  0  0  0  0  0  0
    5.7812   -6.4632    1.0288 C   0  0  0  0  0  0  0  0  0  0  0  0
    5.4391   -5.0981    0.9895 C   0  0  0  0  0  0  0  0  0  0  0  0
    4.0808   -4.7557    0.7768 C   0  0  0  0  0  0  0  0  0  0  0  0
    3.0661   -5.6421    1.2150 C   0  0  0  0  0  0  0  0  0  0  0  0
    1.9119   -5.1497    1.7737 O   0  0  0  0  0  0  0  0  0  0  0  0
    2.0842   -4.2611    2.9715 N   0  0  0  0  0  0  0  0  0  0  0  0
    3.4135   -3.5907    3.0647 C   0  0  0  0  0  0  0  0  0  0  0  0
    4.0073   -2.6990    1.8619 C   0  0  1  0  0  0  0  0  0  0  0  0
    3.4717   -1.4230    2.1717 O   0  0  0  0  0  0  0  0  0  0  0  0
    5.5866   -2.6222    1.8311 C   0  0  1  0  0  0  0  0  0  0  0  0
    6.1666   -4.0573    1.8695 C   0  0  0  0  0  0  0  0  0  0  0  0
    6.2520   -1.8666    0.7237 N   0  0  0  0  0  0  0  0  0  0  0  0
    5.4892   -0.6782    0.2861 C   0  0  0  0  0  0  0  0  0  0  0  0
    4.2213   -1.0394   -0.5733 C   0  0  0  0  0  0  0  0  0  0  0  0
    4.1938   -2.5568   -0.8202 C   0  0  1  0  0  0  0  0  0  0  0  0
    3.6957   -3.1959   -2.1423 C   0  0  0  0  0  0  0  0  0  0  0  0
    5.0145   -3.9928   -2.1823 C   0  0  0  0  0  0  0  0  0  0  0  0
    5.5694   -2.8025   -1.4348 C   0  0  2  0  0  0  0  0  0  0  0  0
    6.7024   -2.6518   -0.4633 C   0  0  0  0  0  0  0  0  0  0  0  0
    3.6451   -3.2834    0.4932 C   0  0  1  0  0  0  0  0  0  0  0  0
    2.2403   -3.0657    0.2973 O   0  0  0  0  0  0  0  0  0  0  0  0
    2.8113   -8.8608    1.3607 H   0  0  0  0  0  0  0  0  0  0  0  0
    5.0182   -8.4752    0.9784 H   0  0  0  0  0  0  0  0  0  0  0  0
    6.8045   -6.7686    1.2017 H   0  0  0  0  0  0  0  0  0  0  0  0
    1.9576   -4.8754    3.7749 H   0  0  0  0  0  0  0  0  0  0  0  0
    3.3387   -2.9472    3.9357 H   0  0  0  0  0  0  0  0  0  0  0  0
    4.1141   -4.3664    3.3845 H   0  0  0  0  0  0  0  0  0  0  0  0
    2.6135   -1.3618    1.7731 H   0  0  0  0  0  0  0  0  0  0  0  0
    5.8823   -2.1320    2.7612 H   0  0  0  0  0  0  0  0  0  0  0  0
    6.1009   -4.4189    2.8908 H   0  0  0  0  0  0  0  0  0  0  0  0
    7.2432   -4.0767    1.7016 H   0  0  0  0  0  0  0  0  0  0  0  0
    5.2218   -0.0455    1.1355 H   0  0  0  0  0  0  0  0  0  0  0  0
    6.1485   -0.0565   -0.3195 H   0  0  0  0  0  0  0  0  0  0  0  0
    3.2948   -0.6571   -0.1459 H   0  0  0  0  0  0  0  0  0  0  0  0
    4.2976   -0.5066   -1.5175 H   0  0  0  0  0  0  0  0  0  0  0  0
    2.8190   -3.8409   -2.0510 H   0  0  0  0  0  0  0  0  0  0  0  0
    3.5953   -2.4889   -2.9673 H   0  0  0  0  0  0  0  0  0  0  0  0
    5.0004   -4.9260   -1.6224 H   0  0  0  0  0  0  0  0  0  0  0  0
    5.4178   -4.1271   -3.1874 H   0  0  0  0  0  0  0  0  0  0  0  0
    5.7369   -2.0818   -2.2357 H   0  0  0  0  0  0  0  0  0  0  0  0
    7.5032   -2.1078   -0.9569 H   0  0  0  0  0  0  0  0  0  0  0  0
    7.1668   -3.6000   -0.2449 H   0  0  0  0  0  0  0  0  0  0  0  0
    2.0892   -2.1920   -0.0490 H   0  0  0  0  0  0  0  0  0  0  0  0
  1  2  1  0
  1 25  1  0
  2  7  2  0
  2  3  1  0
  3  4  2  0
  3 26  1  0
  4  5  1  0
  4 27  1  0
  5 14  1  0
  5  6  2  0
  6 23  1  0
  6  7  1  0
  7  8  1  0
  8  9  1  0
  9 10  1  0
  9 28  1  0
 10 11  1  0
 10 29  1  0
 10 30  1  0
 11 23  1  0
 11 12  1  6
 11 13  1  0
 12 31  1  0
 13 14  1  0
 13 15  1  0
 13 32  1  1
 14 33  1  0
 14 34  1  0
 15 22  1  0
 15 16  1  0
 16 17  1  0
 16 35  1  0
 16 36  1  0
 17 18  1  0
 17 37  1  0
 17 38  1  0
 18 21  1  0
 18 19  1  6
 18 23  1  0
 19 20  1  0
 19 39  1  0
 19 40  1  0
 20 21  1  0
 20 41  1  0
 20 42  1  0
 21 22  1  0
 21 43  1  6
 22 44  1  0
 22 45  1  0
 23 24  1  6
 24 46  1  0
M  END
>  <i_m_ct_stereo_status>  (63) 
1

>  <s_m_source_file>  (63) 
/var/tmp/pbs.5076255.sched01/tmp9stzsw2m/06nqgg2pe.sdf

>  <i_m_source_file_index>  (63) 
32

>  <i_lp_mmshare_version>  (63) 
48012

>  <i_f3d_flags>  (63) 
0

>  <s_epik_input>  (63) 
W0NIMl0xW05IXU9jMmMoW09IXSlbY0hdW2NIXWMoW0NIMl0zKWMyW0NAQF00KFtPSF0pW0NAXTEoW09IXSlbQ0BASF0zTihbQ0gyXVtDSDJdNSlbQ0gyXVtDQEhdKFtDQEBdNDU2KVtDSDJdW0NIMl02

>  <s_epik_cmdline>  (63) 
J2VwaWtfcHl0aG9uJywgJy1waHQnLCAnMi4wJywgJy1waCcsICc3LjAnLCAnLXRuJywgJzgnLCAnLW1hJywgJzIwMCcsICctaW1hZScsICc8aW5maWxlLm1hZT4nLCAnLW9tYWUnLCAnPG91dGZpbGUubWFlPic=

>  <r_lp_tautomer_probability>  (63) 
1

>  <r_epik_Ionization_Penalty>  (63) 
1.04389

>  <r_epik_Ionization_Penalty_Charging>  (63) 
0

>  <r_epik_Ionization_Penalty_Neutral>  (63) 
1.04389

>  <r_epik_State_Penalty>  (63) 
1.09514

>  <r_epik_Charging_Adjusted_Penalty>  (63) 
1.09514

>  <i_epik_Tot_Q>  (63) 
0

>  <i_epik_Tot_abs_Q>  (63) 
0

>  <s_epik_Chemistry_Notes>  (63) 
This compound has a N-S or N-O group and may undergo hydrolysis at high or low pH.

>  <s_lp_Force_Field>  (63) 
OPLS3e

>  <r_lp_Energy>  (63) 
154.511

>  <b_lp_Chiralities_Consistent>  (63) 
1

>  <s_lp_Variant>  (63) 
23:0-2

>  <s_i_glide_gridfile>  (63) 
pfpi4k_grid

>  <i_i_glide_lignum>  (63) 
32

>  <i_i_glide_rotatable_bonds>  (63) 
3

>  <r_i_docking_score>  (63) 
-3.15874

>  <r_i_glide_ligand_efficiency>  (63) 
-0.131614

>  <r_i_glide_ligand_efficiency_sa>  (63) 
-0.379641

>  <r_i_glide_ligand_efficiency_ln>  (63) 
-0.756032

>  <r_i_glide_gscore>  (63) 
-3.15874

>  <r_i_glide_lipo>  (63) 
-0.540861

>  <r_i_glide_hbond>  (63) 
0

>  <r_i_glide_metal>  (63) 
-0

>  <r_i_glide_rewards>  (63) 
-1.15651

>  <r_i_glide_evdw>  (63) 
-22.2722

>  <r_i_glide_ecoul>  (63) 
-2.00096

>  <r_i_glide_erotb>  (63) 
0

>  <r_i_glide_esite>  (63) 
-0.0476156

>  <r_i_glide_emodel>  (63) 
-28.9559

>  <r_i_glide_energy>  (63) 
-24.2732

>  <r_i_glide_einternal>  (63) 
1.03557

>  <r_i_glide_intrahb_reward>  (63) 
-0

>  <i_i_glide_confnum>  (63) 
1

>  <i_i_glide_posenum>  (63) 
21

>  <r_i_glide_eff_state_penalty>  (63) 
0

>  <ligand_id>  (63) 
23

>  <original_smiles>  (63) 
Oc1ccc2c3c1ONCC1(O)C(C2)N2CCC4(CCC4C2)C31O

>  <smiles>  (63) 
[H]Oc1c([H])c([H])c2c3c1ON([H])C([H])([H])C1(O[H])C3(O[H])C34C([H])([H])C([H])([H])N(C([H])([H])C3([H])C([H])([H])C4([H])[H])C1([H])C2([H])[H]

$$$$
23:1:1
     RDKit          3D

 46 51  0  0  1  0  0  0  0  0999 V2000
    2.4951   -7.9859    1.4199 O   0  0  0  0  0  0  0  0  0  0  0  0
    3.4301   -7.0200    1.1792 C   0  0  0  0  0  0  0  0  0  0  0  0
    4.7514   -7.4256    0.9484 C   0  0  0  0  0  0  0  0  0  0  0  0
    5.7815   -6.4638    0.9862 C   0  0  0  0  0  0  0  0  0  0  0  0
    5.4373   -5.0973    0.9575 C   0  0  0  0  0  0  0  0  0  0  0  0
    4.0750   -4.7566    0.7399 C   0  0  0  0  0  0  0  0  0  0  0  0
    3.0689   -5.6459    1.1742 C   0  0  0  0  0  0  0  0  0  0  0  0
    1.9121   -5.1643    1.7439 O   0  0  0  0  0  0  0  0  0  0  0  0
    2.0921   -4.2775    2.9422 N   0  0  0  0  0  0  0  0  0  0  0  0
    3.4170   -3.6059    3.0385 C   0  0  0  0  0  0  0  0  0  0  0  0
    4.0058   -2.7084    1.8376 C   0  0  1  0  0  0  0  0  0  0  0  0
    3.4524   -1.4418    2.1566 O   0  0  0  0  0  0  0  0  0  0  0  0
    5.5889   -2.6308    1.8072 C   0  0  1  0  0  0  0  0  0  0  0  0
    6.1695   -4.0649    1.8402 C   0  0  0  0  0  0  0  0  0  0  0  0
    6.2523   -1.8679    0.6991 N   0  0  0  0  0  0  0  0  0  0  0  0
    5.4863   -0.6813    0.2703 C   0  0  0  0  0  0  0  0  0  0  0  0
    4.2183   -1.0394   -0.5928 C   0  0  0  0  0  0  0  0  0  0  0  0
    4.1887   -2.5565   -0.8448 C   0  0  1  0  0  0  0  0  0  0  0  0
    3.6952   -3.1977   -2.1698 C   0  0  0  0  0  0  0  0  0  0  0  0
    5.0195   -3.9885   -2.2120 C   0  0  0  0  0  0  0  0  0  0  0  0
    5.5685   -2.7975   -1.4609 C   0  0  2  0  0  0  0  0  0  0  0  0
    6.7032   -2.6519   -0.4897 C   0  0  0  0  0  0  0  0  0  0  0  0
    3.6415   -3.2864    0.4666 C   0  0  1  0  0  0  0  0  0  0  0  0
    2.2465   -3.0670    0.2725 O   0  0  0  0  0  0  0  0  0  0  0  0
    1.6138   -7.6726    1.5374 H   0  0  0  0  0  0  0  0  0  0  0  0
    5.0073   -8.4798    0.9365 H   0  0  0  0  0  0  0  0  0  0  0  0
    6.8063   -6.7728    1.1576 H   0  0  0  0  0  0  0  0  0  0  0  0
    1.9693   -4.8912    3.7460 H   0  0  0  0  0  0  0  0  0  0  0  0
    3.3440   -2.9686    3.9151 H   0  0  0  0  0  0  0  0  0  0  0  0
    4.1194   -4.3791    3.3536 H   0  0  0  0  0  0  0  0  0  0  0  0
    2.5284   -1.4724    1.9557 H   0  0  0  0  0  0  0  0  0  0  0  0
    5.8870   -2.1401    2.7379 H   0  0  0  0  0  0  0  0  0  0  0  0
    6.1087   -4.4300    2.8607 H   0  0  0  0  0  0  0  0  0  0  0  0
    7.2459   -4.0861    1.6737 H   0  0  0  0  0  0  0  0  0  0  0  0
    5.2164   -0.0562    1.1231 H   0  0  0  0  0  0  0  0  0  0  0  0
    6.1447   -0.0539   -0.3261 H   0  0  0  0  0  0  0  0  0  0  0  0
    3.2936   -0.6626   -0.1612 H   0  0  0  0  0  0  0  0  0  0  0  0
    4.2936   -0.5028   -1.5371 H   0  0  0  0  0  0  0  0  0  0  0  0
    2.8225   -3.8458   -2.0818 H   0  0  0  0  0  0  0  0  0  0  0  0
    3.5873   -2.4867   -2.9933 H   0  0  0  0  0  0  0  0  0  0  0  0
    5.0054   -4.9236   -1.6578 H   0  0  0  0  0  0  0  0  0  0  0  0
    5.4200   -4.1204   -3.2193 H   0  0  0  0  0  0  0  0  0  0  0  0
    5.7361   -2.0720   -2.2600 H   0  0  0  0  0  0  0  0  0  0  0  0
    7.5020   -2.1051   -0.9813 H   0  0  0  0  0  0  0  0  0  0  0  0
    7.1668   -3.6018   -0.2786 H   0  0  0  0  0  0  0  0  0  0  0  0
    2.0955   -2.1855   -0.0651 H   0  0  0  0  0  0  0  0  0  0  0  0
  1  2  1  0
  1 25  1  0
  2  7  2  0
  2  3  1  0
  3  4  2  0
  3 26  1  0
  4  5  1  0
  4 27  1  0
  5 14  1  0
  5  6  2  0
  6 23  1  0
  6  7  1  0
  7  8  1  0
  8  9  1  0
  9 10  1  0
  9 28  1  0
 10 11  1  0
 10 29  1  0
 10 30  1  0
 11 23  1  0
 11 12  1  6
 11 13  1  0
 12 31  1  0
 13 14  1  0
 13 15  1  0
 13 32  1  1
 14 33  1  0
 14 34  1  0
 15 22  1  0
 15 16  1  0
 16 17  1  0
 16 35  1  0
 16 36  1  0
 17 18  1  0
 17 37  1  0
 17 38  1  0
 18 21  1  0
 18 19  1  6
 18 23  1  0
 19 20  1  0
 19 39  1  0
 19 40  1  0
 20 21  1  0
 20 41  1  0
 20 42  1  0
 21 22  1  0
 21 43  1  6
 22 44  1  0
 22 45  1  0
 23 24  1  6
 24 46  1  0
M  END
>  <i_m_ct_stereo_status>  (64) 
1

>  <s_m_source_file>  (64) 
/var/tmp/pbs.5076255.sched01/tmp9stzsw2m/06nqgg2pe.sdf

>  <i_m_source_file_index>  (64) 
32

>  <i_lp_mmshare_version>  (64) 
48012

>  <i_f3d_flags>  (64) 
0

>  <s_epik_input>  (64) 
W0NIMl0xW05IXU9jMmMoW09IXSlbY0hdW2NIXWMoW0NIMl0zKWMyW0NAQF00KFtPSF0pW0NAXTEoW09IXSlbQ0BASF0zTihbQ0gyXVtDSDJdNSlbQ0gyXVtDQEhdKFtDQEBdNDU2KVtDSDJdW0NIMl02

>  <s_epik_cmdline>  (64) 
J2VwaWtfcHl0aG9uJywgJy1waHQnLCAnMi4wJywgJy1waCcsICc3LjAnLCAnLXRuJywgJzgnLCAnLW1hJywgJzIwMCcsICctaW1hZScsICc8aW5maWxlLm1hZT4nLCAnLW9tYWUnLCAnPG91dGZpbGUubWFlPic=

>  <r_lp_tautomer_probability>  (64) 
1

>  <r_epik_Ionization_Penalty>  (64) 
1.04389

>  <r_epik_Ionization_Penalty_Charging>  (64) 
0

>  <r_epik_Ionization_Penalty_Neutral>  (64) 
1.04389

>  <r_epik_State_Penalty>  (64) 
1.09514

>  <r_epik_Charging_Adjusted_Penalty>  (64) 
1.09514

>  <i_epik_Tot_Q>  (64) 
0

>  <i_epik_Tot_abs_Q>  (64) 
0

>  <s_epik_Chemistry_Notes>  (64) 
This compound has a N-S or N-O group and may undergo hydrolysis at high or low pH.

>  <s_lp_Force_Field>  (64) 
OPLS3e

>  <r_lp_Energy>  (64) 
154.511

>  <b_lp_Chiralities_Consistent>  (64) 
1

>  <s_lp_Variant>  (64) 
23:0-2

>  <s_i_glide_gridfile>  (64) 
pfpi4k_grid

>  <i_i_glide_lignum>  (64) 
32

>  <i_i_glide_rotatable_bonds>  (64) 
3

>  <r_i_docking_score>  (64) 
-3.12048

>  <r_i_glide_ligand_efficiency>  (64) 
-0.13002

>  <r_i_glide_ligand_efficiency_sa>  (64) 
-0.375043

>  <r_i_glide_ligand_efficiency_ln>  (64) 
-0.746874

>  <r_i_glide_gscore>  (64) 
-3.12048

>  <r_i_glide_lipo>  (64) 
-0.535951

>  <r_i_glide_hbond>  (64) 
0

>  <r_i_glide_metal>  (64) 
-0

>  <r_i_glide_rewards>  (64) 
-1.15651

>  <r_i_glide_evdw>  (64) 
-22.18

>  <r_i_glide_ecoul>  (64) 
-1.79787

>  <r_i_glide_erotb>  (64) 
0

>  <r_i_glide_esite>  (64) 
-0.0493356

>  <r_i_glide_emodel>  (64) 
-29.0213

>  <r_i_glide_energy>  (64) 
-23.9779

>  <r_i_glide_einternal>  (64) 
0.511282

>  <r_i_glide_intrahb_reward>  (64) 
-0

>  <i_i_glide_confnum>  (64) 
2

>  <i_i_glide_posenum>  (64) 
35

>  <r_i_glide_eff_state_penalty>  (64) 
0

>  <ligand_id>  (64) 
23

>  <original_smiles>  (64) 
Oc1ccc2c3c1ONCC1(O)C(C2)N2CCC4(CCC4C2)C31O

>  <smiles>  (64) 
[H]Oc1c([H])c([H])c2c3c1ON([H])C([H])([H])C1(O[H])C3(O[H])C34C([H])([H])C([H])([H])N(C([H])([H])C3([H])C([H])([H])C4([H])[H])C1([H])C2([H])[H]

$$$$
23:1:2
     RDKit          3D

 46 51  0  0  1  0  0  0  0  0999 V2000
    2.4734   -7.9795    1.4587 O   0  0  0  0  0  0  0  0  0  0  0  0
    3.4222   -7.0255    1.2215 C   0  0  0  0  0  0  0  0  0  0  0  0
    4.7476   -7.4345    0.9890 C   0  0  0  0  0  0  0  0  0  0  0  0
    5.7744   -6.4696    1.0240 C   0  0  0  0  0  0  0  0  0  0  0  0
    5.4325   -5.1031    0.9917 C   0  0  0  0  0  0  0  0  0  0  0  0
    4.0717   -4.7618    0.7746 C   0  0  0  0  0  0  0  0  0  0  0  0
    3.0682   -5.6510    1.2121 C   0  0  0  0  0  0  0  0  0  0  0  0
    1.9125   -5.1579    1.7791 O   0  0  0  0  0  0  0  0  0  0  0  0
    2.0929   -4.2718    2.9763 N   0  0  0  0  0  0  0  0  0  0  0  0
    3.4189   -3.5994    3.0718 C   0  0  0  0  0  0  0  0  0  0  0  0
    4.0030   -2.7055    1.8691 C   0  0  1  0  0  0  0  0  0  0  0  0
    3.4536   -1.4405    2.2000 O   0  0  0  0  0  0  0  0  0  0  0  0
    5.5867   -2.6313    1.8350 C   0  0  1  0  0  0  0  0  0  0  0  0
    6.1664   -4.0677    1.8696 C   0  0  0  0  0  0  0  0  0  0  0  0
    6.2513   -1.8697    0.7268 N   0  0  0  0  0  0  0  0  0  0  0  0
    5.4918   -0.6807    0.2911 C   0  0  0  0  0  0  0  0  0  0  0  0
    4.2202   -1.0410   -0.5651 C   0  0  0  0  0  0  0  0  0  0  0  0
    4.1885   -2.5594   -0.8152 C   0  0  1  0  0  0  0  0  0  0  0  0
    3.6931   -3.1956   -2.1394 C   0  0  0  0  0  0  0  0  0  0  0  0
    5.0174   -3.9980   -2.1819 C   0  0  0  0  0  0  0  0  0  0  0  0
    5.5678   -2.8077   -1.4336 C   0  0  2  0  0  0  0  0  0  0  0  0
    6.7031   -2.6558   -0.4606 C   0  0  0  0  0  0  0  0  0  0  0  0
    3.6398   -3.2896    0.4972 C   0  0  1  0  0  0  0  0  0  0  0  0
    2.2475   -3.0832    0.2740 O   0  0  0  0  0  0  0  0  0  0  0  0
    2.8094   -8.8657    1.3827 H   0  0  0  0  0  0  0  0  0  0  0  0
    5.0121   -8.4828    0.9752 H   0  0  0  0  0  0  0  0  0  0  0  0
    6.8000   -6.7775    1.1940 H   0  0  0  0  0  0  0  0  0  0  0  0
    1.9655   -4.8860    3.7768 H   0  0  0  0  0  0  0  0  0  0  0  0
    3.3443   -2.9603    3.9478 H   0  0  0  0  0  0  0  0  0  0  0  0
    4.1202   -4.3730    3.3876 H   0  0  0  0  0  0  0  0  0  0  0  0
    3.5841   -0.8636    1.4641 H   0  0  0  0  0  0  0  0  0  0  0  0
    5.8895   -2.1421    2.7642 H   0  0  0  0  0  0  0  0  0  0  0  0
    6.1060   -4.4303    2.8916 H   0  0  0  0  0  0  0  0  0  0  0  0
    7.2427   -4.0908    1.6996 H   0  0  0  0  0  0  0  0  0  0  0  0
    5.2361   -0.0460    1.1418 H   0  0  0  0  0  0  0  0  0  0  0  0
    6.1512   -0.0649   -0.3190 H   0  0  0  0  0  0  0  0  0  0  0  0
    3.2903   -0.6612   -0.1452 H   0  0  0  0  0  0  0  0  0  0  0  0
    4.2992   -0.5103   -1.5135 H   0  0  0  0  0  0  0  0  0  0  0  0
    2.8170   -3.8367   -2.0524 H   0  0  0  0  0  0  0  0  0  0  0  0
    3.5944   -2.4891   -2.9650 H   0  0  0  0  0  0  0  0  0  0  0  0
    5.0000   -4.9313   -1.6232 H   0  0  0  0  0  0  0  0  0  0  0  0
    5.4179   -4.1331   -3.1838 H   0  0  0  0  0  0  0  0  0  0  0  0
    5.7405   -2.0805   -2.2325 H   0  0  0  0  0  0  0  0  0  0  0  0
    7.5054   -2.1136   -0.9543 H   0  0  0  0  0  0  0  0  0  0  0  0
    7.1651   -3.6083   -0.2471 H   0  0  0  0  0  0  0  0  0  0  0  0
    2.0814   -2.1781    0.0250 H   0  0  0  0  0  0  0  0  0  0  0  0
  1  2  1  0
  1 25  1  0
  2  7  2  0
  2  3  1  0
  3  4  2  0
  3 26  1  0
  4  5  1  0
  4 27  1  0
  5 14  1  0
  5  6  2  0
  6 23  1  0
  6  7  1  0
  7  8  1  0
  8  9  1  0
  9 10  1  0
  9 28  1  0
 10 11  1  0
 10 29  1  0
 10 30  1  0
 11 23  1  0
 11 12  1  6
 11 13  1  0
 12 31  1  0
 13 14  1  0
 13 15  1  0
 13 32  1  1
 14 33  1  0
 14 34  1  0
 15 22  1  0
 15 16  1  0
 16 17  1  0
 16 35  1  0
 16 36  1  0
 17 18  1  0
 17 37  1  0
 17 38  1  0
 18 21  1  0
 18 19  1  6
 18 23  1  0
 19 20  1  0
 19 39  1  0
 19 40  1  0
 20 21  1  0
 20 41  1  0
 20 42  1  0
 21 22  1  0
 21 43  1  6
 22 44  1  0
 22 45  1  0
 23 24  1  6
 24 46  1  0
M  END
>  <i_m_ct_stereo_status>  (65) 
1

>  <s_m_source_file>  (65) 
/var/tmp/pbs.5076255.sched01/tmp9stzsw2m/06nqgg2pe.sdf

>  <i_m_source_file_index>  (65) 
32

>  <i_lp_mmshare_version>  (65) 
48012

>  <i_f3d_flags>  (65) 
0

>  <s_epik_input>  (65) 
W0NIMl0xW05IXU9jMmMoW09IXSlbY0hdW2NIXWMoW0NIMl0zKWMyW0NAQF00KFtPSF0pW0NAXTEoW09IXSlbQ0BASF0zTihbQ0gyXVtDSDJdNSlbQ0gyXVtDQEhdKFtDQEBdNDU2KVtDSDJdW0NIMl02

>  <s_epik_cmdline>  (65) 
J2VwaWtfcHl0aG9uJywgJy1waHQnLCAnMi4wJywgJy1waCcsICc3LjAnLCAnLXRuJywgJzgnLCAnLW1hJywgJzIwMCcsICctaW1hZScsICc8aW5maWxlLm1hZT4nLCAnLW9tYWUnLCAnPG91dGZpbGUubWFlPic=

>  <r_lp_tautomer_probability>  (65) 
1

>  <r_epik_Ionization_Penalty>  (65) 
1.04389

>  <r_epik_Ionization_Penalty_Charging>  (65) 
0

>  <r_epik_Ionization_Penalty_Neutral>  (65) 
1.04389

>  <r_epik_State_Penalty>  (65) 
1.09514

>  <r_epik_Charging_Adjusted_Penalty>  (65) 
1.09514

>  <i_epik_Tot_Q>  (65) 
0

>  <i_epik_Tot_abs_Q>  (65) 
0

>  <s_epik_Chemistry_Notes>  (65) 
This compound has a N-S or N-O group and may undergo hydrolysis at high or low pH.

>  <s_lp_Force_Field>  (65) 
OPLS3e

>  <r_lp_Energy>  (65) 
154.511

>  <b_lp_Chiralities_Consistent>  (65) 
1

>  <s_lp_Variant>  (65) 
23:0-2

>  <s_i_glide_gridfile>  (65) 
pfpi4k_grid

>  <i_i_glide_lignum>  (65) 
32

>  <i_i_glide_rotatable_bonds>  (65) 
3

>  <r_i_docking_score>  (65) 
-3.0413

>  <r_i_glide_ligand_efficiency>  (65) 
-0.126721

>  <r_i_glide_ligand_efficiency_sa>  (65) 
-0.365526

>  <r_i_glide_ligand_efficiency_ln>  (65) 
-0.727923

>  <r_i_glide_gscore>  (65) 
-3.0413

>  <r_i_glide_lipo>  (65) 
-0.540425

>  <r_i_glide_hbond>  (65) 
0

>  <r_i_glide_metal>  (65) 
-0

>  <r_i_glide_rewards>  (65) 
-1.15651

>  <r_i_glide_evdw>  (65) 
-22.3115

>  <r_i_glide_ecoul>  (65) 
-1.20812

>  <r_i_glide_erotb>  (65) 
0

>  <r_i_glide_esite>  (65) 
-0.0475725

>  <r_i_glide_emodel>  (65) 
-28.5373

>  <r_i_glide_energy>  (65) 
-23.5196

>  <r_i_glide_einternal>  (65) 
0.380635

>  <r_i_glide_intrahb_reward>  (65) 
-0

>  <i_i_glide_confnum>  (65) 
2

>  <i_i_glide_posenum>  (65) 
33

>  <r_i_glide_eff_state_penalty>  (65) 
0

>  <ligand_id>  (65) 
23

>  <original_smiles>  (65) 
Oc1ccc2c3c1ONCC1(O)C(C2)N2CCC4(CCC4C2)C31O

>  <smiles>  (65) 
[H]Oc1c([H])c([H])c2c3c1ON([H])C([H])([H])C1(O[H])C3(O[H])C34C([H])([H])C([H])([H])N(C([H])([H])C3([H])C([H])([H])C4([H])[H])C1([H])C2([H])[H]

$$$$
24:1:0
     RDKit          3D

 59 64  0  0  1  0  0  0  0  0999 V2000
   -2.9740    3.1878    3.2638 C   0  0  0  0  0  0  0  0  0  0  0  0
   -2.5008    3.7498    4.4953 O   0  0  0  0  0  0  0  0  0  0  0  0
   -1.9554    2.8657    5.3725 C   0  0  0  0  0  0  0  0  0  0  0  0
   -2.3498    2.9212    6.7434 C   0  0  0  0  0  0  0  0  0  0  0  0
   -1.6634    2.2224    7.7757 C   0  0  0  0  0  0  0  0  0  0  0  0
   -0.6693    1.3539    7.2830 C   0  0  0  0  0  0  0  0  0  0  0  0
   -0.4463    0.9267    5.9642 C   0  0  0  0  0  0  0  0  0  0  0  0
   -0.9197    1.9527    5.1028 C   0  0  0  0  0  0  0  0  0  0  0  0
   -0.2891    2.1940    3.8997 O   0  0  0  0  0  0  0  0  0  0  0  0
    1.1181    2.5066    3.8455 C   0  0  2  0  0  0  0  0  0  0  0  0
    1.7006    1.6218    2.6688 C   0  0  2  0  0  0  0  0  0  0  0  0
    0.7515    0.4815    2.3562 C   0  0  0  0  0  0  0  0  0  0  0  0
    0.5263   -0.4116    3.3294 C   0  0  0  0  0  0  0  0  0  0  0  0
    1.2494   -0.2894    4.6676 C   0  0  2  0  0  0  0  0  0  0  0  0
    0.3614   -0.1589    5.7663 O   0  0  0  0  0  0  0  0  0  0  0  0
    2.4694    0.7150    4.6978 C   0  0  1  0  0  0  0  0  0  0  0  0
    2.9771    0.9822    3.2606 C   0  0  1  0  0  0  0  0  0  0  0  0
    3.6116   -0.2354    2.5379 C   0  0  0  0  0  0  0  0  0  0  0  0
    3.8615   -0.0038    1.0380 C   0  0  0  0  0  0  0  0  0  0  0  0
    4.7100   -1.0796    0.4093 C   0  0  0  0  0  0  0  0  0  0  0  0
    6.0670   -1.2311    0.7906 C   0  0  0  0  0  0  0  0  0  0  0  0
    6.8650   -2.2365    0.2015 C   0  0  0  0  0  0  0  0  0  0  0  0
    6.3115   -3.0899   -0.7801 C   0  0  0  0  0  0  0  0  0  0  0  0
    4.9557   -2.9455   -1.1620 C   0  0  0  0  0  0  0  0  0  0  0  0
    4.1578   -1.9385   -0.5714 C   0  0  0  0  0  0  0  0  0  0  0  0
    2.0587    2.1559    5.0529 C   0  0  2  0  0  0  0  0  0  0  0  0
    1.8285    2.5832    6.5569 C   0  0  0  0  0  0  0  0  0  0  0  0
    1.8294    1.4356    7.4940 N   0  0  0  0  0  0  0  0  0  0  0  0
    2.9628    1.4496    8.4110 C   0  0  0  0  0  0  0  0  0  0  0  0
    0.5541    1.1730    8.1960 C   0  0  0  0  0  0  0  0  0  0  0  0
   -3.3073    3.9892    2.5969 H   0  0  0  0  0  0  0  0  0  0  0  0
   -3.8242    2.5431    3.4677 H   0  0  0  0  0  0  0  0  0  0  0  0
   -2.2480    2.6087    2.6999 H   0  0  0  0  0  0  0  0  0  0  0  0
   -3.1241    3.6192    7.0265 H   0  0  0  0  0  0  0  0  0  0  0  0
   -1.8135    2.4455    8.8093 H   0  0  0  0  0  0  0  0  0  0  0  0
    1.2253    3.5649    3.6010 H   0  0  0  0  0  0  0  0  0  0  0  0
    1.8974    2.1993    1.7604 H   0  0  0  0  0  0  0  0  0  0  0  0
    0.2778    0.4411    1.3794 H   0  0  0  0  0  0  0  0  0  0  0  0
   -0.1533   -1.2405    3.2078 H   0  0  0  0  0  0  0  0  0  0  0  0
    1.6881   -1.2817    4.7990 H   0  0  0  0  0  0  0  0  0  0  0  0
    3.2619    0.3604    5.3536 H   0  0  0  0  0  0  0  0  0  0  0  0
    3.7648    1.7369    3.2785 H   0  0  0  0  0  0  0  0  0  0  0  0
    4.5639   -0.4265    3.0328 H   0  0  0  0  0  0  0  0  0  0  0  0
    3.0305   -1.1458    2.6661 H   0  0  0  0  0  0  0  0  0  0  0  0
    2.9041    0.0597    0.5169 H   0  0  0  0  0  0  0  0  0  0  0  0
    4.3656    0.9466    0.8816 H   0  0  0  0  0  0  0  0  0  0  0  0
    6.4979   -0.5892    1.5365 H   0  0  0  0  0  0  0  0  0  0  0  0
    7.8901   -2.3584    0.5031 H   0  0  0  0  0  0  0  0  0  0  0  0
    6.9195   -3.8512   -1.2255 H   0  0  0  0  0  0  0  0  0  0  0  0
    4.5283   -3.6045   -1.8977 H   0  0  0  0  0  0  0  0  0  0  0  0
    3.1280   -1.8280   -0.8669 H   0  0  0  0  0  0  0  0  0  0  0  0
    2.9419    2.7728    4.8637 H   0  0  0  0  0  0  0  0  0  0  0  0
    2.6287    3.2647    6.8510 H   0  0  0  0  0  0  0  0  0  0  0  0
    0.9355    3.1986    6.6553 H   0  0  0  0  0  0  0  0  0  0  0  0
    3.0012    0.5292    8.9946 H   0  0  0  0  0  0  0  0  0  0  0  0
    2.9100    2.2892    9.1044 H   0  0  0  0  0  0  0  0  0  0  0  0
    3.9006    1.5245    7.8592 H   0  0  0  0  0  0  0  0  0  0  0  0
    0.4703    1.8379    9.0588 H   0  0  0  0  0  0  0  0  0  0  0  0
    0.5677    0.1503    8.5788 H   0  0  0  0  0  0  0  0  0  0  0  0
  1  2  1  0
  1 31  1  0
  1 32  1  0
  1 33  1  0
  2  3  1  0
  3  8  2  0
  3  4  1  0
  4  5  2  0
  4 34  1  0
  5  6  1  0
  5 35  1  0
  6 30  1  0
  6  7  2  0
  7 15  1  0
  7  8  1  0
  8  9  1  0
  9 10  1  0
 10 26  1  0
 10 11  1  0
 10 36  1  6
 11 17  1  0
 11 12  1  0
 11 37  1  6
 12 13  2  0
 12 38  1  0
 13 14  1  0
 13 39  1  0
 14 15  1  0
 14 16  1  0
 14 40  1  1
 16 17  1  0
 16 26  1  0
 16 41  1  1
 17 18  1  0
 17 42  1  1
 18 19  1  0
 18 43  1  0
 18 44  1  0
 19 20  1  0
 19 45  1  0
 19 46  1  0
 20 25  1  0
 20 21  2  0
 21 22  1  0
 21 47  1  0
 22 23  2  0
 22 48  1  0
 23 24  1  0
 23 49  1  0
 24 25  2  0
 24 50  1  0
 25 51  1  0
 26 27  1  0
 26 52  1  6
 27 28  1  0
 27 53  1  0
 27 54  1  0
 28 29  1  0
 28 30  1  0
 29 55  1  0
 29 56  1  0
 29 57  1  0
 30 58  1  0
 30 59  1  0
M  END
>  <i_m_ct_stereo_status>  (66) 
1

>  <s_m_source_file>  (66) 
/var/tmp/pbs.5076255.sched01/tmp9stzsw2m/06nqgg2pe.sdf

>  <i_m_source_file_index>  (66) 
34

>  <i_lp_mmshare_version>  (66) 
48012

>  <i_f3d_flags>  (66) 
0

>  <s_epik_input>  (66) 
W0NIM11PYyhbY0hdW2NIXTEpYyhjMmMxMylPW0NAQEhdNFtDQEBIXTVbQ0hdPVtDSF1bQ0BIXShPMilbQ0BIXShbQ0BASF00W0NIMl1OKFtDSDNdKVtDSDJdMylbQ0BIXTVbQ0gyXVtDSDJdYzZbY0hdW2NIXVtjSF1bY0hdW2NIXTY=

>  <s_epik_cmdline>  (66) 
J2VwaWtfcHl0aG9uJywgJy1waHQnLCAnMi4wJywgJy1waCcsICc3LjAnLCAnLXRuJywgJzgnLCAnLW1hJywgJzIwMCcsICctaW1hZScsICc8aW5maWxlLm1hZT4nLCAnLW9tYWUnLCAnPG91dGZpbGUubWFlPic=

>  <r_lp_tautomer_probability>  (66) 
1

>  <r_epik_Ionization_Penalty>  (66) 
1.69229

>  <r_epik_Ionization_Penalty_Charging>  (66) 
0

>  <r_epik_Ionization_Penalty_Neutral>  (66) 
1.69229

>  <r_epik_State_Penalty>  (66) 
1.7976

>  <r_epik_Charging_Adjusted_Penalty>  (66) 
1.7976

>  <i_epik_Tot_Q>  (66) 
0

>  <i_epik_Tot_abs_Q>  (66) 
0

>  <s_lp_Force_Field>  (66) 
OPLS3e

>  <r_lp_Energy>  (66) 
130.985

>  <b_lp_Chiralities_Consistent>  (66) 
1

>  <s_lp_Variant>  (66) 
24:0-2

>  <s_i_glide_gridfile>  (66) 
pfpi4k_grid

>  <i_i_glide_lignum>  (66) 
34

>  <i_i_glide_rotatable_bonds>  (66) 
4

>  <r_i_docking_score>  (66) 
-2.6404

>  <r_i_glide_ligand_efficiency>  (66) 
-0.0880133

>  <r_i_glide_ligand_efficiency_sa>  (66) 
-0.273478

>  <r_i_glide_ligand_efficiency_ln>  (66) 
-0.599927

>  <r_i_glide_gscore>  (66) 
-2.6404

>  <r_i_glide_lipo>  (66) 
-0.492123

>  <r_i_glide_hbond>  (66) 
0

>  <r_i_glide_metal>  (66) 
-0

>  <r_i_glide_rewards>  (66) 
-0.657863

>  <r_i_glide_evdw>  (66) 
-27.3329

>  <r_i_glide_ecoul>  (66) 
-3.23682

>  <r_i_glide_erotb>  (66) 
0.361758

>  <r_i_glide_esite>  (66) 
0

>  <r_i_glide_emodel>  (66) 
-32.5343

>  <r_i_glide_energy>  (66) 
-30.5698

>  <r_i_glide_einternal>  (66) 
6.35324

>  <r_i_glide_intrahb_reward>  (66) 
-0

>  <i_i_glide_confnum>  (66) 
6

>  <i_i_glide_posenum>  (66) 
6

>  <r_i_glide_eff_state_penalty>  (66) 
0

>  <ligand_id>  (66) 
24

>  <original_smiles>  (66) 
COc1ccc2c3c1OC1C4C=CC(O3)C(C4CCc3ccccc3)C1CN(C)C2

>  <smiles>  (66) 
[H]C1=C([H])C2([H])C3([H])Oc4c(OC([H])([H])[H])c([H])c([H])c5c4OC1([H])C([H])(C3([H])C([H])([H])N(C([H])([H])[H])C5([H])[H])C2([H])C([H])([H])C([H])([H])c1c([H])c([H])c([H])c([H])c1[H]

$$$$
26:0:0
     RDKit          3D

 61 66  0  0  1  0  0  0  0  0999 V2000
   -1.9108   -9.4425    2.4361 C   0  0  0  0  0  0  0  0  0  0  0  0
   -1.5032   -8.0998    2.2304 O   0  0  0  0  0  0  0  0  0  0  0  0
   -0.1954   -7.7055    2.2086 C   0  0  0  0  0  0  0  0  0  0  0  0
    0.1566   -6.5556    1.9264 O   0  0  0  0  0  0  0  0  0  0  0  0
    0.8513   -8.7934    2.5074 C   0  0  2  0  0  0  0  0  0  0  0  0
    0.6701   -9.4724    3.9266 C   0  0  0  0  0  0  0  0  0  0  0  0
    1.9838   -9.6821    4.8014 C   0  0  2  0  0  0  0  0  0  0  0  0
    2.3401  -11.1909    4.5507 C   0  0  0  0  0  0  0  0  0  0  0  0
    3.2457  -11.2949    3.2469 C   0  0  0  0  0  0  0  0  0  0  0  0
    4.2867  -10.1697    3.4942 C   0  0  2  0  0  0  0  0  0  0  0  0
    5.4880  -10.9018    4.1606 C   0  0  0  0  0  0  0  0  0  0  0  0
    3.3366   -9.4458    4.3787 C   0  0  1  0  0  0  0  0  0  0  0  0
    2.7221   -7.9278    3.9366 C   0  0  2  0  0  0  0  0  0  0  0  0
    2.2800   -8.2241    2.5660 C   0  0  2  0  0  0  0  0  0  0  0  0
    3.6266   -8.2221    1.7932 C   0  0  1  0  0  0  0  0  0  0  0  0
    3.8777   -6.8541    1.2883 C   0  0  0  0  0  0  0  0  0  0  0  0
    4.0675   -5.7143    0.9008 C   0  0  0  0  0  0  0  0  0  0  0  0
    4.3045   -4.3640    0.4203 C   0  0  0  0  0  0  0  0  0  0  0  0
    3.3767   -3.7654   -0.4528 C   0  0  0  0  0  0  0  0  0  0  0  0
    3.6404   -2.4658   -0.9291 C   0  0  0  0  0  0  0  0  0  0  0  0
    4.8207   -1.8219   -0.5067 C   0  0  0  0  0  0  0  0  0  0  0  0
    5.6781   -2.5069    0.3744 C   0  0  0  0  0  0  0  0  0  0  0  0
    5.4310   -3.7489    0.8319 N   0  0  0  0  0  0  0  0  0  0  0  0
    4.7834   -8.7838    2.8138 C   0  0  2  0  0  0  0  0  0  0  0  0
    6.0825   -8.9801    1.9878 C   0  0  0  0  0  0  0  0  0  0  0  0
    5.9064   -9.8557    0.8935 O   0  0  0  0  0  0  0  0  0  0  0  0
    5.1507   -7.7193    4.1088 C   0  0  0  0  0  0  0  0  0  0  0  0
    4.1677   -7.5145    5.3790 N   0  0  1  0  0  0  0  0  0  0  0  0
    4.1277   -6.0986    5.8451 C   0  0  0  0  0  0  0  0  0  0  0  0
    2.6700   -8.1751    5.3473 C   0  0  2  0  0  0  0  0  0  0  0  0
   -2.9896   -9.5495    2.3080 H   0  0  0  0  0  0  0  0  0  0  0  0
   -1.6463   -9.7569    3.4403 H   0  0  0  0  0  0  0  0  0  0  0  0
   -1.4122  -10.0883    1.7266 H   0  0  0  0  0  0  0  0  0  0  0  0
    0.7333   -9.5408    1.7184 H   0  0  0  0  0  0  0  0  0  0  0  0
    0.0125   -8.8659    4.5409 H   0  0  0  0  0  0  0  0  0  0  0  0
    0.1221  -10.4011    3.8070 H   0  0  0  0  0  0  0  0  0  0  0  0
    2.8287  -11.6371    5.4179 H   0  0  0  0  0  0  0  0  0  0  0  0
    1.4670  -11.8347    4.4503 H   0  0  0  0  0  0  0  0  0  0  0  0
    3.6889  -12.2905    3.1909 H   0  0  0  0  0  0  0  0  0  0  0  0
    2.6581  -11.2240    2.3358 H   0  0  0  0  0  0  0  0  0  0  0  0
    6.1898  -10.2382    4.6605 H   0  0  0  0  0  0  0  0  0  0  0  0
    6.0350  -11.4488    3.3950 H   0  0  0  0  0  0  0  0  0  0  0  0
    5.1665  -11.6504    4.8863 H   0  0  0  0  0  0  0  0  0  0  0  0
    3.9068   -9.7723    5.3177 H   0  0  0  0  0  0  0  0  0  0  0  0
    1.8588   -7.2832    4.1823 H   0  0  0  0  0  0  0  0  0  0  0  0
    2.4137   -9.2416    2.3128 H   0  0  0  0  0  0  0  0  0  0  0  0
    3.5806   -8.8238    0.8775 H   0  0  0  0  0  0  0  0  0  0  0  0
    2.4941   -4.2939   -0.7678 H   0  0  0  0  0  0  0  0  0  0  0  0
    2.9531   -1.9813   -1.6013 H   0  0  0  0  0  0  0  0  0  0  0  0
    5.0478   -0.8271   -0.8449 H   0  0  0  0  0  0  0  0  0  0  0  0
    6.5894   -2.0435    0.7243 H   0  0  0  0  0  0  0  0  0  0  0  0
    6.4199   -8.0250    1.5904 H   0  0  0  0  0  0  0  0  0  0  0  0
    6.9034   -9.3387    2.6060 H   0  0  0  0  0  0  0  0  0  0  0  0
    5.3168  -10.5637    1.1213 H   0  0  0  0  0  0  0  0  0  0  0  0
    6.1132   -8.0126    4.5568 H   0  0  0  0  0  0  0  0  0  0  0  0
    5.3379   -6.7128    3.6825 H   0  0  0  0  0  0  0  0  0  0  0  0
    3.6286   -5.4506    5.1002 H   0  0  0  0  0  0  0  0  0  0  0  0
    5.1502   -5.7221    6.0060 H   0  0  0  0  0  0  0  0  0  0  0  0
    3.5770   -6.0103    6.7928 H   0  0  0  0  0  0  0  0  0  0  0  0
    1.9613   -7.6177    5.9795 H   0  0  0  0  0  0  0  0  0  0  0  0
    4.6126   -8.0202    6.1472 H   0  0  0  0  0  0  0  0  0  0  0  0
  1  2  1  0
  1 31  1  0
  1 32  1  0
  1 33  1  0
  2  3  1  0
  3  4  2  0
  3  5  1  0
  5 14  1  0
  5  6  1  0
  5 34  1  6
  6  7  1  0
  6 35  1  0
  6 36  1  0
  7 12  1  0
  7 30  1  0
  7  8  1  1
  8  9  1  0
  8 37  1  0
  8 38  1  0
  9 10  1  0
  9 39  1  0
  9 40  1  0
 10 24  1  0
 10 11  1  1
 10 12  1  0
 11 41  1  0
 11 42  1  0
 11 43  1  0
 12 13  1  0
 12 44  1  1
 13 30  1  0
 13 14  1  0
 13 45  1  1
 14 15  1  0
 14 46  1  6
 15 16  1  0
 15 24  1  0
 15 47  1  6
 16 17  3  0
 17 18  1  0
 18 23  1  0
 18 19  2  0
 19 20  1  0
 19 48  1  0
 20 21  2  0
 20 49  1  0
 21 22  1  0
 21 50  1  0
 22 23  2  0
 22 51  1  0
 24 25  1  6
 24 27  1  0
 25 26  1  0
 25 52  1  0
 25 53  1  0
 26 54  1  0
 27 28  1  0
 27 55  1  0
 27 56  1  0
 28 29  1  0
 28 30  1  0
 28 61  1  1
 29 57  1  0
 29 58  1  0
 29 59  1  0
 30 60  1  1
M  CHG  1  28   1
M  END
>  <i_m_ct_stereo_status>  (67) 
1

>  <s_m_source_file>  (67) 
/var/tmp/pbs.5076255.sched01/tmp9stzsw2m/06nqgg2pe.sdf

>  <i_m_source_file_index>  (67) 
36

>  <i_lp_mmshare_version>  (67) 
48012

>  <i_f3d_flags>  (67) 
0

>  <s_epik_input>  (67) 
W0NIM11PQyg9TylbQ0BIXShbQ0gyXTEpW0NIXShbQ0BASF0yW0NAQEhdM04oW0NIMl00KVtDSDNdKVtDQEhdKFtDQF00KFtDSDJdW09IXSlbQ0BAXShbQ0gzXSkoW0NAQEhdMltDQF0xMzUpW0NIMl1bQ0gyXTUpQyNDYzZbY0hdW2NIXVtjSF1bY0hdbjY=

>  <s_epik_cmdline>  (67) 
J2VwaWtfcHl0aG9uJywgJy1waHQnLCAnMi4wJywgJy1waCcsICc3LjAnLCAnLXRuJywgJzgnLCAnLW1hJywgJzIwMCcsICctaW1hZScsICc8aW5maWxlLm1hZT4nLCAnLW9tYWUnLCAnPG91dGZpbGUubWFlPic=

>  <r_lp_tautomer_probability>  (67) 
1

>  <r_epik_Ionization_Penalty>  (67) 
0.00385298

>  <r_epik_Ionization_Penalty_Charging>  (67) 
0.00315053

>  <r_epik_Ionization_Penalty_Neutral>  (67) 
0.000702451

>  <r_epik_State_Penalty>  (67) 
-0

>  <r_epik_Charging_Adjusted_Penalty>  (67) 
0.00315053

>  <i_epik_Tot_Q>  (67) 
1

>  <i_epik_Tot_abs_Q>  (67) 
1

>  <s_epik_Chemistry_Notes>  (67) 
This compound has an ester and may undergo hydrolysis at high or low pH.

>  <s_lp_Force_Field>  (67) 
OPLS3e

>  <r_lp_Energy>  (67) 
484.385

>  <b_lp_Chiralities_Consistent>  (67) 
1

>  <s_lp_Variant>  (67) 
26:0-1

>  <s_i_glide_gridfile>  (67) 
pfpi4k_grid

>  <i_i_glide_lignum>  (67) 
36

>  <i_i_glide_rotatable_bonds>  (67) 
6

>  <r_i_docking_score>  (67) 
-3.67549

>  <r_i_glide_ligand_efficiency>  (67) 
-0.122516

>  <r_i_glide_ligand_efficiency_sa>  (67) 
-0.380686

>  <r_i_glide_ligand_efficiency_ln>  (67) 
-0.835111

>  <r_i_glide_gscore>  (67) 
-3.67549

>  <r_i_glide_lipo>  (67) 
-0.538268

>  <r_i_glide_hbond>  (67) 
-0.273206

>  <r_i_glide_metal>  (67) 
-0

>  <r_i_glide_rewards>  (67) 
-0.63051

>  <r_i_glide_evdw>  (67) 
-26.7794

>  <r_i_glide_ecoul>  (67) 
-8.67147

>  <r_i_glide_erotb>  (67) 
0.473821

>  <r_i_glide_esite>  (67) 
-0.0676327

>  <r_i_glide_emodel>  (67) 
-41.5859

>  <r_i_glide_energy>  (67) 
-35.4509

>  <r_i_glide_einternal>  (67) 
6.60081

>  <r_i_glide_intrahb_reward>  (67) 
-0

>  <i_i_glide_confnum>  (67) 
2

>  <i_i_glide_posenum>  (67) 
11

>  <r_i_glide_eff_state_penalty>  (67) 
0

>  <ligand_id>  (67) 
26

>  <original_smiles>  (67) 
COC(=O)C1CC23CCC4(C)C2C2C1C(C#Cc1ccccn1)C4(CO)CN(C)C23

>  <smiles>  (67) 
[H]OC([H])([H])C12C([H])(C#Cc3nc([H])c([H])c([H])c3[H])C3([H])C([H])(C(=O)OC([H])([H])[H])C([H])([H])C45C([H])([H])C([H])([H])C1(C([H])([H])[H])C4([H])C3([H])C5([H])[N+]([H])(C([H])([H])[H])C2([H])[H]

$$$$
26:0:1
     RDKit          3D

 61 66  0  0  1  0  0  0  0  0999 V2000
   -2.1630   -9.0372    2.4211 C   0  0  0  0  0  0  0  0  0  0  0  0
   -0.9663   -9.7814    2.5532 O   0  0  0  0  0  0  0  0  0  0  0  0
    0.1635   -9.1671    2.9346 C   0  0  0  0  0  0  0  0  0  0  0  0
    0.2811   -7.9574    3.1495 O   0  0  0  0  0  0  0  0  0  0  0  0
    1.3391  -10.1486    3.0896 C   0  0  2  0  0  0  0  0  0  0  0  0
    1.4311  -10.7879    4.5392 C   0  0  0  0  0  0  0  0  0  0  0  0
    2.9123  -10.8433    5.1803 C   0  0  2  0  0  0  0  0  0  0  0  0
    3.3684  -12.3153    4.9037 C   0  0  0  0  0  0  0  0  0  0  0  0
    4.0984  -12.3715    3.4875 C   0  0  0  0  0  0  0  0  0  0  0  0
    5.0312  -11.1228    3.5582 C   0  0  2  0  0  0  0  0  0  0  0  0
    6.4057  -11.7039    4.0381 C   0  0  0  0  0  0  0  0  0  0  0  0
    4.1537  -10.4872    4.5644 C   0  0  1  0  0  0  0  0  0  0  0  0
    3.3162   -9.0658    4.1950 C   0  0  2  0  0  0  0  0  0  0  0  0
    2.7017   -9.4580    2.9171 C   0  0  2  0  0  0  0  0  0  0  0  0
    3.9031   -9.3206    1.9447 C   0  0  1  0  0  0  0  0  0  0  0  0
    3.9262   -7.9497    1.4011 C   0  0  0  0  0  0  0  0  0  0  0  0
    3.9630   -6.8014    0.9876 C   0  0  0  0  0  0  0  0  0  0  0  0
    4.0006   -5.4373    0.4987 C   0  0  0  0  0  0  0  0  0  0  0  0
    5.2222   -4.8880    0.0679 C   0  0  0  0  0  0  0  0  0  0  0  0
    5.2378   -3.5714   -0.4257 C   0  0  0  0  0  0  0  0  0  0  0  0
    4.0274   -2.8554   -0.4585 C   0  0  0  0  0  0  0  0  0  0  0  0
    2.8607   -3.4889   -0.0002 C   0  0  0  0  0  0  0  0  0  0  0  0
    2.8373   -4.7508    0.4789 N   0  0  0  0  0  0  0  0  0  0  0  0
    5.2541   -9.7331    2.7708 C   0  0  2  0  0  0  0  0  0  0  0  0
    6.4274   -9.8097    1.7385 C   0  0  0  0  0  0  0  0  0  0  0  0
    6.4951  -11.0358    1.0262 O   0  0  0  0  0  0  0  0  0  0  0  0
    5.7059   -8.5847    3.9722 C   0  0  0  0  0  0  0  0  0  0  0  0
    4.9149   -8.4511    5.3790 N   0  0  1  0  0  0  0  0  0  0  0  0
    4.8087   -7.0360    5.8170 C   0  0  0  0  0  0  0  0  0  0  0  0
    3.5160   -9.2635    5.6097 C   0  0  2  0  0  0  0  0  0  0  0  0
   -2.9673   -9.6922    2.0897 H   0  0  0  0  0  0  0  0  0  0  0  0
   -2.0569   -8.2459    1.6815 H   0  0  0  0  0  0  0  0  0  0  0  0
   -2.4539   -8.5943    3.3743 H   0  0  0  0  0  0  0  0  0  0  0  0
    1.1510  -10.9449    2.3622 H   0  0  0  0  0  0  0  0  0  0  0  0
    0.7990  -10.2079    5.2147 H   0  0  0  0  0  0  0  0  0  0  0  0
    0.9465  -11.7615    4.5373 H   0  0  0  0  0  0  0  0  0  0  0  0
    4.0429  -12.6659    5.6895 H   0  0  0  0  0  0  0  0  0  0  0  0
    2.5559  -13.0335    4.9428 H   0  0  0  0  0  0  0  0  0  0  0  0
    4.6468  -13.3088    3.3837 H   0  0  0  0  0  0  0  0  0  0  0  0
    3.3826  -12.3976    2.6678 H   0  0  0  0  0  0  0  0  0  0  0  0
    7.1093  -10.9494    4.3896 H   0  0  0  0  0  0  0  0  0  0  0  0
    6.8944  -12.2335    3.2182 H   0  0  0  0  0  0  0  0  0  0  0  0
    6.2942  -12.4539    4.8216 H   0  0  0  0  0  0  0  0  0  0  0  0
    4.8889  -10.7205    5.4062 H   0  0  0  0  0  0  0  0  0  0  0  0
    2.4533   -8.5072    4.5682 H   0  0  0  0  0  0  0  0  0  0  0  0
    2.8917  -10.4722    2.6642 H   0  0  0  0  0  0  0  0  0  0  0  0
    3.7990   -9.9415    1.0500 H   0  0  0  0  0  0  0  0  0  0  0  0
    6.1324   -5.4720    0.1008 H   0  0  0  0  0  0  0  0  0  0  0  0
    6.1575   -3.1233   -0.7711 H   0  0  0  0  0  0  0  0  0  0  0  0
    3.9861   -1.8404   -0.8266 H   0  0  0  0  0  0  0  0  0  0  0  0
    1.9141   -2.9728   -0.0093 H   0  0  0  0  0  0  0  0  0  0  0  0
    6.3551   -9.0143    0.9947 H   0  0  0  0  0  0  0  0  0  0  0  0
    7.3861   -9.6499    2.2293 H   0  0  0  0  0  0  0  0  0  0  0  0
    5.6071  -11.3604    0.8575 H   0  0  0  0  0  0  0  0  0  0  0  0
    6.7440   -8.7571    4.2602 H   0  0  0  0  0  0  0  0  0  0  0  0
    5.7203   -7.5961    3.5089 H   0  0  0  0  0  0  0  0  0  0  0  0
    4.1387   -6.4644    5.1647 H   0  0  0  0  0  0  0  0  0  0  0  0
    5.7890   -6.5462    5.8077 H   0  0  0  0  0  0  0  0  0  0  0  0
    4.4174   -6.9651    6.8390 H   0  0  0  0  0  0  0  0  0  0  0  0
    2.8623   -8.7674    6.3421 H   0  0  0  0  0  0  0  0  0  0  0  0
    5.5319   -8.8735    6.0604 H   0  0  0  0  0  0  0  0  0  0  0  0
  1  2  1  0
  1 31  1  0
  1 32  1  0
  1 33  1  0
  2  3  1  0
  3  4  2  0
  3  5  1  0
  5 14  1  0
  5  6  1  0
  5 34  1  6
  6  7  1  0
  6 35  1  0
  6 36  1  0
  7 12  1  0
  7 30  1  0
  7  8  1  1
  8  9  1  0
  8 37  1  0
  8 38  1  0
  9 10  1  0
  9 39  1  0
  9 40  1  0
 10 24  1  0
 10 11  1  1
 10 12  1  0
 11 41  1  0
 11 42  1  0
 11 43  1  0
 12 13  1  0
 12 44  1  1
 13 30  1  0
 13 14  1  0
 13 45  1  6
 14 15  1  0
 14 46  1  6
 15 16  1  0
 15 24  1  0
 15 47  1  6
 16 17  3  0
 17 18  1  0
 18 23  1  0
 18 19  2  0
 19 20  1  0
 19 48  1  0
 20 21  2  0
 20 49  1  0
 21 22  1  0
 21 50  1  0
 22 23  2  0
 22 51  1  0
 24 25  1  6
 24 27  1  0
 25 26  1  0
 25 52  1  0
 25 53  1  0
 26 54  1  0
 27 28  1  0
 27 55  1  0
 27 56  1  0
 28 29  1  0
 28 30  1  0
 28 61  1  1
 29 57  1  0
 29 58  1  0
 29 59  1  0
 30 60  1  1
M  CHG  1  28   1
M  END
>  <i_m_ct_stereo_status>  (68) 
1

>  <s_m_source_file>  (68) 
/var/tmp/pbs.5076255.sched01/tmp9stzsw2m/06nqgg2pe.sdf

>  <i_m_source_file_index>  (68) 
36

>  <i_lp_mmshare_version>  (68) 
48012

>  <i_f3d_flags>  (68) 
0

>  <s_epik_input>  (68) 
W0NIM11PQyg9TylbQ0BIXShbQ0gyXTEpW0NIXShbQ0BASF0yW0NAQEhdM04oW0NIMl00KVtDSDNdKVtDQEhdKFtDQF00KFtDSDJdW09IXSlbQ0BAXShbQ0gzXSkoW0NAQEhdMltDQF0xMzUpW0NIMl1bQ0gyXTUpQyNDYzZbY0hdW2NIXVtjSF1bY0hdbjY=

>  <s_epik_cmdline>  (68) 
J2VwaWtfcHl0aG9uJywgJy1waHQnLCAnMi4wJywgJy1waCcsICc3LjAnLCAnLXRuJywgJzgnLCAnLW1hJywgJzIwMCcsICctaW1hZScsICc8aW5maWxlLm1hZT4nLCAnLW9tYWUnLCAnPG91dGZpbGUubWFlPic=

>  <r_lp_tautomer_probability>  (68) 
1

>  <r_epik_Ionization_Penalty>  (68) 
0.00385298

>  <r_epik_Ionization_Penalty_Charging>  (68) 
0.00315053

>  <r_epik_Ionization_Penalty_Neutral>  (68) 
0.000702451

>  <r_epik_State_Penalty>  (68) 
-0

>  <r_epik_Charging_Adjusted_Penalty>  (68) 
0.00315053

>  <i_epik_Tot_Q>  (68) 
1

>  <i_epik_Tot_abs_Q>  (68) 
1

>  <s_epik_Chemistry_Notes>  (68) 
This compound has an ester and may undergo hydrolysis at high or low pH.

>  <s_lp_Force_Field>  (68) 
OPLS3e

>  <r_lp_Energy>  (68) 
484.385

>  <b_lp_Chiralities_Consistent>  (68) 
1

>  <s_lp_Variant>  (68) 
26:0-1

>  <s_i_glide_gridfile>  (68) 
pfpi4k_grid

>  <i_i_glide_lignum>  (68) 
36

>  <i_i_glide_rotatable_bonds>  (68) 
6

>  <r_i_docking_score>  (68) 
-3.64056

>  <r_i_glide_ligand_efficiency>  (68) 
-0.121352

>  <r_i_glide_ligand_efficiency_sa>  (68) 
-0.377069

>  <r_i_glide_ligand_efficiency_ln>  (68) 
-0.827175

>  <r_i_glide_gscore>  (68) 
-3.64056

>  <r_i_glide_lipo>  (68) 
-0.560722

>  <r_i_glide_hbond>  (68) 
-0.351964

>  <r_i_glide_metal>  (68) 
-0

>  <r_i_glide_rewards>  (68) 
-0.63051

>  <r_i_glide_evdw>  (68) 
-26.7039

>  <r_i_glide_ecoul>  (68) 
-8.02009

>  <r_i_glide_erotb>  (68) 
0.473821

>  <r_i_glide_esite>  (68) 
-0.0329753

>  <r_i_glide_emodel>  (68) 
-42.5448

>  <r_i_glide_energy>  (68) 
-34.724

>  <r_i_glide_einternal>  (68) 
3.39862

>  <r_i_glide_intrahb_reward>  (68) 
-0

>  <i_i_glide_confnum>  (68) 
1

>  <i_i_glide_posenum>  (68) 
30

>  <r_i_glide_eff_state_penalty>  (68) 
0

>  <ligand_id>  (68) 
26

>  <original_smiles>  (68) 
COC(=O)C1CC23CCC4(C)C2C2C1C(C#Cc1ccccn1)C4(CO)CN(C)C23

>  <smiles>  (68) 
[H]OC([H])([H])C12C([H])(C#Cc3nc([H])c([H])c([H])c3[H])C3([H])C([H])(C(=O)OC([H])([H])[H])C([H])([H])C45C([H])([H])C([H])([H])C1(C([H])([H])[H])C4([H])C3([H])C5([H])[N+]([H])(C([H])([H])[H])C2([H])[H]

$$$$
26:0:2
     RDKit          3D

 61 66  0  0  1  0  0  0  0  0999 V2000
   -1.6035   -9.3034    2.7140 C   0  0  0  0  0  0  0  0  0  0  0  0
   -1.1202   -8.0355    2.2988 O   0  0  0  0  0  0  0  0  0  0  0  0
    0.2125   -7.7523    2.1394 C   0  0  0  0  0  0  0  0  0  0  0  0
    0.6330   -6.6675    1.7189 O   0  0  0  0  0  0  0  0  0  0  0  0
    1.1945   -8.8941    2.4549 C   0  0  2  0  0  0  0  0  0  0  0  0
    0.9699   -9.5549    3.8747 C   0  0  0  0  0  0  0  0  0  0  0  0
    2.2611   -9.8377    4.7630 C   0  0  2  0  0  0  0  0  0  0  0  0
    2.5307  -11.3684    4.5324 C   0  0  0  0  0  0  0  0  0  0  0  0
    3.4441  -11.5317    3.2383 C   0  0  0  0  0  0  0  0  0  0  0  0
    4.5522  -10.4675    3.4793 C   0  0  2  0  0  0  0  0  0  0  0  0
    5.7028  -11.2614    4.1697 C   0  0  0  0  0  0  0  0  0  0  0  0
    3.6294   -9.6824    4.3524 C   0  0  1  0  0  0  0  0  0  0  0  0
    3.1020   -8.1284    3.8936 C   0  0  2  0  0  0  0  0  0  0  0  0
    2.6638   -8.4220    2.5191 C   0  0  2  0  0  0  0  0  0  0  0  0
    4.0188   -8.4989    1.7625 C   0  0  1  0  0  0  0  0  0  0  0  0
    4.3563   -7.1402    1.2625 C   0  0  0  0  0  0  0  0  0  0  0  0
    4.6326   -6.0153    0.9165 C   0  0  0  0  0  0  0  0  0  0  0  0
    4.9924   -4.6566    0.5224 C   0  0  0  0  0  0  0  0  0  0  0  0
    4.9417   -4.2898   -0.8310 C   0  0  0  0  0  0  0  0  0  0  0  0
    5.3062   -2.9810   -1.1934 C   0  0  0  0  0  0  0  0  0  0  0  0
    5.7051   -2.0926   -0.1776 C   0  0  0  0  0  0  0  0  0  0  0  0
    5.7215   -2.5547    1.1490 C   0  0  0  0  0  0  0  0  0  0  0  0
    5.3743   -3.8106    1.5023 N   0  0  0  0  0  0  0  0  0  0  0  0
    5.1326   -9.1175    2.7971 C   0  0  2  0  0  0  0  0  0  0  0  0
    6.4292   -9.3917    1.9832 C   0  0  0  0  0  0  0  0  0  0  0  0
    6.2706  -10.2685    0.9072 O   0  0  0  0  0  0  0  0  0  0  0  0
    5.5414   -8.0528    4.0955 C   0  0  0  0  0  0  0  0  0  0  0  0
    4.5529   -7.7882    5.3535 N   0  0  1  0  0  0  0  0  0  0  0  0
    4.5850   -6.3549    5.8052 C   0  0  0  0  0  0  0  0  0  0  0  0
    3.0202   -8.3607    5.3076 C   0  0  2  0  0  0  0  0  0  0  0  0
   -2.6925   -9.3547    2.6791 H   0  0  0  0  0  0  0  0  0  0  0  0
   -1.2648   -9.4884    3.7316 H   0  0  0  0  0  0  0  0  0  0  0  0
   -1.1922  -10.0760    2.0793 H   0  0  0  0  0  0  0  0  0  0  0  0
    1.0321   -9.6547    1.6836 H   0  0  0  0  0  0  0  0  0  0  0  0
    0.3726   -8.8872    4.4850 H   0  0  0  0  0  0  0  0  0  0  0  0
    0.3456  -10.4359    3.7715 H   0  0  0  0  0  0  0  0  0  0  0  0
    2.9879  -11.8363    5.4105 H   0  0  0  0  0  0  0  0  0  0  0  0
    1.6226  -11.9546    4.4246 H   0  0  0  0  0  0  0  0  0  0  0  0
    3.8274  -12.5524    3.1940 H   0  0  0  0  0  0  0  0  0  0  0  0
    2.8706  -11.4386    2.3221 H   0  0  0  0  0  0  0  0  0  0  0  0
    6.4300  -10.6310    4.6723 H   0  0  0  0  0  0  0  0  0  0  0  0
    6.2287  -11.8433    3.4204 H   0  0  0  0  0  0  0  0  0  0  0  0
    5.3334  -11.9814    4.9014 H   0  0  0  0  0  0  0  0  0  0  0  0
    4.1826  -10.0244    5.2954 H   0  0  0  0  0  0  0  0  0  0  0  0
    2.2719   -7.4399    4.1180 H   0  0  0  0  0  0  0  0  0  0  0  0
    2.7402   -9.4492    2.2692 H   0  0  0  0  0  0  0  0  0  0  0  0
    3.9559   -9.1007    0.8463 H   0  0  0  0  0  0  0  0  0  0  0  0
    4.6278   -4.9990   -1.5817 H   0  0  0  0  0  0  0  0  0  0  0  0
    5.2733   -2.6709   -2.2246 H   0  0  0  0  0  0  0  0  0  0  0  0
    5.9792   -1.0767   -0.4081 H   0  0  0  0  0  0  0  0  0  0  0  0
    6.0200   -1.8994    1.9550 H   0  0  0  0  0  0  0  0  0  0  0  0
    6.8292   -8.4549    1.5958 H   0  0  0  0  0  0  0  0  0  0  0  0
    7.2139   -9.7952    2.6141 H   0  0  0  0  0  0  0  0  0  0  0  0
    5.5370  -10.8712    1.0791 H   0  0  0  0  0  0  0  0  0  0  0  0
    6.4769   -8.3904    4.5642 H   0  0  0  0  0  0  0  0  0  0  0  0
    5.7845   -7.0652    3.6660 H   0  0  0  0  0  0  0  0  0  0  0  0
    4.1331   -5.6937    5.0482 H   0  0  0  0  0  0  0  0  0  0  0  0
    5.6259   -6.0426    5.9738 H   0  0  0  0  0  0  0  0  0  0  0  0
    4.0313   -6.2318    6.7472 H   0  0  0  0  0  0  0  0  0  0  0  0
    2.3444   -7.7596    5.9257 H   0  0  0  0  0  0  0  0  0  0  0  0
    4.9574   -8.2970    6.1292 H   0  0  0  0  0  0  0  0  0  0  0  0
  1  2  1  0
  1 31  1  0
  1 32  1  0
  1 33  1  0
  2  3  1  0
  3  4  2  0
  3  5  1  0
  5 14  1  0
  5  6  1  0
  5 34  1  6
  6  7  1  0
  6 35  1  0
  6 36  1  0
  7 12  1  0
  7 30  1  0
  7  8  1  1
  8  9  1  0
  8 37  1  0
  8 38  1  0
  9 10  1  0
  9 39  1  0
  9 40  1  0
 10 24  1  0
 10 11  1  1
 10 12  1  0
 11 41  1  0
 11 42  1  0
 11 43  1  0
 12 13  1  0
 12 44  1  1
 13 30  1  0
 13 14  1  0
 13 45  1  1
 14 15  1  0
 14 46  1  6
 15 16  1  0
 15 24  1  0
 15 47  1  6
 16 17  3  0
 17 18  1  0
 18 23  1  0
 18 19  2  0
 19 20  1  0
 19 48  1  0
 20 21  2  0
 20 49  1  0
 21 22  1  0
 21 50  1  0
 22 23  2  0
 22 51  1  0
 24 25  1  6
 24 27  1  0
 25 26  1  0
 25 52  1  0
 25 53  1  0
 26 54  1  0
 27 28  1  0
 27 55  1  0
 27 56  1  0
 28 29  1  0
 28 30  1  0
 28 61  1  1
 29 57  1  0
 29 58  1  0
 29 59  1  0
 30 60  1  1
M  CHG  1  28   1
M  END
>  <i_m_ct_stereo_status>  (69) 
1

>  <s_m_source_file>  (69) 
/var/tmp/pbs.5076255.sched01/tmp9stzsw2m/06nqgg2pe.sdf

>  <i_m_source_file_index>  (69) 
36

>  <i_lp_mmshare_version>  (69) 
48012

>  <i_f3d_flags>  (69) 
0

>  <s_epik_input>  (69) 
W0NIM11PQyg9TylbQ0BIXShbQ0gyXTEpW0NIXShbQ0BASF0yW0NAQEhdM04oW0NIMl00KVtDSDNdKVtDQEhdKFtDQF00KFtDSDJdW09IXSlbQ0BAXShbQ0gzXSkoW0NAQEhdMltDQF0xMzUpW0NIMl1bQ0gyXTUpQyNDYzZbY0hdW2NIXVtjSF1bY0hdbjY=

>  <s_epik_cmdline>  (69) 
J2VwaWtfcHl0aG9uJywgJy1waHQnLCAnMi4wJywgJy1waCcsICc3LjAnLCAnLXRuJywgJzgnLCAnLW1hJywgJzIwMCcsICctaW1hZScsICc8aW5maWxlLm1hZT4nLCAnLW9tYWUnLCAnPG91dGZpbGUubWFlPic=

>  <r_lp_tautomer_probability>  (69) 
1

>  <r_epik_Ionization_Penalty>  (69) 
0.00385298

>  <r_epik_Ionization_Penalty_Charging>  (69) 
0.00315053

>  <r_epik_Ionization_Penalty_Neutral>  (69) 
0.000702451

>  <r_epik_State_Penalty>  (69) 
-0

>  <r_epik_Charging_Adjusted_Penalty>  (69) 
0.00315053

>  <i_epik_Tot_Q>  (69) 
1

>  <i_epik_Tot_abs_Q>  (69) 
1

>  <s_epik_Chemistry_Notes>  (69) 
This compound has an ester and may undergo hydrolysis at high or low pH.

>  <s_lp_Force_Field>  (69) 
OPLS3e

>  <r_lp_Energy>  (69) 
484.385

>  <b_lp_Chiralities_Consistent>  (69) 
1

>  <s_lp_Variant>  (69) 
26:0-1

>  <s_i_glide_gridfile>  (69) 
pfpi4k_grid

>  <i_i_glide_lignum>  (69) 
36

>  <i_i_glide_rotatable_bonds>  (69) 
6

>  <r_i_docking_score>  (69) 
-3.58262

>  <r_i_glide_ligand_efficiency>  (69) 
-0.119421

>  <r_i_glide_ligand_efficiency_sa>  (69) 
-0.371067

>  <r_i_glide_ligand_efficiency_ln>  (69) 
-0.814009

>  <r_i_glide_gscore>  (69) 
-3.58262

>  <r_i_glide_lipo>  (69) 
-0.477374

>  <r_i_glide_hbond>  (69) 
-0.175933

>  <r_i_glide_metal>  (69) 
-0

>  <r_i_glide_rewards>  (69) 
-0.63051

>  <r_i_glide_evdw>  (69) 
-27.6642

>  <r_i_glide_ecoul>  (69) 
-8.86073

>  <r_i_glide_erotb>  (69) 
0.473821

>  <r_i_glide_esite>  (69) 
-0.0602994

>  <r_i_glide_emodel>  (69) 
-41.6336

>  <r_i_glide_energy>  (69) 
-36.5249

>  <r_i_glide_einternal>  (69) 
6.89967

>  <r_i_glide_intrahb_reward>  (69) 
-0

>  <i_i_glide_confnum>  (69) 
2

>  <i_i_glide_posenum>  (69) 
33

>  <r_i_glide_eff_state_penalty>  (69) 
0

>  <ligand_id>  (69) 
26

>  <original_smiles>  (69) 
COC(=O)C1CC23CCC4(C)C2C2C1C(C#Cc1ccccn1)C4(CO)CN(C)C23

>  <smiles>  (69) 
[H]OC([H])([H])C12C([H])(C#Cc3nc([H])c([H])c([H])c3[H])C3([H])C([H])(C(=O)OC([H])([H])[H])C([H])([H])C45C([H])([H])C([H])([H])C1(C([H])([H])[H])C4([H])C3([H])C5([H])[N+]([H])(C([H])([H])[H])C2([H])[H]

$$$$
27:0:0
     RDKit          3D

 32 35  0  0  1  0  0  0  0  0999 V2000
    2.4626   -6.2940    1.9300 C   0  0  0  0  0  0  0  0  0  0  0  0
    1.5902   -6.1830    0.8824 N   0  0  0  0  0  0  0  0  0  0  0  0
    2.2131   -5.2427    0.1816 C   0  0  0  0  0  0  0  0  0  0  0  0
    3.3007   -4.7462    0.7751 N   0  0  0  0  0  0  0  0  0  0  0  0
    4.2248   -3.6985    0.3386 C   0  0  2  0  0  0  0  0  0  0  0  0
    5.2308   -4.2598   -0.6982 C   0  0  0  0  0  0  0  0  0  0  0  0
    6.1824   -3.1413   -1.1764 C   0  0  1  0  0  0  0  0  0  0  0  0
    5.3508   -2.0210   -1.8362 C   0  0  0  0  0  0  0  0  0  0  0  0
    4.3750   -1.4368   -0.7989 C   0  0  2  0  0  0  0  0  0  0  0  0
    5.1584   -0.8632    0.4003 C   0  0  0  0  0  0  0  0  0  0  0  0
    5.9774   -1.9946    1.0547 C   0  0  2  0  0  0  0  0  0  0  0  0
    6.9698   -2.5898    0.0341 C   0  0  0  0  0  0  0  0  0  0  0  0
    5.0247   -3.1069    1.5367 C   0  0  0  0  0  0  0  0  0  0  0  0
    3.4234   -2.5424   -0.3171 C   0  0  0  0  0  0  0  0  0  0  0  0
    3.5068   -5.4663    1.9052 N   0  0  0  0  0  0  0  0  0  0  0  0
    2.3214   -6.9926    2.7396 H   0  0  0  0  0  0  0  0  0  0  0  0
    1.8556   -4.8873   -0.7740 H   0  0  0  0  0  0  0  0  0  0  0  0
    5.8051   -5.0791   -0.2657 H   0  0  0  0  0  0  0  0  0  0  0  0
    4.6990   -4.6776   -1.5535 H   0  0  0  0  0  0  0  0  0  0  0  0
    6.8851   -3.5375   -1.9099 H   0  0  0  0  0  0  0  0  0  0  0  0
    5.9931   -1.2348   -2.2224 H   0  0  0  0  0  0  0  0  0  0  0  0
    4.8009   -2.4202   -2.6886 H   0  0  0  0  0  0  0  0  0  0  0  0
    3.7860   -0.6522   -1.2700 H   0  0  0  0  0  0  0  0  0  0  0  0
    5.8168   -0.0578    0.0791 H   0  0  0  0  0  0  0  0  0  0  0  0
    4.4654   -0.4339    1.1244 H   0  0  0  0  0  0  0  0  0  0  0  0
    6.5282   -1.5957    1.9099 H   0  0  0  0  0  0  0  0  0  0  0  0
    7.5401   -3.3936    0.4996 H   0  0  0  0  0  0  0  0  0  0  0  0
    7.6936   -1.8411   -0.2816 H   0  0  0  0  0  0  0  0  0  0  0  0
    4.3420   -2.7063    2.2892 H   0  0  0  0  0  0  0  0  0  0  0  0
    5.6186   -3.8758    2.0342 H   0  0  0  0  0  0  0  0  0  0  0  0
    2.8505   -2.8901   -1.1772 H   0  0  0  0  0  0  0  0  0  0  0  0
    2.7000   -2.1291    0.3872 H   0  0  0  0  0  0  0  0  0  0  0  0
  1 15  2  0
  1  2  1  0
  1 16  1  0
  2  3  2  0
  3  4  1  0
  3 17  1  0
  5  4  1  1
  4 15  1  0
  5 13  1  0
  5 14  1  0
  5  6  1  0
  6  7  1  0
  6 18  1  0
  6 19  1  0
  7 12  1  0
  7  8  1  0
  7 20  1  6
  8  9  1  0
  8 21  1  0
  8 22  1  0
  9 10  1  0
  9 14  1  0
  9 23  1  6
 10 11  1  0
 10 24  1  0
 10 25  1  0
 11 12  1  0
 11 13  1  0
 11 26  1  1
 12 27  1  0
 12 28  1  0
 13 29  1  0
 13 30  1  0
 14 31  1  0
 14 32  1  0
M  END
>  <i_m_ct_stereo_status>  (70) 
1

>  <s_m_source_file>  (70) 
/var/tmp/pbs.5076255.sched01/tmp9stzsw2m/06nqgg2pe.sdf

>  <i_m_source_file_index>  (70) 
37

>  <i_lp_mmshare_version>  (70) 
48012

>  <i_f3d_flags>  (70) 
0

>  <s_epik_input>  (70) 
bjFbY0hdbltjSF1uMUMyM1tDSDJdW0NASF00W0NIMl1bQ0BASF0oW0NIMl0zKVtDSDJdW0NASF0oW0NIMl00KVtDSDJdMg==

>  <s_epik_cmdline>  (70) 
J2VwaWtfcHl0aG9uJywgJy1waHQnLCAnMi4wJywgJy1waCcsICc3LjAnLCAnLXRuJywgJzgnLCAnLW1hJywgJzIwMCcsICctaW1hZScsICc8aW5maWxlLm1hZT4nLCAnLW9tYWUnLCAnPG91dGZpbGUubWFlPic=

>  <r_lp_tautomer_probability>  (70) 
1

>  <r_epik_Ionization_Penalty>  (70) 
0.000665803

>  <r_epik_Ionization_Penalty_Charging>  (70) 
0

>  <r_epik_Ionization_Penalty_Neutral>  (70) 
0.000665803

>  <r_epik_State_Penalty>  (70) 
0.000422278

>  <r_epik_Charging_Adjusted_Penalty>  (70) 
0.000422278

>  <i_epik_Tot_Q>  (70) 
0

>  <i_epik_Tot_abs_Q>  (70) 
0

>  <s_lp_Force_Field>  (70) 
OPLS3e

>  <r_lp_Energy>  (70) 
7.90782

>  <b_lp_Chiralities_Consistent>  (70) 
1

>  <s_lp_Variant>  (70) 
27:0-1

>  <s_i_glide_gridfile>  (70) 
pfpi4k_grid

>  <i_i_glide_lignum>  (70) 
37

>  <i_i_glide_rotatable_bonds>  (70) 
1

>  <r_i_docking_score>  (70) 
-3.70758

>  <r_i_glide_ligand_efficiency>  (70) 
-0.247172

>  <r_i_glide_ligand_efficiency_sa>  (70) 
-0.609578

>  <r_i_glide_ligand_efficiency_ln>  (70) 
-0.999872

>  <r_i_glide_gscore>  (70) 
-3.70758

>  <r_i_glide_lipo>  (70) 
-0.493592

>  <r_i_glide_hbond>  (70) 
-0.0657242

>  <r_i_glide_metal>  (70) 
-0

>  <r_i_glide_rewards>  (70) 
-2.02307

>  <r_i_glide_evdw>  (70) 
-19.4943

>  <r_i_glide_ecoul>  (70) 
-3.07444

>  <r_i_glide_erotb>  (70) 
0.397388

>  <r_i_glide_esite>  (70) 
-0.0867018

>  <r_i_glide_emodel>  (70) 
-27.5608

>  <r_i_glide_energy>  (70) 
-22.5687

>  <r_i_glide_einternal>  (70) 
0.234001

>  <r_i_glide_intrahb_reward>  (70) 
-0

>  <i_i_glide_confnum>  (70) 
5

>  <i_i_glide_posenum>  (70) 
34

>  <r_i_glide_eff_state_penalty>  (70) 
0

>  <ligand_id>  (70) 
27

>  <original_smiles>  (70) 
c1ncn(C23CC4CC(CC(C4)C2)C3)n1

>  <smiles>  (70) 
[H]c1nc([H])n(C23C([H])([H])C4([H])C([H])([H])C([H])(C([H])([H])C([H])(C4([H])[H])C2([H])[H])C3([H])[H])n1

$$$$
27:0:1
     RDKit          3D

 32 35  0  0  1  0  0  0  0  0999 V2000
    2.2818   -4.8421    2.4927 C   0  0  0  0  0  0  0  0  0  0  0  0
    1.7759   -5.8103    1.6689 N   0  0  0  0  0  0  0  0  0  0  0  0
    2.2625   -5.3854    0.5104 C   0  0  0  0  0  0  0  0  0  0  0  0
    2.9391   -4.2378    0.5874 N   0  0  0  0  0  0  0  0  0  0  0  0
    3.5952   -3.4581   -0.4591 C   0  0  2  0  0  0  0  0  0  0  0  0
    4.8717   -4.1897   -0.9456 C   0  0  0  0  0  0  0  0  0  0  0  0
    5.5352   -3.3784   -2.0767 C   0  0  1  0  0  0  0  0  0  0  0  0
    4.5532   -3.2384   -3.2634 C   0  0  0  0  0  0  0  0  0  0  0  0
    3.3034   -2.4856   -2.7988 C   0  0  2  0  0  0  0  0  0  0  0  0
    3.7047   -1.0950   -2.2800 C   0  0  0  0  0  0  0  0  0  0  0  0
    4.6683   -1.2426   -1.0851 C   0  0  2  0  0  0  0  0  0  0  0  0
    5.9284   -2.0017   -1.5266 C   0  0  0  0  0  0  0  0  0  0  0  0
    3.9899   -2.0347    0.0431 C   0  0  0  0  0  0  0  0  0  0  0  0
    2.6320   -3.2825   -1.6637 C   0  0  0  0  0  0  0  0  0  0  0  0
    2.9903   -3.8827    1.8958 N   0  0  0  0  0  0  0  0  0  0  0  0
    2.1152   -4.8323    3.5596 H   0  0  0  0  0  0  0  0  0  0  0  0
    2.1022   -5.8967   -0.4248 H   0  0  0  0  0  0  0  0  0  0  0  0
    5.5724   -4.3265   -0.1229 H   0  0  0  0  0  0  0  0  0  0  0  0
    4.6249   -5.1857   -1.3153 H   0  0  0  0  0  0  0  0  0  0  0  0
    6.4420   -3.8585   -2.4336 H   0  0  0  0  0  0  0  0  0  0  0  0
    5.0149   -2.6970   -4.0876 H   0  0  0  0  0  0  0  0  0  0  0  0
    4.2737   -4.2228   -3.6439 H   0  0  0  0  0  0  0  0  0  0  0  0
    2.6025   -2.3665   -3.6278 H   0  0  0  0  0  0  0  0  0  0  0  0
    4.1497   -0.4838   -3.0669 H   0  0  0  0  0  0  0  0  0  0  0  0
    2.7859   -0.6155   -1.9642 H   0  0  0  0  0  0  0  0  0  0  0  0
    4.9470   -0.2591   -0.7067 H   0  0  0  0  0  0  0  0  0  0  0  0
    6.6205   -2.1157   -0.6896 H   0  0  0  0  0  0  0  0  0  0  0  0
    6.4418   -1.4593   -2.3102 H   0  0  0  0  0  0  0  0  0  0  0  0
    3.1122   -1.4896    0.3952 H   0  0  0  0  0  0  0  0  0  0  0  0
    4.6812   -2.0980    0.8853 H   0  0  0  0  0  0  0  0  0  0  0  0
    2.2764   -4.2339   -2.0488 H   0  0  0  0  0  0  0  0  0  0  0  0
    1.7408   -2.7574   -1.3459 H   0  0  0  0  0  0  0  0  0  0  0  0
  1 15  2  0
  1  2  1  0
  1 16  1  0
  2  3  2  0
  3  4  1  0
  3 17  1  0
  5  4  1  1
  4 15  1  0
  5 13  1  0
  5 14  1  0
  5  6  1  0
  6  7  1  0
  6 18  1  0
  6 19  1  0
  7 12  1  0
  7  8  1  0
  7 20  1  6
  8  9  1  0
  8 21  1  0
  8 22  1  0
  9 10  1  0
  9 14  1  0
  9 23  1  6
 10 11  1  0
 10 24  1  0
 10 25  1  0
 11 12  1  0
 11 13  1  0
 11 26  1  1
 12 27  1  0
 12 28  1  0
 13 29  1  0
 13 30  1  0
 14 31  1  0
 14 32  1  0
M  END
>  <i_m_ct_stereo_status>  (71) 
1

>  <s_m_source_file>  (71) 
/var/tmp/pbs.5076255.sched01/tmp9stzsw2m/06nqgg2pe.sdf

>  <i_m_source_file_index>  (71) 
37

>  <i_lp_mmshare_version>  (71) 
48012

>  <i_f3d_flags>  (71) 
0

>  <s_epik_input>  (71) 
bjFbY0hdbltjSF1uMUMyM1tDSDJdW0NASF00W0NIMl1bQ0BASF0oW0NIMl0zKVtDSDJdW0NASF0oW0NIMl00KVtDSDJdMg==

>  <s_epik_cmdline>  (71) 
J2VwaWtfcHl0aG9uJywgJy1waHQnLCAnMi4wJywgJy1waCcsICc3LjAnLCAnLXRuJywgJzgnLCAnLW1hJywgJzIwMCcsICctaW1hZScsICc8aW5maWxlLm1hZT4nLCAnLW9tYWUnLCAnPG91dGZpbGUubWFlPic=

>  <r_lp_tautomer_probability>  (71) 
1

>  <r_epik_Ionization_Penalty>  (71) 
0.000665803

>  <r_epik_Ionization_Penalty_Charging>  (71) 
0

>  <r_epik_Ionization_Penalty_Neutral>  (71) 
0.000665803

>  <r_epik_State_Penalty>  (71) 
0.000422278

>  <r_epik_Charging_Adjusted_Penalty>  (71) 
0.000422278

>  <i_epik_Tot_Q>  (71) 
0

>  <i_epik_Tot_abs_Q>  (71) 
0

>  <s_lp_Force_Field>  (71) 
OPLS3e

>  <r_lp_Energy>  (71) 
7.90782

>  <b_lp_Chiralities_Consistent>  (71) 
1

>  <s_lp_Variant>  (71) 
27:0-1

>  <s_i_glide_gridfile>  (71) 
pfpi4k_grid

>  <i_i_glide_lignum>  (71) 
37

>  <i_i_glide_rotatable_bonds>  (71) 
1

>  <r_i_docking_score>  (71) 
-3.4132

>  <r_i_glide_ligand_efficiency>  (71) 
-0.227547

>  <r_i_glide_ligand_efficiency_sa>  (71) 
-0.561178

>  <r_i_glide_ligand_efficiency_ln>  (71) 
-0.920483

>  <r_i_glide_gscore>  (71) 
-3.4132

>  <r_i_glide_lipo>  (71) 
-0.506211

>  <r_i_glide_hbond>  (71) 
-0.0166825

>  <r_i_glide_metal>  (71) 
-0

>  <r_i_glide_rewards>  (71) 
-2.02307

>  <r_i_glide_evdw>  (71) 
-18.4473

>  <r_i_glide_ecoul>  (71) 
-1.71387

>  <r_i_glide_erotb>  (71) 
0.397388

>  <r_i_glide_esite>  (71) 
-0.0851793

>  <r_i_glide_emodel>  (71) 
-24.7561

>  <r_i_glide_energy>  (71) 
-20.1612

>  <r_i_glide_einternal>  (71) 
0.195288

>  <r_i_glide_intrahb_reward>  (71) 
-0

>  <i_i_glide_confnum>  (71) 
3

>  <i_i_glide_posenum>  (71) 
33

>  <r_i_glide_eff_state_penalty>  (71) 
0

>  <ligand_id>  (71) 
27

>  <original_smiles>  (71) 
c1ncn(C23CC4CC(CC(C4)C2)C3)n1

>  <smiles>  (71) 
[H]c1nc([H])n(C23C([H])([H])C4([H])C([H])([H])C([H])(C([H])([H])C([H])(C4([H])[H])C2([H])[H])C3([H])[H])n1

$$$$
27:0:2
     RDKit          3D

 32 35  0  0  1  0  0  0  0  0999 V2000
    1.6640   -6.8983    1.3146 C   0  0  0  0  0  0  0  0  0  0  0  0
    2.8049   -7.4126    1.8600 N   0  0  0  0  0  0  0  0  0  0  0  0
    3.6696   -6.4761    1.4969 C   0  0  0  0  0  0  0  0  0  0  0  0
    3.1296   -5.4772    0.7917 N   0  0  0  0  0  0  0  0  0  0  0  0
    3.7456   -4.2616    0.2457 C   0  0  2  0  0  0  0  0  0  0  0  0
    5.0354   -4.6412   -0.5312 C   0  0  0  0  0  0  0  0  0  0  0  0
    5.7144   -3.3833   -1.1068 C   0  0  1  0  0  0  0  0  0  0  0  0
    4.7440   -2.6805   -2.0794 C   0  0  0  0  0  0  0  0  0  0  0  0
    3.4783   -2.2611   -1.3089 C   0  0  2  0  0  0  0  0  0  0  0  0
    3.8525   -1.3068   -0.1564 C   0  0  0  0  0  0  0  0  0  0  0  0
    4.8129   -2.0290    0.8136 C   0  0  2  0  0  0  0  0  0  0  0  0
    6.0931   -2.4415    0.0569 C   0  0  0  0  0  0  0  0  0  0  0  0
    4.1254   -3.2877    1.3908 C   0  0  0  0  0  0  0  0  0  0  0  0
    2.7914   -3.5115   -0.7267 C   0  0  0  0  0  0  0  0  0  0  0  0
    1.7994   -5.7315    0.6902 N   0  0  0  0  0  0  0  0  0  0  0  0
    0.7081   -7.3913    1.3887 H   0  0  0  0  0  0  0  0  0  0  0  0
    4.7180   -6.5033    1.7528 H   0  0  0  0  0  0  0  0  0  0  0  0
    5.7499   -5.1541    0.1131 H   0  0  0  0  0  0  0  0  0  0  0  0
    4.8027   -5.3348   -1.3382 H   0  0  0  0  0  0  0  0  0  0  0  0
    6.6160   -3.6713   -1.6477 H   0  0  0  0  0  0  0  0  0  0  0  0
    5.2138   -1.8106   -2.5366 H   0  0  0  0  0  0  0  0  0  0  0  0
    4.4754   -3.3619   -2.8871 H   0  0  0  0  0  0  0  0  0  0  0  0
    2.7862   -1.7578   -1.9870 H   0  0  0  0  0  0  0  0  0  0  0  0
    4.3110   -0.3993   -0.5498 H   0  0  0  0  0  0  0  0  0  0  0  0
    2.9532   -0.9954    0.3749 H   0  0  0  0  0  0  0  0  0  0  0  0
    5.0755   -1.3521    1.6279 H   0  0  0  0  0  0  0  0  0  0  0  0
    6.7769   -2.9475    0.7383 H   0  0  0  0  0  0  0  0  0  0  0  0
    6.6157   -1.5615   -0.3178 H   0  0  0  0  0  0  0  0  0  0  0  0
    3.2373   -2.9997    1.9539 H   0  0  0  0  0  0  0  0  0  0  0  0
    4.7956   -3.7716    2.1024 H   0  0  0  0  0  0  0  0  0  0  0  0
    2.4798   -4.1713   -1.5363 H   0  0  0  0  0  0  0  0  0  0  0  0
    1.8809   -3.1924   -0.2200 H   0  0  0  0  0  0  0  0  0  0  0  0
  1 15  2  0
  1  2  1  0
  1 16  1  0
  2  3  2  0
  3  4  1  0
  3 17  1  0
  5  4  1  1
  4 15  1  0
  5 13  1  0
  5 14  1  0
  5  6  1  0
  6  7  1  0
  6 18  1  0
  6 19  1  0
  7 12  1  0
  7  8  1  0
  7 20  1  6
  8  9  1  0
  8 21  1  0
  8 22  1  0
  9 10  1  0
  9 14  1  0
  9 23  1  6
 10 11  1  0
 10 24  1  0
 10 25  1  0
 11 12  1  0
 11 13  1  0
 11 26  1  1
 12 27  1  0
 12 28  1  0
 13 29  1  0
 13 30  1  0
 14 31  1  0
 14 32  1  0
M  END
>  <i_m_ct_stereo_status>  (72) 
1

>  <s_m_source_file>  (72) 
/var/tmp/pbs.5076255.sched01/tmp9stzsw2m/06nqgg2pe.sdf

>  <i_m_source_file_index>  (72) 
37

>  <i_lp_mmshare_version>  (72) 
48012

>  <i_f3d_flags>  (72) 
0

>  <s_epik_input>  (72) 
bjFbY0hdbltjSF1uMUMyM1tDSDJdW0NASF00W0NIMl1bQ0BASF0oW0NIMl0zKVtDSDJdW0NASF0oW0NIMl00KVtDSDJdMg==

>  <s_epik_cmdline>  (72) 
J2VwaWtfcHl0aG9uJywgJy1waHQnLCAnMi4wJywgJy1waCcsICc3LjAnLCAnLXRuJywgJzgnLCAnLW1hJywgJzIwMCcsICctaW1hZScsICc8aW5maWxlLm1hZT4nLCAnLW9tYWUnLCAnPG91dGZpbGUubWFlPic=

>  <r_lp_tautomer_probability>  (72) 
1

>  <r_epik_Ionization_Penalty>  (72) 
0.000665803

>  <r_epik_Ionization_Penalty_Charging>  (72) 
0

>  <r_epik_Ionization_Penalty_Neutral>  (72) 
0.000665803

>  <r_epik_State_Penalty>  (72) 
0.000422278

>  <r_epik_Charging_Adjusted_Penalty>  (72) 
0.000422278

>  <i_epik_Tot_Q>  (72) 
0

>  <i_epik_Tot_abs_Q>  (72) 
0

>  <s_lp_Force_Field>  (72) 
OPLS3e

>  <r_lp_Energy>  (72) 
7.90782

>  <b_lp_Chiralities_Consistent>  (72) 
1

>  <s_lp_Variant>  (72) 
27:0-1

>  <s_i_glide_gridfile>  (72) 
pfpi4k_grid

>  <i_i_glide_lignum>  (72) 
37

>  <i_i_glide_rotatable_bonds>  (72) 
1

>  <r_i_docking_score>  (72) 
-3.22872

>  <r_i_glide_ligand_efficiency>  (72) 
-0.215248

>  <r_i_glide_ligand_efficiency_sa>  (72) 
-0.530847

>  <r_i_glide_ligand_efficiency_ln>  (72) 
-0.870732

>  <r_i_glide_gscore>  (72) 
-3.22872

>  <r_i_glide_lipo>  (72) 
-0.211289

>  <r_i_glide_hbond>  (72) 
-0.0881186

>  <r_i_glide_metal>  (72) 
-0

>  <r_i_glide_rewards>  (72) 
-2.09894

>  <r_i_glide_evdw>  (72) 
-19.3565

>  <r_i_glide_ecoul>  (72) 
-1.36446

>  <r_i_glide_erotb>  (72) 
0.397388

>  <r_i_glide_esite>  (72) 
-0.0552616

>  <r_i_glide_emodel>  (72) 
-25.1082

>  <r_i_glide_energy>  (72) 
-20.721

>  <r_i_glide_einternal>  (72) 
0.172215

>  <r_i_glide_intrahb_reward>  (72) 
-0

>  <i_i_glide_confnum>  (72) 
5

>  <i_i_glide_posenum>  (72) 
9

>  <r_i_glide_eff_state_penalty>  (72) 
0

>  <ligand_id>  (72) 
27

>  <original_smiles>  (72) 
c1ncn(C23CC4CC(CC(C4)C2)C3)n1

>  <smiles>  (72) 
[H]c1nc([H])n(C23C([H])([H])C4([H])C([H])([H])C([H])(C([H])([H])C([H])(C4([H])[H])C2([H])[H])C3([H])[H])n1

$$$$
28:0:0
     RDKit          3D

 48 52  0  0  1  0  0  0  0  0999 V2000
    4.3098   -6.8385    3.9549 C   0  0  0  0  0  0  0  0  0  0  0  0
    3.9718   -7.0090    2.4469 C   0  0  1  0  0  0  0  0  0  0  0  0
    4.7119   -8.2903    1.9948 C   0  0  0  0  0  0  0  0  0  0  0  0
    5.7803   -8.2606    1.3873 O   0  0  0  0  0  0  0  0  0  0  0  0
    4.1059   -9.6292    2.4130 C   0  0  0  0  0  0  0  0  0  0  0  0
    2.6081   -9.7012    2.0828 C   0  0  0  0  0  0  0  0  0  0  0  0
    1.8139   -8.5149    2.6604 C   0  0  1  0  0  0  0  0  0  0  0  0
    1.7308   -8.6388    4.0669 O   0  0  0  0  0  0  0  0  0  0  0  0
    2.4332   -7.1596    2.2181 C   0  0  1  0  0  0  0  0  0  0  0  0
    1.6438   -5.9225    2.7252 C   0  0  0  0  0  0  0  0  0  0  0  0
    2.2555   -4.6227    2.2188 C   0  0  0  0  0  0  0  0  0  0  0  0
    3.5171   -4.5536    1.7506 C   0  0  0  0  0  0  0  0  0  0  0  0
    4.1557   -3.4823    0.8994 C   0  0  2  0  0  0  0  0  0  0  0  0
    3.3767   -2.2257    0.4617 C   0  0  1  0  0  0  0  0  0  0  0  0
    3.1117   -1.4144    1.5888 O   0  0  0  0  0  0  0  0  0  0  0  0
    4.1388   -1.3878   -0.6149 C   0  0  0  0  0  0  0  0  0  0  0  0
    5.2569   -2.1113   -1.4062 C   0  0  1  0  0  0  0  0  0  0  0  0
    6.5499   -1.8544   -0.7744 O   0  0  0  0  0  0  0  0  0  0  0  0
    6.8199   -3.1896   -0.6831 C   0  0  0  0  0  0  0  0  0  0  0  0
    7.8221   -3.7675   -0.2697 O   0  0  0  0  0  0  0  0  0  0  0  0
    5.4624   -3.6123   -1.2764 C   0  0  1  0  0  0  0  0  0  0  0  0
    4.5039   -4.3251   -0.3306 C   0  0  1  0  0  0  0  0  0  0  0  0
    4.8360   -5.7507    0.1826 C   0  0  0  0  0  0  0  0  0  0  0  0
    4.4729   -5.7271    1.6916 C   0  0  2  0  0  0  0  0  0  0  0  0
    3.8106   -5.9801    4.4018 H   0  0  0  0  0  0  0  0  0  0  0  0
    5.3816   -6.7001    4.1103 H   0  0  0  0  0  0  0  0  0  0  0  0
    4.0340   -7.7103    4.5453 H   0  0  0  0  0  0  0  0  0  0  0  0
    4.6400  -10.4374    1.9120 H   0  0  0  0  0  0  0  0  0  0  0  0
    4.2670   -9.7617    3.4812 H   0  0  0  0  0  0  0  0  0  0  0  0
    2.4948   -9.7051    0.9968 H   0  0  0  0  0  0  0  0  0  0  0  0
    2.1964  -10.6509    2.4319 H   0  0  0  0  0  0  0  0  0  0  0  0
    0.7907   -8.5756    2.2829 H   0  0  0  0  0  0  0  0  0  0  0  0
    1.3378   -9.4766    4.2758 H   0  0  0  0  0  0  0  0  0  0  0  0
    2.3055   -7.1539    1.1329 H   0  0  0  0  0  0  0  0  0  0  0  0
    0.6216   -5.9901    2.3511 H   0  0  0  0  0  0  0  0  0  0  0  0
    1.5806   -5.8930    3.8164 H   0  0  0  0  0  0  0  0  0  0  0  0
    1.6026   -3.7642    2.1540 H   0  0  0  0  0  0  0  0  0  0  0  0
    5.0595   -3.1679    1.4237 H   0  0  0  0  0  0  0  0  0  0  0  0
    2.4149   -2.5345    0.0446 H   0  0  0  0  0  0  0  0  0  0  0  0
    2.4923   -0.7416    1.3318 H   0  0  0  0  0  0  0  0  0  0  0  0
    3.3922   -1.0395   -1.3245 H   0  0  0  0  0  0  0  0  0  0  0  0
    4.5469   -0.4762   -0.1748 H   0  0  0  0  0  0  0  0  0  0  0  0
    5.2921   -1.8196   -2.4583 H   0  0  0  0  0  0  0  0  0  0  0  0
    5.5824   -4.0826   -2.2507 H   0  0  0  0  0  0  0  0  0  0  0  0
    3.5711   -4.4458   -0.8876 H   0  0  0  0  0  0  0  0  0  0  0  0
    4.2235   -6.4773   -0.3531 H   0  0  0  0  0  0  0  0  0  0  0  0
    5.8812   -6.0178    0.0280 H   0  0  0  0  0  0  0  0  0  0  0  0
    5.3757   -5.3872    2.2012 H   0  0  0  0  0  0  0  0  0  0  0  0
  2  1  1  1
  1 25  1  0
  1 26  1  0
  1 27  1  0
  2  9  1  0
  2 24  1  0
  2  3  1  0
  3  4  2  0
  3  5  1  0
  5  6  1  0
  5 28  1  0
  5 29  1  0
  6  7  1  0
  6 30  1  0
  6 31  1  0
  7  8  1  0
  7  9  1  0
  7 32  1  6
  8 33  1  0
  9 10  1  0
  9 34  1  6
 10 11  1  0
 10 35  1  0
 10 36  1  0
 11 12  2  0
 11 37  1  0
 12 24  1  0
 12 13  1  0
 13 22  1  0
 13 14  1  0
 13 38  1  1
 14 15  1  0
 14 16  1  0
 14 39  1  6
 15 40  1  0
 16 17  1  0
 16 41  1  0
 16 42  1  0
 17 21  1  0
 17 18  1  0
 17 43  1  6
 18 19  1  0
 19 20  2  0
 19 21  1  0
 21 22  1  0
 21 44  1  6
 22 23  1  0
 22 45  1  6
 23 24  1  0
 23 46  1  0
 23 47  1  0
 24 48  1  1
M  END
>  <i_m_ct_stereo_status>  (73) 
1

>  <s_m_source_file>  (73) 
/var/tmp/pbs.5076255.sched01/tmp9stzsw2m/06nqgg2pe.sdf

>  <i_m_source_file_index>  (73) 
38

>  <i_lp_mmshare_version>  (73) 
48012

>  <i_f3d_flags>  (73) 
0

>  <s_epik_input>  (73) 
Tz1DMVtDSDJdW0NIMl1bQ0BASF0oW09IXSlbQ0BIXShbQ0BAXTEyW0NIM10pW0NIMl1bQ0hdPUMzW0NASF00W0NASF0oW0NIMl1bQ0BIXTIzKVtDQEhdNVtDQEhdKE9DNT1PKVtDSDJdW0NAQEhdNFtPSF0=

>  <s_epik_cmdline>  (73) 
J2VwaWtfcHl0aG9uJywgJy1waHQnLCAnMi4wJywgJy1waCcsICc3LjAnLCAnLXRuJywgJzgnLCAnLW1hJywgJzIwMCcsICctaW1hZScsICc8aW5maWxlLm1hZT4nLCAnLW9tYWUnLCAnPG91dGZpbGUubWFlPic=

>  <r_lp_tautomer_probability>  (73) 
1

>  <r_epik_Ionization_Penalty>  (73) 
4.24322e-07

>  <r_epik_Ionization_Penalty_Charging>  (73) 
0

>  <r_epik_Ionization_Penalty_Neutral>  (73) 
4.24322e-07

>  <r_epik_State_Penalty>  (73) 
-0

>  <r_epik_Charging_Adjusted_Penalty>  (73) 
0

>  <i_epik_Tot_Q>  (73) 
0

>  <i_epik_Tot_abs_Q>  (73) 
0

>  <s_epik_Chemistry_Notes>  (73) 
This compound has an ester and may undergo hydrolysis at high or low pH.

>  <s_lp_Force_Field>  (73) 
OPLS3e

>  <r_lp_Energy>  (73) 
21.2255

>  <b_lp_Chiralities_Consistent>  (73) 
1

>  <s_lp_Variant>  (73) 
28:0-1

>  <s_i_glide_gridfile>  (73) 
pfpi4k_grid

>  <i_i_glide_lignum>  (73) 
38

>  <i_i_glide_rotatable_bonds>  (73) 
2

>  <r_i_docking_score>  (73) 
-3.74422

>  <r_i_glide_ligand_efficiency>  (73) 
-0.156009

>  <r_i_glide_ligand_efficiency_sa>  (73) 
-0.450008

>  <r_i_glide_ligand_efficiency_ln>  (73) 
-0.896163

>  <r_i_glide_gscore>  (73) 
-3.74422

>  <r_i_glide_lipo>  (73) 
-0.192787

>  <r_i_glide_hbond>  (73) 
-0.159062

>  <r_i_glide_metal>  (73) 
-0

>  <r_i_glide_rewards>  (73) 
-1.28557

>  <r_i_glide_evdw>  (73) 
-26.6347

>  <r_i_glide_ecoul>  (73) 
-5.16711

>  <r_i_glide_erotb>  (73) 
0

>  <r_i_glide_esite>  (73) 
0

>  <r_i_glide_emodel>  (73) 
-39.2124

>  <r_i_glide_energy>  (73) 
-31.8018

>  <r_i_glide_einternal>  (73) 
0.699998

>  <r_i_glide_intrahb_reward>  (73) 
-0

>  <i_i_glide_confnum>  (73) 
2

>  <i_i_glide_posenum>  (73) 
3

>  <r_i_glide_eff_state_penalty>  (73) 
0

>  <ligand_id>  (73) 
28

>  <original_smiles>  (73) 
CC12C(=O)CCC(O)C1CC=C1C3C(O)CC4OC(=O)C4C3CC12

>  <smiles>  (73) 
[H]OC1([H])C([H])([H])C2([H])OC(=O)C2([H])C2([H])C([H])([H])C3([H])C(=C([H])C([H])([H])C4([H])C([H])(O[H])C([H])([H])C([H])([H])C(=O)C34C([H])([H])[H])C12[H]

$$$$
28:0:1
     RDKit          3D

 48 52  0  0  1  0  0  0  0  0999 V2000
    5.6933   -3.6234   -0.0534 C   0  0  0  0  0  0  0  0  0  0  0  0
    4.5039   -2.6457    0.1525 C   0  0  1  0  0  0  0  0  0  0  0  0
    4.9999   -1.2729   -0.3420 C   0  0  0  0  0  0  0  0  0  0  0  0
    5.4383   -0.4208    0.4266 O   0  0  0  0  0  0  0  0  0  0  0  0
    5.0621   -1.0578   -1.8571 C   0  0  0  0  0  0  0  0  0  0  0  0
    3.7679   -1.4729   -2.5617 C   0  0  0  0  0  0  0  0  0  0  0  0
    3.3423   -2.9083   -2.2037 C   0  0  1  0  0  0  0  0  0  0  0  0
    4.2169   -3.8437   -2.8261 O   0  0  0  0  0  0  0  0  0  0  0  0
    3.2514   -3.0924   -0.6610 C   0  0  1  0  0  0  0  0  0  0  0  0
    2.7489   -4.4912   -0.2293 C   0  0  0  0  0  0  0  0  0  0  0  0
    2.6181   -4.6099    1.2815 C   0  0  0  0  0  0  0  0  0  0  0  0
    3.2420   -3.7624    2.1196 C   0  0  0  0  0  0  0  0  0  0  0  0
    2.9627   -3.4981    3.5789 C   0  0  2  0  0  0  0  0  0  0  0  0
    1.8649   -4.2715    4.3397 C   0  0  1  0  0  0  0  0  0  0  0  0
    2.2366   -5.6275    4.4767 O   0  0  0  0  0  0  0  0  0  0  0  0
    1.5745   -3.6674    5.7473 C   0  0  0  0  0  0  0  0  0  0  0  0
    2.0356   -2.2086    5.9923 C   0  0  1  0  0  0  0  0  0  0  0  0
    3.3633   -2.2260    6.6066 O   0  0  0  0  0  0  0  0  0  0  0  0
    3.8619   -1.3817    5.6565 C   0  0  0  0  0  0  0  0  0  0  0  0
    4.9820   -0.8898    5.5519 O   0  0  0  0  0  0  0  0  0  0  0  0
    2.5544   -1.3417    4.8515 C   0  0  1  0  0  0  0  0  0  0  0  0
    2.5867   -2.0152    3.4866 C   0  0  1  0  0  0  0  0  0  0  0  0
    3.4400   -1.4075    2.3442 C   0  0  0  0  0  0  0  0  0  0  0  0
    4.1393   -2.6249    1.6801 C   0  0  2  0  0  0  0  0  0  0  0  0
    5.4460   -4.6440    0.2316 H   0  0  0  0  0  0  0  0  0  0  0  0
    6.5571   -3.3256    0.5401 H   0  0  0  0  0  0  0  0  0  0  0  0
    6.0325   -3.6540   -1.0873 H   0  0  0  0  0  0  0  0  0  0  0  0
    5.2870   -0.0161   -2.0741 H   0  0  0  0  0  0  0  0  0  0  0  0
    5.8888   -1.6502   -2.2416 H   0  0  0  0  0  0  0  0  0  0  0  0
    2.9776   -0.7860   -2.2576 H   0  0  0  0  0  0  0  0  0  0  0  0
    3.8725   -1.3541   -3.6432 H   0  0  0  0  0  0  0  0  0  0  0  0
    2.3568   -3.0829   -2.6373 H   0  0  0  0  0  0  0  0  0  0  0  0
    3.8414   -4.7184   -2.7174 H   0  0  0  0  0  0  0  0  0  0  0  0
    2.4652   -2.4006   -0.3577 H   0  0  0  0  0  0  0  0  0  0  0  0
    1.7697   -4.6577   -0.6764 H   0  0  0  0  0  0  0  0  0  0  0  0
    3.4104   -5.2802   -0.5852 H   0  0  0  0  0  0  0  0  0  0  0  0
    1.9295   -5.3546    1.6572 H   0  0  0  0  0  0  0  0  0  0  0  0
    3.9125   -3.6265    4.1014 H   0  0  0  0  0  0  0  0  0  0  0  0
    0.9423   -4.2458    3.7569 H   0  0  0  0  0  0  0  0  0  0  0  0
    3.0538   -5.6717    4.9575 H   0  0  0  0  0  0  0  0  0  0  0  0
    0.4986   -3.7179    5.8991 H   0  0  0  0  0  0  0  0  0  0  0  0
    1.9884   -4.3041    6.5306 H   0  0  0  0  0  0  0  0  0  0  0  0
    1.3432   -1.6342    6.6105 H   0  0  0  0  0  0  0  0  0  0  0  0
    2.1051   -0.3475    4.8722 H   0  0  0  0  0  0  0  0  0  0  0  0
    1.5618   -1.9834    3.1099 H   0  0  0  0  0  0  0  0  0  0  0  0
    2.7792   -0.9010    1.6363 H   0  0  0  0  0  0  0  0  0  0  0  0
    4.1617   -0.6734    2.7042 H   0  0  0  0  0  0  0  0  0  0  0  0
    5.0724   -2.7623    2.2281 H   0  0  0  0  0  0  0  0  0  0  0  0
  2  1  1  1
  1 25  1  0
  1 26  1  0
  1 27  1  0
  2  9  1  0
  2 24  1  0
  2  3  1  0
  3  4  2  0
  3  5  1  0
  5  6  1  0
  5 28  1  0
  5 29  1  0
  6  7  1  0
  6 30  1  0
  6 31  1  0
  7  8  1  0
  7  9  1  0
  7 32  1  6
  8 33  1  0
  9 10  1  0
  9 34  1  1
 10 11  1  0
 10 35  1  0
 10 36  1  0
 11 12  2  0
 11 37  1  0
 12 24  1  0
 12 13  1  0
 13 22  1  0
 13 14  1  0
 13 38  1  1
 14 15  1  0
 14 16  1  0
 14 39  1  6
 15 40  1  0
 16 17  1  0
 16 41  1  0
 16 42  1  0
 17 21  1  0
 17 18  1  0
 17 43  1  1
 18 19  1  0
 19 20  2  0
 19 21  1  0
 21 22  1  0
 21 44  1  6
 22 23  1  0
 22 45  1  6
 23 24  1  0
 23 46  1  0
 23 47  1  0
 24 48  1  1
M  END
>  <i_m_ct_stereo_status>  (74) 
1

>  <s_m_source_file>  (74) 
/var/tmp/pbs.5076255.sched01/tmp9stzsw2m/06nqgg2pe.sdf

>  <i_m_source_file_index>  (74) 
38

>  <i_lp_mmshare_version>  (74) 
48012

>  <i_f3d_flags>  (74) 
0

>  <s_epik_input>  (74) 
Tz1DMVtDSDJdW0NIMl1bQ0BASF0oW09IXSlbQ0BIXShbQ0BAXTEyW0NIM10pW0NIMl1bQ0hdPUMzW0NASF00W0NASF0oW0NIMl1bQ0BIXTIzKVtDQEhdNVtDQEhdKE9DNT1PKVtDSDJdW0NAQEhdNFtPSF0=

>  <s_epik_cmdline>  (74) 
J2VwaWtfcHl0aG9uJywgJy1waHQnLCAnMi4wJywgJy1waCcsICc3LjAnLCAnLXRuJywgJzgnLCAnLW1hJywgJzIwMCcsICctaW1hZScsICc8aW5maWxlLm1hZT4nLCAnLW9tYWUnLCAnPG91dGZpbGUubWFlPic=

>  <r_lp_tautomer_probability>  (74) 
1

>  <r_epik_Ionization_Penalty>  (74) 
4.24322e-07

>  <r_epik_Ionization_Penalty_Charging>  (74) 
0

>  <r_epik_Ionization_Penalty_Neutral>  (74) 
4.24322e-07

>  <r_epik_State_Penalty>  (74) 
-0

>  <r_epik_Charging_Adjusted_Penalty>  (74) 
0

>  <i_epik_Tot_Q>  (74) 
0

>  <i_epik_Tot_abs_Q>  (74) 
0

>  <s_epik_Chemistry_Notes>  (74) 
This compound has an ester and may undergo hydrolysis at high or low pH.

>  <s_lp_Force_Field>  (74) 
OPLS3e

>  <r_lp_Energy>  (74) 
21.2255

>  <b_lp_Chiralities_Consistent>  (74) 
1

>  <s_lp_Variant>  (74) 
28:0-1

>  <s_i_glide_gridfile>  (74) 
pfpi4k_grid

>  <i_i_glide_lignum>  (74) 
38

>  <i_i_glide_rotatable_bonds>  (74) 
2

>  <r_i_docking_score>  (74) 
-3.55876

>  <r_i_glide_ligand_efficiency>  (74) 
-0.148281

>  <r_i_glide_ligand_efficiency_sa>  (74) 
-0.427718

>  <r_i_glide_ligand_efficiency_ln>  (74) 
-0.851774

>  <r_i_glide_gscore>  (74) 
-3.55876

>  <r_i_glide_lipo>  (74) 
-0.0679369

>  <r_i_glide_hbond>  (74) 
-0.32

>  <r_i_glide_metal>  (74) 
-0

>  <r_i_glide_rewards>  (74) 
-1.14279

>  <r_i_glide_evdw>  (74) 
-20.6794

>  <r_i_glide_ecoul>  (74) 
-6.49491

>  <r_i_glide_erotb>  (74) 
0

>  <r_i_glide_esite>  (74) 
-0.0198216

>  <r_i_glide_emodel>  (74) 
-34.3428

>  <r_i_glide_energy>  (74) 
-27.1743

>  <r_i_glide_einternal>  (74) 
0.352046

>  <r_i_glide_intrahb_reward>  (74) 
-0

>  <i_i_glide_confnum>  (74) 
1

>  <i_i_glide_posenum>  (74) 
16

>  <r_i_glide_eff_state_penalty>  (74) 
0

>  <ligand_id>  (74) 
28

>  <original_smiles>  (74) 
CC12C(=O)CCC(O)C1CC=C1C3C(O)CC4OC(=O)C4C3CC12

>  <smiles>  (74) 
[H]OC1([H])C([H])([H])C2([H])OC(=O)C2([H])C2([H])C([H])([H])C3([H])C(=C([H])C([H])([H])C4([H])C([H])(O[H])C([H])([H])C([H])([H])C(=O)C34C([H])([H])[H])C12[H]

$$$$
28:0:2
     RDKit          3D

 48 52  0  0  1  0  0  0  0  0999 V2000
    5.8548   -4.0930    0.1888 C   0  0  0  0  0  0  0  0  0  0  0  0
    4.7711   -3.0457    0.5727 C   0  0  1  0  0  0  0  0  0  0  0  0
    5.3712   -1.6720    0.2015 C   0  0  0  0  0  0  0  0  0  0  0  0
    5.8919   -0.9285    1.0274 O   0  0  0  0  0  0  0  0  0  0  0  0
    5.3936   -1.3019   -1.2780 C   0  0  0  0  0  0  0  0  0  0  0  0
    4.0259   -1.5006   -1.9391 C   0  0  0  0  0  0  0  0  0  0  0  0
    3.4702   -2.9176   -1.7238 C   0  0  1  0  0  0  0  0  0  0  0  0
    4.2210   -3.8253   -2.5079 O   0  0  0  0  0  0  0  0  0  0  0  0
    3.4393   -3.2823   -0.2103 C   0  0  1  0  0  0  0  0  0  0  0  0
    2.8343   -4.6803    0.0853 C   0  0  0  0  0  0  0  0  0  0  0  0
    2.7653   -4.9638    1.5795 C   0  0  0  0  0  0  0  0  0  0  0  0
    3.5105   -4.2816    2.4696 C   0  0  0  0  0  0  0  0  0  0  0  0
    3.3274   -4.1722    3.9647 C   0  0  2  0  0  0  0  0  0  0  0  0
    2.2035   -4.9353    4.6960 C   0  0  1  0  0  0  0  0  0  0  0  0
    2.4581   -6.3245    4.6552 O   0  0  0  0  0  0  0  0  0  0  0  0
    2.0352   -4.4801    6.1789 C   0  0  0  0  0  0  0  0  0  0  0  0
    2.6403   -3.1058    6.5615 C   0  0  1  0  0  0  0  0  0  0  0  0
    3.9873   -3.3085    7.0916 O   0  0  0  0  0  0  0  0  0  0  0  0
    4.5150   -2.4022    6.2187 C   0  0  0  0  0  0  0  0  0  0  0  0
    5.6686   -1.9944    6.1080 O   0  0  0  0  0  0  0  0  0  0  0  0
    3.1795   -2.1562    5.5006 C   0  0  1  0  0  0  0  0  0  0  0  0
    3.0870   -2.6620    4.0679 C   0  0  1  0  0  0  0  0  0  0  0  0
    3.9370   -1.9969    2.9541 C   0  0  0  0  0  0  0  0  0  0  0  0
    4.4865   -3.1812    2.1120 C   0  0  2  0  0  0  0  0  0  0  0  0
    5.5327   -5.1173    0.3687 H   0  0  0  0  0  0  0  0  0  0  0  0
    6.7723   -3.9452    0.7598 H   0  0  0  0  0  0  0  0  0  0  0  0
    6.1397   -4.0296   -0.8599 H   0  0  0  0  0  0  0  0  0  0  0  0
    5.6995   -0.2616   -1.3723 H   0  0  0  0  0  0  0  0  0  0  0  0
    6.1480   -1.9072   -1.7754 H   0  0  0  0  0  0  0  0  0  0  0  0
    3.3235   -0.7888   -1.5062 H   0  0  0  0  0  0  0  0  0  0  0  0
    4.0833   -1.2662   -3.0039 H   0  0  0  0  0  0  0  0  0  0  0  0
    2.4497   -2.9442   -2.1100 H   0  0  0  0  0  0  0  0  0  0  0  0
    3.7300   -4.6407   -2.5735 H   0  0  0  0  0  0  0  0  0  0  0  0
    2.7283   -2.5686    0.2144 H   0  0  0  0  0  0  0  0  0  0  0  0
    1.8233   -4.7145   -0.3215 H   0  0  0  0  0  0  0  0  0  0  0  0
    3.4078   -5.4813   -0.3816 H   0  0  0  0  0  0  0  0  0  0  0  0
    2.0284   -5.6822    1.9083 H   0  0  0  0  0  0  0  0  0  0  0  0
    4.2866   -4.4428    4.4119 H   0  0  0  0  0  0  0  0  0  0  0  0
    1.2600   -4.7642    4.1745 H   0  0  0  0  0  0  0  0  0  0  0  0
    3.2901   -6.4961    5.0757 H   0  0  0  0  0  0  0  0  0  0  0  0
    0.9673   -4.4559    6.3834 H   0  0  0  0  0  0  0  0  0  0  0  0
    2.4243   -5.2398    6.8582 H   0  0  0  0  0  0  0  0  0  0  0  0
    2.0318   -2.5543    7.2809 H   0  0  0  0  0  0  0  0  0  0  0  0
    2.8262   -1.1372    5.6575 H   0  0  0  0  0  0  0  0  0  0  0  0
    2.0521   -2.4988    3.7570 H   0  0  0  0  0  0  0  0  0  0  0  0
    3.2924   -1.3559    2.3480 H   0  0  0  0  0  0  0  0  0  0  0  0
    4.7409   -1.3762    3.3521 H   0  0  0  0  0  0  0  0  0  0  0  0
    5.4277   -3.4643    2.5872 H   0  0  0  0  0  0  0  0  0  0  0  0
  2  1  1  6
  1 25  1  0
  1 26  1  0
  1 27  1  0
  2  9  1  0
  2 24  1  0
  2  3  1  0
  3  4  2  0
  3  5  1  0
  5  6  1  0
  5 28  1  0
  5 29  1  0
  6  7  1  0
  6 30  1  0
  6 31  1  0
  7  8  1  0
  7  9  1  0
  7 32  1  6
  8 33  1  0
  9 10  1  0
  9 34  1  1
 10 11  1  0
 10 35  1  0
 10 36  1  0
 11 12  2  0
 11 37  1  0
 12 24  1  0
 12 13  1  0
 13 22  1  0
 13 14  1  0
 13 38  1  1
 14 15  1  0
 14 16  1  0
 14 39  1  6
 15 40  1  0
 16 17  1  0
 16 41  1  0
 16 42  1  0
 17 21  1  0
 17 18  1  0
 17 43  1  1
 18 19  1  0
 19 20  2  0
 19 21  1  0
 21 22  1  0
 21 44  1  6
 22 23  1  0
 22 45  1  6
 23 24  1  0
 23 46  1  0
 23 47  1  0
 24 48  1  1
M  END
>  <i_m_ct_stereo_status>  (75) 
1

>  <s_m_source_file>  (75) 
/var/tmp/pbs.5076255.sched01/tmp9stzsw2m/06nqgg2pe.sdf

>  <i_m_source_file_index>  (75) 
38

>  <i_lp_mmshare_version>  (75) 
48012

>  <i_f3d_flags>  (75) 
0

>  <s_epik_input>  (75) 
Tz1DMVtDSDJdW0NIMl1bQ0BASF0oW09IXSlbQ0BIXShbQ0BAXTEyW0NIM10pW0NIMl1bQ0hdPUMzW0NASF00W0NASF0oW0NIMl1bQ0BIXTIzKVtDQEhdNVtDQEhdKE9DNT1PKVtDSDJdW0NAQEhdNFtPSF0=

>  <s_epik_cmdline>  (75) 
J2VwaWtfcHl0aG9uJywgJy1waHQnLCAnMi4wJywgJy1waCcsICc3LjAnLCAnLXRuJywgJzgnLCAnLW1hJywgJzIwMCcsICctaW1hZScsICc8aW5maWxlLm1hZT4nLCAnLW9tYWUnLCAnPG91dGZpbGUubWFlPic=

>  <r_lp_tautomer_probability>  (75) 
1

>  <r_epik_Ionization_Penalty>  (75) 
4.24322e-07

>  <r_epik_Ionization_Penalty_Charging>  (75) 
0

>  <r_epik_Ionization_Penalty_Neutral>  (75) 
4.24322e-07

>  <r_epik_State_Penalty>  (75) 
-0

>  <r_epik_Charging_Adjusted_Penalty>  (75) 
0

>  <i_epik_Tot_Q>  (75) 
0

>  <i_epik_Tot_abs_Q>  (75) 
0

>  <s_epik_Chemistry_Notes>  (75) 
This compound has an ester and may undergo hydrolysis at high or low pH.

>  <s_lp_Force_Field>  (75) 
OPLS3e

>  <r_lp_Energy>  (75) 
21.2255

>  <b_lp_Chiralities_Consistent>  (75) 
1

>  <s_lp_Variant>  (75) 
28:0-1

>  <s_i_glide_gridfile>  (75) 
pfpi4k_grid

>  <i_i_glide_lignum>  (75) 
38

>  <i_i_glide_rotatable_bonds>  (75) 
2

>  <r_i_docking_score>  (75) 
-3.49412

>  <r_i_glide_ligand_efficiency>  (75) 
-0.145588

>  <r_i_glide_ligand_efficiency_sa>  (75) 
-0.41995

>  <r_i_glide_ligand_efficiency_ln>  (75) 
-0.836304

>  <r_i_glide_gscore>  (75) 
-3.49412

>  <r_i_glide_lipo>  (75) 
-0.135186

>  <r_i_glide_hbond>  (75) 
-0.32

>  <r_i_glide_metal>  (75) 
-0

>  <r_i_glide_rewards>  (75) 
-1.18858

>  <r_i_glide_evdw>  (75) 
-19.8874

>  <r_i_glide_ecoul>  (75) 
-5.70662

>  <r_i_glide_erotb>  (75) 
0

>  <r_i_glide_esite>  (75) 
0

>  <r_i_glide_emodel>  (75) 
-32.5301

>  <r_i_glide_energy>  (75) 
-25.594

>  <r_i_glide_einternal>  (75) 
0.485188

>  <r_i_glide_intrahb_reward>  (75) 
-0

>  <i_i_glide_confnum>  (75) 
1

>  <i_i_glide_posenum>  (75) 
14

>  <r_i_glide_eff_state_penalty>  (75) 
0

>  <ligand_id>  (75) 
28

>  <original_smiles>  (75) 
CC12C(=O)CCC(O)C1CC=C1C3C(O)CC4OC(=O)C4C3CC12

>  <smiles>  (75) 
[H]OC1([H])C([H])([H])C2([H])OC(=O)C2([H])C2([H])C([H])([H])C3([H])C(=C([H])C([H])([H])C4([H])C([H])(O[H])C([H])([H])C([H])([H])C(=O)C34C([H])([H])[H])C12[H]

$$$$
29:0:0
     RDKit          3D

 50 53  0  0  1  0  0  0  0  0999 V2000
    3.3861   -3.0441   -2.1038 C   0  0  0  0  0  0  0  0  0  0  0  0
    3.4772   -2.7924   -0.6891 N   0  0  0  0  0  0  0  0  0  0  0  0
    2.8766   -3.6341    0.2467 C   0  0  0  0  0  0  0  0  0  0  0  0
    2.4168   -4.8418   -0.2532 N   0  0  0  0  0  0  0  0  0  0  0  0
    2.7955   -3.3002    1.5771 C   0  0  0  0  0  0  0  0  0  0  0  0
    2.2815   -4.2369    2.6438 C   0  0  0  0  0  0  0  0  0  0  0  0
    1.8215   -5.4012    2.4086 N   0  0  0  0  0  0  0  0  0  0  0  0
    1.4554   -6.3323    3.4689 C   0  0  2  0  0  0  0  0  0  0  0  0
    0.4196   -5.8312    4.4757 C   0  0  0  0  0  0  0  0  0  0  0  0
    0.6410   -7.0742    5.3455 C   0  0  2  0  0  0  0  0  0  0  0  0
    2.0442   -6.6981    5.8262 C   0  0  0  0  0  0  0  0  0  0  0  0
    2.6171   -6.9084    4.4215 C   0  0  2  0  0  0  0  0  0  0  0  0
    4.0697   -6.4448    4.2270 C   0  0  0  0  0  0  0  0  0  0  0  0
    2.4125   -8.4289    4.4030 C   0  0  0  0  0  0  0  0  0  0  0  0
    0.8969   -8.2652    4.3146 C   0  0  2  0  0  0  0  0  0  0  0  0
    0.7424   -7.6053    2.9248 C   0  0  0  0  0  0  0  0  0  0  0  0
   -0.7510   -7.5212    2.4926 C   0  0  0  0  0  0  0  0  0  0  0  0
    1.4691   -8.2623    1.7141 C   0  0  0  0  0  0  0  0  0  0  0  0
    3.2772   -1.9754    2.0244 C   0  0  0  0  0  0  0  0  0  0  0  0
    3.1336   -1.5365    3.1670 O   0  0  0  0  0  0  0  0  0  0  0  0
    3.9385   -1.2013    1.0391 N   0  0  0  0  0  0  0  0  0  0  0  0
    4.3593    0.1344    1.3976 C   0  0  0  0  0  0  0  0  0  0  0  0
    4.1608   -1.6245   -0.2841 C   0  0  0  0  0  0  0  0  0  0  0  0
    4.8962   -0.9982   -1.0583 O   0  0  0  0  0  0  0  0  0  0  0  0
    2.3563   -3.3344   -2.3090 H   0  0  0  0  0  0  0  0  0  0  0  0
    4.0812   -3.8503   -2.3280 H   0  0  0  0  0  0  0  0  0  0  0  0
    3.5970   -2.1409   -2.6739 H   0  0  0  0  0  0  0  0  0  0  0  0
    2.2134   -5.5857    0.4017 H   0  0  0  0  0  0  0  0  0  0  0  0
    2.6160   -5.1516   -1.2044 H   0  0  0  0  0  0  0  0  0  0  0  0
    2.3597   -3.8658    3.6752 H   0  0  0  0  0  0  0  0  0  0  0  0
    0.6734   -4.8851    4.9556 H   0  0  0  0  0  0  0  0  0  0  0  0
   -0.5893   -5.7036    4.1061 H   0  0  0  0  0  0  0  0  0  0  0  0
   -0.1004   -7.2390    6.1283 H   0  0  0  0  0  0  0  0  0  0  0  0
    2.1539   -5.6787    6.2000 H   0  0  0  0  0  0  0  0  0  0  0  0
    2.4314   -7.3579    6.6059 H   0  0  0  0  0  0  0  0  0  0  0  0
    4.7445   -6.9141    4.9444 H   0  0  0  0  0  0  0  0  0  0  0  0
    4.1630   -5.3691    4.3657 H   0  0  0  0  0  0  0  0  0  0  0  0
    4.4165   -6.6877    3.2223 H   0  0  0  0  0  0  0  0  0  0  0  0
    2.8939   -8.9554    3.5833 H   0  0  0  0  0  0  0  0  0  0  0  0
    2.7308   -8.9630    5.3017 H   0  0  0  0  0  0  0  0  0  0  0  0
    0.3233   -9.1812    4.4737 H   0  0  0  0  0  0  0  0  0  0  0  0
   -1.0454   -8.4059    1.9253 H   0  0  0  0  0  0  0  0  0  0  0  0
   -0.9285   -6.6618    1.8474 H   0  0  0  0  0  0  0  0  0  0  0  0
   -1.4452   -7.4854    3.3330 H   0  0  0  0  0  0  0  0  0  0  0  0
    1.3093   -9.3427    1.6876 H   0  0  0  0  0  0  0  0  0  0  0  0
    2.5432   -8.0790    1.6887 H   0  0  0  0  0  0  0  0  0  0  0  0
    1.0823   -7.8603    0.7778 H   0  0  0  0  0  0  0  0  0  0  0  0
    4.4557    0.7389    0.5003 H   0  0  0  0  0  0  0  0  0  0  0  0
    5.3078    0.0404    1.9202 H   0  0  0  0  0  0  0  0  0  0  0  0
    3.5846    0.5959    2.0104 H   0  0  0  0  0  0  0  0  0  0  0  0
  1  2  1  0
  1 25  1  0
  1 26  1  0
  1 27  1  0
  2 23  1  0
  2  3  1  0
  3  4  1  0
  3  5  2  0
  4 28  1  0
  4 29  1  0
  5  6  1  0
  5 19  1  0
  6  7  2  3
  6 30  1  0
  8  7  1  6
  8 12  1  0
  8 16  1  0
  8  9  1  0
  9 10  1  0
  9 31  1  0
  9 32  1  0
 10 15  1  0
 10 11  1  0
 10 33  1  1
 11 12  1  0
 11 34  1  0
 11 35  1  0
 12 13  1  1
 12 14  1  0
 13 36  1  0
 13 37  1  0
 13 38  1  0
 14 15  1  0
 14 39  1  0
 14 40  1  0
 15 16  1  0
 15 41  1  1
 16 17  1  0
 16 18  1  0
 17 42  1  0
 17 43  1  0
 17 44  1  0
 18 45  1  0
 18 46  1  0
 18 47  1  0
 19 20  2  0
 19 21  1  0
 21 22  1  0
 21 23  1  0
 22 48  1  0
 22 49  1  0
 22 50  1  0
 23 24  2  0
M  END
>  <i_m_ct_stereo_status>  (76) 
1

>  <s_m_source_file>  (76) 
/var/tmp/pbs.5076255.sched01/tmp9stzsw2m/06nqgg2pe.sdf

>  <i_m_source_file_index>  (76) 
39

>  <i_lp_mmshare_version>  (76) 
48012

>  <i_f3d_flags>  (76) 
0

>  <s_epik_input>  (76) 
Tz1jMW4oW0NIM10pYyg9TyljKGMoW05IMl0pbjFbQ0gzXSkvW0NIXT1OL1tDQEBdMjNbQ0BAXTQoW0NIM10pW0NIMl1bQ0BASF0oW0NIMl0yKVtDQEhdKFtDSDJdNClDMyhbQ0gzXSlbQ0gzXQ==

>  <s_epik_cmdline>  (76) 
J2VwaWtfcHl0aG9uJywgJy1waHQnLCAnMi4wJywgJy1waCcsICc3LjAnLCAnLXRuJywgJzgnLCAnLW1hJywgJzIwMCcsICctaW1hZScsICc8aW5maWxlLm1hZT4nLCAnLW9tYWUnLCAnPG91dGZpbGUubWFlPic=

>  <r_lp_tautomer_probability>  (76) 
1

>  <r_epik_Ionization_Penalty>  (76) 
3.67693e-05

>  <r_epik_Ionization_Penalty_Charging>  (76) 
1.65155e-08

>  <r_epik_Ionization_Penalty_Neutral>  (76) 
3.67528e-05

>  <r_epik_State_Penalty>  (76) 
-0

>  <r_epik_Charging_Adjusted_Penalty>  (76) 
1.65155e-08

>  <i_epik_Tot_Q>  (76) 
0

>  <i_epik_Tot_abs_Q>  (76) 
0

>  <s_epik_Chemistry_Notes>  (76) 
This compound has an imine and may undergo hydrolysis.

>  <s_lp_Force_Field>  (76) 
OPLS3e

>  <r_lp_Energy>  (76) 
116.141

>  <b_lp_Chiralities_Consistent>  (76) 
1

>  <s_lp_Variant>  (76) 
29:0-1

>  <s_i_glide_gridfile>  (76) 
pfpi4k_grid

>  <i_i_glide_lignum>  (76) 
39

>  <i_i_glide_rotatable_bonds>  (76) 
2

>  <r_i_docking_score>  (76) 
-3.60519

>  <r_i_glide_ligand_efficiency>  (76) 
-0.150216

>  <r_i_glide_ligand_efficiency_sa>  (76) 
-0.433299

>  <r_i_glide_ligand_efficiency_ln>  (76) 
-0.862887

>  <r_i_glide_gscore>  (76) 
-3.60519

>  <r_i_glide_lipo>  (76) 
-0.043953

>  <r_i_glide_hbond>  (76) 
-0.32

>  <r_i_glide_metal>  (76) 
-0

>  <r_i_glide_rewards>  (76) 
-1.6562

>  <r_i_glide_evdw>  (76) 
-21.6165

>  <r_i_glide_ecoul>  (76) 
-4.6767

>  <r_i_glide_erotb>  (76) 
0.34453

>  <r_i_glide_esite>  (76) 
-0.14724

>  <r_i_glide_emodel>  (76) 
-35.6202

>  <r_i_glide_energy>  (76) 
-26.2932

>  <r_i_glide_einternal>  (76) 
4.00618

>  <r_i_glide_intrahb_reward>  (76) 
-0.5

>  <i_i_glide_confnum>  (76) 
5

>  <i_i_glide_posenum>  (76) 
13

>  <r_i_glide_eff_state_penalty>  (76) 
0

>  <ligand_id>  (76) 
29

>  <original_smiles>  (76) 
Cn1c(N)c(C=NC23CC4CC2(C)CC4C3(C)C)c(=O)n(C)c1=O

>  <smiles>  (76) 
[H]C(=NC12C([H])([H])C3([H])C([H])([H])C1(C([H])([H])[H])C([H])([H])C3([H])C2(C([H])([H])[H])C([H])([H])[H])c1c(N([H])[H])n(C([H])([H])[H])c(=O)n(C([H])([H])[H])c1=O

$$$$
29:0:1
     RDKit          3D

 50 53  0  0  1  0  0  0  0  0999 V2000
    3.5274   -3.3722   -1.5371 C   0  0  0  0  0  0  0  0  0  0  0  0
    3.4136   -3.2509   -0.1162 N   0  0  0  0  0  0  0  0  0  0  0  0
    2.8917   -4.2675    0.6722 C   0  0  0  0  0  0  0  0  0  0  0  0
    2.7199   -5.4931    0.0651 N   0  0  0  0  0  0  0  0  0  0  0  0
    2.6222   -4.1006    2.0115 C   0  0  0  0  0  0  0  0  0  0  0  0
    2.1445   -5.2066    2.9340 C   0  0  0  0  0  0  0  0  0  0  0  0
    2.0797   -6.4359    2.5902 N   0  0  0  0  0  0  0  0  0  0  0  0
    1.5810   -7.4944    3.4478 C   0  0  2  0  0  0  0  0  0  0  0  0
    2.0105   -7.4393    4.9131 C   0  0  0  0  0  0  0  0  0  0  0  0
    1.5192   -8.8772    5.1217 C   0  0  2  0  0  0  0  0  0  0  0  0
    2.6268   -9.5506    4.3138 C   0  0  0  0  0  0  0  0  0  0  0  0
    2.0659   -8.9647    3.0177 C   0  0  2  0  0  0  0  0  0  0  0  0
    2.9724   -9.1310    1.7875 C   0  0  0  0  0  0  0  0  0  0  0  0
    0.7894   -9.8071    3.0095 C   0  0  0  0  0  0  0  0  0  0  0  0
    0.2302   -9.0165    4.1891 C   0  0  2  0  0  0  0  0  0  0  0  0
    0.0432   -7.6143    3.5615 C   0  0  0  0  0  0  0  0  0  0  0  0
   -0.7217   -6.6619    4.5210 C   0  0  0  0  0  0  0  0  0  0  0  0
   -0.6952   -7.5221    2.1955 C   0  0  0  0  0  0  0  0  0  0  0  0
    2.7421   -2.7468    2.6125 C   0  0  0  0  0  0  0  0  0  0  0  0
    2.3594   -2.4593    3.7518 O   0  0  0  0  0  0  0  0  0  0  0  0
    3.3615   -1.7598    1.7954 N   0  0  0  0  0  0  0  0  0  0  0  0
    3.5086   -0.4274    2.2997 C   0  0  0  0  0  0  0  0  0  0  0  0
    3.8320   -2.0215    0.4799 C   0  0  0  0  0  0  0  0  0  0  0  0
    4.4923   -1.1985   -0.1541 O   0  0  0  0  0  0  0  0  0  0  0  0
    2.5884   -3.8017   -1.8863 H   0  0  0  0  0  0  0  0  0  0  0  0
    4.3751   -4.0274   -1.7181 H   0  0  0  0  0  0  0  0  0  0  0  0
    3.6392   -2.3895   -1.9885 H   0  0  0  0  0  0  0  0  0  0  0  0
    2.4986   -6.3172    0.6092 H   0  0  0  0  0  0  0  0  0  0  0  0
    3.0003   -5.6488   -0.9015 H   0  0  0  0  0  0  0  0  0  0  0  0
    1.8928   -4.9103    3.9646 H   0  0  0  0  0  0  0  0  0  0  0  0
    3.0800   -7.2901    5.0568 H   0  0  0  0  0  0  0  0  0  0  0  0
    1.5197   -6.7065    5.5480 H   0  0  0  0  0  0  0  0  0  0  0  0
    1.4291   -9.2143    6.1572 H   0  0  0  0  0  0  0  0  0  0  0  0
    3.6423   -9.2277    4.5485 H   0  0  0  0  0  0  0  0  0  0  0  0
    2.6272  -10.6415    4.3856 H   0  0  0  0  0  0  0  0  0  0  0  0
    3.2295  -10.1801    1.6285 H   0  0  0  0  0  0  0  0  0  0  0  0
    3.9055   -8.5808    1.9066 H   0  0  0  0  0  0  0  0  0  0  0  0
    2.4790   -8.7770    0.8842 H   0  0  0  0  0  0  0  0  0  0  0  0
    0.2177   -9.7861    2.0876 H   0  0  0  0  0  0  0  0  0  0  0  0
    0.9241  -10.8694    3.2250 H   0  0  0  0  0  0  0  0  0  0  0  0
   -0.6537   -9.4454    4.6557 H   0  0  0  0  0  0  0  0  0  0  0  0
   -1.7970   -6.7024    4.3427 H   0  0  0  0  0  0  0  0  0  0  0  0
   -0.4091   -5.6269    4.3898 H   0  0  0  0  0  0  0  0  0  0  0  0
   -0.5907   -6.9222    5.5718 H   0  0  0  0  0  0  0  0  0  0  0  0
   -1.6205   -8.1019    2.2006 H   0  0  0  0  0  0  0  0  0  0  0  0
   -0.0914   -7.8468    1.3485 H   0  0  0  0  0  0  0  0  0  0  0  0
   -0.9572   -6.4962    1.9663 H   0  0  0  0  0  0  0  0  0  0  0  0
    3.6086    0.2567    1.4666 H   0  0  0  0  0  0  0  0  0  0  0  0
    4.3881   -0.4427    2.9325 H   0  0  0  0  0  0  0  0  0  0  0  0
    2.5940   -0.1810    2.8336 H   0  0  0  0  0  0  0  0  0  0  0  0
  1  2  1  0
  1 25  1  0
  1 26  1  0
  1 27  1  0
  2 23  1  0
  2  3  1  0
  3  4  1  0
  3  5  2  0
  4 28  1  0
  4 29  1  0
  5  6  1  0
  5 19  1  0
  6  7  2  3
  6 30  1  0
  8  7  1  6
  8 12  1  0
  8 16  1  0
  8  9  1  0
  9 10  1  0
  9 31  1  0
  9 32  1  0
 10 15  1  0
 10 11  1  0
 10 33  1  1
 11 12  1  0
 11 34  1  0
 11 35  1  0
 12 13  1  6
 12 14  1  0
 13 36  1  0
 13 37  1  0
 13 38  1  0
 14 15  1  0
 14 39  1  0
 14 40  1  0
 15 16  1  0
 15 41  1  1
 16 17  1  0
 16 18  1  0
 17 42  1  0
 17 43  1  0
 17 44  1  0
 18 45  1  0
 18 46  1  0
 18 47  1  0
 19 20  2  0
 19 21  1  0
 21 22  1  0
 21 23  1  0
 22 48  1  0
 22 49  1  0
 22 50  1  0
 23 24  2  0
M  END
>  <i_m_ct_stereo_status>  (77) 
1

>  <s_m_source_file>  (77) 
/var/tmp/pbs.5076255.sched01/tmp9stzsw2m/06nqgg2pe.sdf

>  <i_m_source_file_index>  (77) 
39

>  <i_lp_mmshare_version>  (77) 
48012

>  <i_f3d_flags>  (77) 
0

>  <s_epik_input>  (77) 
Tz1jMW4oW0NIM10pYyg9TyljKGMoW05IMl0pbjFbQ0gzXSkvW0NIXT1OL1tDQEBdMjNbQ0BAXTQoW0NIM10pW0NIMl1bQ0BASF0oW0NIMl0yKVtDQEhdKFtDSDJdNClDMyhbQ0gzXSlbQ0gzXQ==

>  <s_epik_cmdline>  (77) 
J2VwaWtfcHl0aG9uJywgJy1waHQnLCAnMi4wJywgJy1waCcsICc3LjAnLCAnLXRuJywgJzgnLCAnLW1hJywgJzIwMCcsICctaW1hZScsICc8aW5maWxlLm1hZT4nLCAnLW9tYWUnLCAnPG91dGZpbGUubWFlPic=

>  <r_lp_tautomer_probability>  (77) 
1

>  <r_epik_Ionization_Penalty>  (77) 
3.67693e-05

>  <r_epik_Ionization_Penalty_Charging>  (77) 
1.65155e-08

>  <r_epik_Ionization_Penalty_Neutral>  (77) 
3.67528e-05

>  <r_epik_State_Penalty>  (77) 
-0

>  <r_epik_Charging_Adjusted_Penalty>  (77) 
1.65155e-08

>  <i_epik_Tot_Q>  (77) 
0

>  <i_epik_Tot_abs_Q>  (77) 
0

>  <s_epik_Chemistry_Notes>  (77) 
This compound has an imine and may undergo hydrolysis.

>  <s_lp_Force_Field>  (77) 
OPLS3e

>  <r_lp_Energy>  (77) 
116.141

>  <b_lp_Chiralities_Consistent>  (77) 
1

>  <s_lp_Variant>  (77) 
29:0-1

>  <s_i_glide_gridfile>  (77) 
pfpi4k_grid

>  <i_i_glide_lignum>  (77) 
39

>  <i_i_glide_rotatable_bonds>  (77) 
2

>  <r_i_docking_score>  (77) 
-3.57865

>  <r_i_glide_ligand_efficiency>  (77) 
-0.149111

>  <r_i_glide_ligand_efficiency_sa>  (77) 
-0.430109

>  <r_i_glide_ligand_efficiency_ln>  (77) 
-0.856536

>  <r_i_glide_gscore>  (77) 
-3.57865

>  <r_i_glide_lipo>  (77) 
-0.086165

>  <r_i_glide_hbond>  (77) 
-0.32

>  <r_i_glide_metal>  (77) 
-0

>  <r_i_glide_rewards>  (77) 
-1.66446

>  <r_i_glide_evdw>  (77) 
-22.6178

>  <r_i_glide_ecoul>  (77) 
-4.15937

>  <r_i_glide_erotb>  (77) 
0.34453

>  <r_i_glide_esite>  (77) 
-0.0977677

>  <r_i_glide_emodel>  (77) 
-35.8091

>  <r_i_glide_energy>  (77) 
-26.7771

>  <r_i_glide_einternal>  (77) 
4.31243

>  <r_i_glide_intrahb_reward>  (77) 
-0.5

>  <i_i_glide_confnum>  (77) 
2

>  <i_i_glide_posenum>  (77) 
8

>  <r_i_glide_eff_state_penalty>  (77) 
0

>  <ligand_id>  (77) 
29

>  <original_smiles>  (77) 
Cn1c(N)c(C=NC23CC4CC2(C)CC4C3(C)C)c(=O)n(C)c1=O

>  <smiles>  (77) 
[H]C(=NC12C([H])([H])C3([H])C([H])([H])C1(C([H])([H])[H])C([H])([H])C3([H])C2(C([H])([H])[H])C([H])([H])[H])c1c(N([H])[H])n(C([H])([H])[H])c(=O)n(C([H])([H])[H])c1=O

$$$$
29:0:2
     RDKit          3D

 50 53  0  0  1  0  0  0  0  0999 V2000
   -1.5147    1.6701    3.7921 C   0  0  0  0  0  0  0  0  0  0  0  0
   -0.6616    0.5228    3.9616 N   0  0  0  0  0  0  0  0  0  0  0  0
    0.3033    0.1823    2.9897 C   0  0  0  0  0  0  0  0  0  0  0  0
    0.5923    1.1617    2.0458 N   0  0  0  0  0  0  0  0  0  0  0  0
    0.9482   -1.0303    3.0396 C   0  0  0  0  0  0  0  0  0  0  0  0
    2.0252   -1.3872    2.0416 C   0  0  0  0  0  0  0  0  0  0  0  0
    2.7066   -2.4648    1.9974 N   0  0  0  0  0  0  0  0  0  0  0  0
    3.8142   -2.6390    1.0535 C   0  0  2  0  0  0  0  0  0  0  0  0
    3.4551   -2.5515   -0.4260 C   0  0  0  0  0  0  0  0  0  0  0  0
    4.8079   -3.1686   -0.8139 C   0  0  2  0  0  0  0  0  0  0  0  0
    4.4978   -4.5773   -0.3161 C   0  0  0  0  0  0  0  0  0  0  0  0
    4.5025   -4.0879    1.1323 C   0  0  2  0  0  0  0  0  0  0  0  0
    3.9869   -5.1052    2.1584 C   0  0  0  0  0  0  0  0  0  0  0  0
    6.0060   -3.8100    1.1864 C   0  0  0  0  0  0  0  0  0  0  0  0
    5.8496   -2.6084    0.2613 C   0  0  2  0  0  0  0  0  0  0  0  0
    5.0115   -1.6425    1.1393 C   0  0  0  0  0  0  0  0  0  0  0  0
    4.9290   -0.2439    0.4609 C   0  0  0  0  0  0  0  0  0  0  0  0
    5.4866   -1.3766    2.5914 C   0  0  0  0  0  0  0  0  0  0  0  0
    0.5955   -2.0313    4.0859 C   0  0  0  0  0  0  0  0  0  0  0  0
    1.0055   -3.1915    4.1404 O   0  0  0  0  0  0  0  0  0  0  0  0
   -0.3157   -1.5709    5.0698 N   0  0  0  0  0  0  0  0  0  0  0  0
   -0.7243   -2.5224    6.0711 C   0  0  0  0  0  0  0  0  0  0  0  0
   -0.8791   -0.2896    5.0934 C   0  0  0  0  0  0  0  0  0  0  0  0
   -1.5976    0.0807    6.0433 O   0  0  0  0  0  0  0  0  0  0  0  0
   -1.8601    1.6662    2.7594 H   0  0  0  0  0  0  0  0  0  0  0  0
   -0.9056    2.5416    4.0177 H   0  0  0  0  0  0  0  0  0  0  0  0
   -2.3832    1.5841    4.4354 H   0  0  0  0  0  0  0  0  0  0  0  0
    1.2536    1.0537    1.2864 H   0  0  0  0  0  0  0  0  0  0  0  0
    0.0958    2.0378    1.9913 H   0  0  0  0  0  0  0  0  0  0  0  0
    2.2091   -0.5982    1.3107 H   0  0  0  0  0  0  0  0  0  0  0  0
    2.5818   -3.1447   -0.6988 H   0  0  0  0  0  0  0  0  0  0  0  0
    3.2754   -1.5604   -0.8359 H   0  0  0  0  0  0  0  0  0  0  0  0
    5.0856   -3.1062   -1.8684 H   0  0  0  0  0  0  0  0  0  0  0  0
    3.5439   -4.9891   -0.6441 H   0  0  0  0  0  0  0  0  0  0  0  0
    5.2561   -5.3214   -0.5756 H   0  0  0  0  0  0  0  0  0  0  0  0
    4.5383   -6.0454    2.0976 H   0  0  0  0  0  0  0  0  0  0  0  0
    2.9332   -5.3295    1.9906 H   0  0  0  0  0  0  0  0  0  0  0  0
    4.0904   -4.7231    3.1739 H   0  0  0  0  0  0  0  0  0  0  0  0
    6.4040   -3.6146    2.1753 H   0  0  0  0  0  0  0  0  0  0  0  0
    6.6477   -4.5936    0.7745 H   0  0  0  0  0  0  0  0  0  0  0  0
    6.7887   -2.2116   -0.1305 H   0  0  0  0  0  0  0  0  0  0  0  0
    5.7446    0.3915    0.8004 H   0  0  0  0  0  0  0  0  0  0  0  0
    4.0329    0.3154    0.7082 H   0  0  0  0  0  0  0  0  0  0  0  0
    4.9912   -0.2853   -0.6270 H   0  0  0  0  0  0  0  0  0  0  0  0
    6.5502   -1.1369    2.6206 H   0  0  0  0  0  0  0  0  0  0  0  0
    5.2881   -2.2058    3.2720 H   0  0  0  0  0  0  0  0  0  0  0  0
    4.9544   -0.5270    3.0128 H   0  0  0  0  0  0  0  0  0  0  0  0
   -1.6793   -2.2192    6.4740 H   0  0  0  0  0  0  0  0  0  0  0  0
    0.0756   -2.5378    6.8055 H   0  0  0  0  0  0  0  0  0  0  0  0
   -0.8681   -3.4807    5.5844 H   0  0  0  0  0  0  0  0  0  0  0  0
  1  2  1  0
  1 25  1  0
  1 26  1  0
  1 27  1  0
  2 23  1  0
  2  3  1  0
  3  4  1  0
  3  5  2  0
  4 28  1  0
  4 29  1  0
  5  6  1  0
  5 19  1  0
  6  7  2  3
  6 30  1  0
  8  7  1  1
  8 12  1  0
  8 16  1  0
  8  9  1  0
  9 10  1  0
  9 31  1  0
  9 32  1  0
 10 15  1  0
 10 11  1  0
 10 33  1  6
 11 12  1  0
 11 34  1  0
 11 35  1  0
 12 13  1  1
 12 14  1  0
 13 36  1  0
 13 37  1  0
 13 38  1  0
 14 15  1  0
 14 39  1  0
 14 40  1  0
 15 16  1  0
 15 41  1  6
 16 17  1  0
 16 18  1  0
 17 42  1  0
 17 43  1  0
 17 44  1  0
 18 45  1  0
 18 46  1  0
 18 47  1  0
 19 20  2  0
 19 21  1  0
 21 22  1  0
 21 23  1  0
 22 48  1  0
 22 49  1  0
 22 50  1  0
 23 24  2  0
M  END
>  <i_m_ct_stereo_status>  (78) 
1

>  <s_m_source_file>  (78) 
/var/tmp/pbs.5076255.sched01/tmp9stzsw2m/06nqgg2pe.sdf

>  <i_m_source_file_index>  (78) 
39

>  <i_lp_mmshare_version>  (78) 
48012

>  <i_f3d_flags>  (78) 
0

>  <s_epik_input>  (78) 
Tz1jMW4oW0NIM10pYyg9TyljKGMoW05IMl0pbjFbQ0gzXSkvW0NIXT1OL1tDQEBdMjNbQ0BAXTQoW0NIM10pW0NIMl1bQ0BASF0oW0NIMl0yKVtDQEhdKFtDSDJdNClDMyhbQ0gzXSlbQ0gzXQ==

>  <s_epik_cmdline>  (78) 
J2VwaWtfcHl0aG9uJywgJy1waHQnLCAnMi4wJywgJy1waCcsICc3LjAnLCAnLXRuJywgJzgnLCAnLW1hJywgJzIwMCcsICctaW1hZScsICc8aW5maWxlLm1hZT4nLCAnLW9tYWUnLCAnPG91dGZpbGUubWFlPic=

>  <r_lp_tautomer_probability>  (78) 
1

>  <r_epik_Ionization_Penalty>  (78) 
3.67693e-05

>  <r_epik_Ionization_Penalty_Charging>  (78) 
1.65155e-08

>  <r_epik_Ionization_Penalty_Neutral>  (78) 
3.67528e-05

>  <r_epik_State_Penalty>  (78) 
-0

>  <r_epik_Charging_Adjusted_Penalty>  (78) 
1.65155e-08

>  <i_epik_Tot_Q>  (78) 
0

>  <i_epik_Tot_abs_Q>  (78) 
0

>  <s_epik_Chemistry_Notes>  (78) 
This compound has an imine and may undergo hydrolysis.

>  <s_lp_Force_Field>  (78) 
OPLS3e

>  <r_lp_Energy>  (78) 
116.141

>  <b_lp_Chiralities_Consistent>  (78) 
1

>  <s_lp_Variant>  (78) 
29:0-1

>  <s_i_glide_gridfile>  (78) 
pfpi4k_grid

>  <i_i_glide_lignum>  (78) 
39

>  <i_i_glide_rotatable_bonds>  (78) 
2

>  <r_i_docking_score>  (78) 
-3.33754

>  <r_i_glide_ligand_efficiency>  (78) 
-0.139064

>  <r_i_glide_ligand_efficiency_sa>  (78) 
-0.401131

>  <r_i_glide_ligand_efficiency_ln>  (78) 
-0.798827

>  <r_i_glide_gscore>  (78) 
-3.33754

>  <r_i_glide_lipo>  (78) 
-0.528509

>  <r_i_glide_hbond>  (78) 
-0.114288

>  <r_i_glide_metal>  (78) 
-0

>  <r_i_glide_rewards>  (78) 
-1.1562

>  <r_i_glide_evdw>  (78) 
-24.6557

>  <r_i_glide_ecoul>  (78) 
-3.07695

>  <r_i_glide_erotb>  (78) 
0.34453

>  <r_i_glide_esite>  (78) 
-0.18875

>  <r_i_glide_emodel>  (78) 
-33.3941

>  <r_i_glide_energy>  (78) 
-27.7327

>  <r_i_glide_einternal>  (78) 
0.0771902

>  <r_i_glide_intrahb_reward>  (78) 
-0

>  <i_i_glide_confnum>  (78) 
1

>  <i_i_glide_posenum>  (78) 
17

>  <r_i_glide_eff_state_penalty>  (78) 
0

>  <ligand_id>  (78) 
29

>  <original_smiles>  (78) 
Cn1c(N)c(C=NC23CC4CC2(C)CC4C3(C)C)c(=O)n(C)c1=O

>  <smiles>  (78) 
[H]C(=NC12C([H])([H])C3([H])C([H])([H])C1(C([H])([H])[H])C([H])([H])C3([H])C2(C([H])([H])[H])C([H])([H])[H])c1c(N([H])[H])n(C([H])([H])[H])c(=O)n(C([H])([H])[H])c1=O

$$$$
30:0:0
     RDKit          3D

 84 96  0  0  1  0  0  0  0  0999 V2000
    4.6856    4.7653    5.2356 O   0  0  0  0  0  0  0  0  0  0  0  0
    3.4847    4.6603    4.5973 C   0  0  0  0  0  0  0  0  0  0  0  0
    2.9298    5.7957    3.9208 C   0  0  0  0  0  0  0  0  0  0  0  0
    1.5555    5.8472    3.5376 C   0  0  0  0  0  0  0  0  0  0  0  0
    0.7581    4.7109    3.6926 C   0  0  0  0  0  0  0  0  0  0  0  0
    1.4704    3.5729    4.1387 C   0  0  0  0  0  0  0  0  0  0  0  0
    2.7450    3.4653    4.7234 C   0  0  0  0  0  0  0  0  0  0  0  0
    2.9315    2.3604    5.6682 O   0  0  0  0  0  0  0  0  0  0  0  0
    1.9465    1.1509    5.7665 C   0  0  1  0  0  0  0  0  0  0  0  0
    0.3571    0.8208    6.4086 C   0  0  2  0  0  0  0  0  0  0  0  0
   -0.5132    0.0309    5.5532 O   0  0  0  0  0  0  0  0  0  0  0  0
   -1.0665    0.6113    4.3294 C   0  0  0  0  0  0  0  0  0  0  0  0
   -0.6066    2.0897    3.9404 C   0  0  1  0  0  0  0  0  0  0  0  0
   -0.4897    2.0738    2.5201 O   0  0  0  0  0  0  0  0  0  0  0  0
   -1.5182    3.1786    4.4011 C   0  0  2  0  0  0  0  0  0  0  0  0
   -2.7684    3.1308    3.7252 O   0  0  0  0  0  0  0  0  0  0  0  0
   -0.8230    4.5653    3.8665 C   0  0  0  0  0  0  0  0  0  0  0  0
   -1.8243    2.6478    5.9264 C   0  0  2  0  0  0  0  0  0  0  0  0
   -2.6586    3.4740    6.8833 C   0  0  0  0  0  0  0  0  0  0  0  0
   -2.7330    2.6148    8.1581 C   0  0  0  0  0  0  0  0  0  0  0  0
   -1.6586    1.5066    8.0419 C   0  0  0  0  0  0  0  0  0  0  0  0
   -0.7246    1.9278    6.8988 C   0  0  1  0  0  0  0  0  0  0  0  0
    0.1957    2.9115    7.4249 C   0  0  0  0  0  0  0  0  0  0  0  0
    0.6086    3.4530    6.1224 C   0  0  0  0  0  0  0  0  0  0  0  0
    0.7134    2.5052    4.6373 C   0  0  2  0  0  0  0  0  0  0  0  0
    1.6257    1.1937    4.3672 C   0  0  1  0  0  0  0  0  0  0  0  0
    2.7359    1.0303    3.2549 C   0  0  0  0  0  0  0  0  0  0  0  0
    3.6731   -0.1878    3.5016 C   0  0  0  0  0  0  0  0  0  0  0  0
    4.5917   -0.3933    2.2902 C   0  0  0  0  0  0  0  0  0  0  0  0
    5.5524   -1.5412    2.5173 N   0  0  0  0  0  0  0  0  0  0  0  0
    6.1742   -2.0405    1.2509 C   0  0  0  0  0  0  0  0  0  0  0  0
    5.1536   -2.6310    0.2515 C   0  0  2  0  0  0  0  0  0  0  0  0
    5.8201   -3.5201   -0.9219 C   0  0  2  0  0  0  0  0  0  0  0  0
    6.2714   -2.6440   -2.1575 C   0  0  2  0  0  0  0  0  0  0  0  0
    5.5625   -1.3644   -1.7116 C   0  0  1  0  0  0  0  0  0  0  0  0
    4.4235   -1.5305   -0.6679 C   0  0  1  0  0  0  0  0  0  0  0  0
    3.4354   -2.1301   -1.8803 C   0  0  2  0  0  0  0  0  0  0  0  0
    2.7717   -1.1079   -2.5394 O   0  0  0  0  0  0  0  0  0  0  0  0
    3.7528   -3.3836   -2.8336 C   0  0  2  0  0  0  0  0  0  0  0  0
    4.6074   -3.9753   -1.6829 C   0  0  2  0  0  0  0  0  0  0  0  0
    4.7383   -2.4789   -2.1307 C   0  0  2  0  0  0  0  0  0  0  0  0
    5.1498   -2.8262   -3.3564 C   0  0  2  0  0  0  0  0  0  0  0  0
    5.1300    5.5748    5.0285 H   0  0  0  0  0  0  0  0  0  0  0  0
    3.5195    6.6916    3.8450 H   0  0  0  0  0  0  0  0  0  0  0  0
    1.1175    6.8121    3.2581 H   0  0  0  0  0  0  0  0  0  0  0  0
    2.5682    0.2869    5.9964 H   0  0  0  0  0  0  0  0  0  0  0  0
    0.5546    0.2012    7.2733 H   0  0  0  0  0  0  0  0  0  0  0  0
   -0.7834   -0.0774    3.5338 H   0  0  0  0  0  0  0  0  0  0  0  0
   -2.1471    0.4808    4.3103 H   0  0  0  0  0  0  0  0  0  0  0  0
   -0.1966    2.9250    2.2040 H   0  0  0  0  0  0  0  0  0  0  0  0
   -2.8879    2.2732    3.3333 H   0  0  0  0  0  0  0  0  0  0  0  0
   -1.1570    5.3790    4.4905 H   0  0  0  0  0  0  0  0  0  0  0  0
   -1.2214    4.7807    2.8762 H   0  0  0  0  0  0  0  0  0  0  0  0
   -2.5573    1.8621    5.7645 H   0  0  0  0  0  0  0  0  0  0  0  0
   -2.2076    4.4351    7.1152 H   0  0  0  0  0  0  0  0  0  0  0  0
   -3.6313    3.6181    6.4322 H   0  0  0  0  0  0  0  0  0  0  0  0
   -2.5975    3.2215    9.0520 H   0  0  0  0  0  0  0  0  0  0  0  0
   -3.7231    2.1886    8.2479 H   0  0  0  0  0  0  0  0  0  0  0  0
   -1.1455    1.3492    8.9905 H   0  0  0  0  0  0  0  0  0  0  0  0
   -2.1342    0.5792    7.7481 H   0  0  0  0  0  0  0  0  0  0  0  0
   -0.2612    3.6772    8.0490 H   0  0  0  0  0  0  0  0  0  0  0  0
    1.0125    2.4771    7.9981 H   0  0  0  0  0  0  0  0  0  0  0  0
   -0.0013    4.3452    6.0417 H   0  0  0  0  0  0  0  0  0  0  0  0
    1.4711    3.9890    6.5036 H   0  0  0  0  0  0  0  0  0  0  0  0
    1.1900    0.2306    4.1691 H   0  0  0  0  0  0  0  0  0  0  0  0
    2.2112    0.9261    2.3046 H   0  0  0  0  0  0  0  0  0  0  0  0
    3.3916    1.8737    3.0676 H   0  0  0  0  0  0  0  0  0  0  0  0
    4.2351   -0.0679    4.4442 H   0  0  0  0  0  0  0  0  0  0  0  0
    3.0559   -1.0983    3.5703 H   0  0  0  0  0  0  0  0  0  0  0  0
    3.8862   -0.6352    1.5249 H   0  0  0  0  0  0  0  0  0  0  0  0
    5.1817    0.4960    2.0361 H   0  0  0  0  0  0  0  0  0  0  0  0
    6.3012   -1.2595    3.1454 H   0  0  0  0  0  0  0  0  0  0  0  0
    6.8099   -1.2811    0.7971 H   0  0  0  0  0  0  0  0  0  0  0  0
    6.8727   -2.8322    1.5522 H   0  0  0  0  0  0  0  0  0  0  0  0
    4.4560   -3.2740    0.7896 H   0  0  0  0  0  0  0  0  0  0  0  0
    6.5049   -4.3405   -0.6420 H   0  0  0  0  0  0  0  0  0  0  0  0
    7.3355   -2.5583   -2.4092 H   0  0  0  0  0  0  0  0  0  0  0  0
    5.5035   -0.4973   -2.3699 H   0  0  0  0  0  0  0  0  0  0  0  0
    4.1129   -0.5713   -0.2888 H   0  0  0  0  0  0  0  0  0  0  0  0
    1.9847   -1.0167   -2.0127 H   0  0  0  0  0  0  0  0  0  0  0  0
    2.9917   -3.9080   -3.4385 H   0  0  0  0  0  0  0  0  0  0  0  0
    4.9733   -4.8050   -2.2870 H   0  0  0  0  0  0  0  0  0  0  0  0
    4.9738   -1.9670   -3.9947 H   0  0  0  0  0  0  0  0  0  0  0  0
    5.0328   -2.3137    2.9290 H   0  0  0  0  0  0  0  0  0  0  0  0
  1  2  1  0
  1 43  1  0
  2  7  2  0
  2  3  1  0
  3  4  2  0
  3 44  1  0
  4  5  1  0
  4 45  1  0
  5 17  1  0
  5  6  2  0
  6 25  1  0
  6  7  1  0
  7  8  1  0
  8  9  1  0
  9 26  1  0
  9 10  1  0
  9 46  1  6
 10 22  1  0
 10 11  1  0
 10 47  1  1
 11 12  1  0
 12 13  1  0
 12 48  1  0
 12 49  1  0
 13 25  1  0
 13 14  1  6
 13 15  1  0
 14 50  1  0
 15 16  1  6
 15 17  1  0
 15 18  1  0
 16 51  1  0
 17 52  1  0
 17 53  1  0
 18 22  1  0
 18 19  1  0
 18 54  1  6
 19 20  1  0
 19 55  1  0
 19 56  1  0
 20 21  1  0
 20 57  1  0
 20 58  1  0
 22 21  1  1
 21 59  1  0
 21 60  1  0
 22 23  1  0
 23 24  1  0
 23 61  1  0
 23 62  1  0
 25 24  1  1
 24 63  1  0
 24 64  1  0
 25 26  1  0
 26 27  1  0
 26 65  1  1
 27 28  1  0
 27 66  1  0
 27 67  1  0
 28 29  1  0
 28 68  1  0
 28 69  1  0
 29 30  1  0
 29 70  1  0
 29 71  1  0
 30 31  1  0
 30 72  1  0
 30 84  1  0
 31 32  1  0
 31 73  1  0
 31 74  1  0
 32 36  1  0
 32 33  1  0
 32 75  1  1
 33 40  1  0
 33 34  1  0
 33 76  1  1
 34 42  1  0
 34 35  1  0
 34 77  1  6
 35 41  1  0
 35 36  1  0
 35 78  1  6
 36 37  1  0
 36 79  1  1
 41 37  1  6
 37 38  1  6
 37 39  1  0
 38 80  1  0
 39 42  1  0
 39 40  1  0
 39 81  1  6
 40 41  1  0
 40 82  1  1
 41 42  1  0
 42 83  1  6
M  CHG  1  30   1
M  END
>  <i_m_ct_stereo_status>  (79) 
1

>  <s_m_source_file>  (79) 
/var/tmp/pbs.5076255.sched01/tmp9stzsw2m/06nqgg2pe.sdf

>  <i_m_source_file_index>  (79) 
41

>  <i_lp_mmshare_version>  (79) 
48012

>  <i_f3d_flags>  (79) 
0

>  <s_epik_input>  (79) 
W09IXWMxW2NIXVtjSF1jMltDSDJdW0NAXShbT0hdKShbQ0BASF0zW0NIMl1bQ0gyXVtDSDJdNClbQ0BAXShbQ0gyXU81KShbT0hdKVtDQF0oW0NIMl1bQ0gyXTYpKGMyYzFPW0NASF03W0NASF01W0NAQF0zNDYpW0NASF03W0NIMl1bQ0gyXVtDSDJdW05IXVtDSDJdW0NASF04W0NAQEhdOVtDQF0xKFtPSF0pW0NAQEhdKFtDQEhdMjMpW0NASF00W0NASF04W0NAQEhdMltDQEhdOVtDQEBdMTM0

>  <s_epik_cmdline>  (79) 
J2VwaWtfcHl0aG9uJywgJy1waHQnLCAnMi4wJywgJy1waCcsICc3LjAnLCAnLXRuJywgJzgnLCAnLW1hJywgJzIwMCcsICctaW1hZScsICc8aW5maWxlLm1hZT4nLCAnLW9tYWUnLCAnPG91dGZpbGUubWFlPic=

>  <r_lp_tautomer_probability>  (79) 
1

>  <r_epik_Ionization_Penalty>  (79) 
0.000172558

>  <r_epik_Ionization_Penalty_Charging>  (79) 
0.000128034

>  <r_epik_Ionization_Penalty_Neutral>  (79) 
4.45242e-05

>  <r_epik_State_Penalty>  (79) 
-0

>  <r_epik_Charging_Adjusted_Penalty>  (79) 
0.000128034

>  <i_epik_Tot_Q>  (79) 
1

>  <i_epik_Tot_abs_Q>  (79) 
1

>  <s_lp_Force_Field>  (79) 
OPLS3e

>  <r_lp_Energy>  (79) 
708.797

>  <b_lp_Chiralities_Consistent>  (79) 
1

>  <s_lp_Variant>  (79) 
30:0-1

>  <s_i_glide_gridfile>  (79) 
pfpi4k_grid

>  <i_i_glide_lignum>  (79) 
41

>  <i_i_glide_rotatable_bonds>  (79) 
10

>  <r_i_docking_score>  (79) 
-3.11272

>  <r_i_glide_ligand_efficiency>  (79) 
-0.0741125

>  <r_i_glide_ligand_efficiency_sa>  (79) 
-0.257617

>  <r_i_glide_ligand_efficiency_ln>  (79) 
-0.657016

>  <r_i_glide_gscore>  (79) 
-3.11272

>  <r_i_glide_lipo>  (79) 
-0.814719

>  <r_i_glide_hbond>  (79) 
-0.151201

>  <r_i_glide_metal>  (79) 
-0

>  <r_i_glide_rewards>  (79) 
0

>  <r_i_glide_evdw>  (79) 
-26.7391

>  <r_i_glide_ecoul>  (79) 
-7.32614

>  <r_i_glide_erotb>  (79) 
0.289075

>  <r_i_glide_esite>  (79) 
0

>  <r_i_glide_emodel>  (79) 
-38.2753

>  <r_i_glide_energy>  (79) 
-34.0653

>  <r_i_glide_einternal>  (79) 
4.46429

>  <r_i_glide_intrahb_reward>  (79) 
-0

>  <i_i_glide_confnum>  (79) 
5

>  <i_i_glide_posenum>  (79) 
23

>  <r_i_glide_eff_state_penalty>  (79) 
0

>  <ligand_id>  (79) 
30

>  <original_smiles>  (79) 
Oc1ccc2c3c1OC1C4OCC5(O)C(O)(C2)C2CCCC42CCC35C1CCCNCC1C2C3C4C1C1(O)C5C2C41C35

>  <smiles>  (79) 
[H]Oc1c([H])c([H])c2c3c1OC1([H])C4([H])OC([H])([H])C5(O[H])C(O[H])(C2([H])[H])C2([H])C([H])([H])C([H])([H])C([H])([H])C42C([H])([H])C([H])([H])C35C1([H])C([H])([H])C([H])([H])C([H])([H])[N+]([H])([H])C([H])([H])C1([H])C2([H])C3([H])C4([H])C5([H])C2([H])C42C3([H])C1([H])C52O[H]

$$$$
30:0:1
     RDKit          3D

 84 96  0  0  1  0  0  0  0  0999 V2000
    5.2341    4.2532    5.6981 O   0  0  0  0  0  0  0  0  0  0  0  0
    4.0265    4.3271    5.0657 C   0  0  0  0  0  0  0  0  0  0  0  0
    3.6249    5.5358    4.4284 C   0  0  0  0  0  0  0  0  0  0  0  0
    2.3066    5.7381    3.9101 C   0  0  0  0  0  0  0  0  0  0  0  0
    1.3907    4.6613    3.9211 C   0  0  0  0  0  0  0  0  0  0  0  0
    1.9447    3.4735    4.4089 C   0  0  0  0  0  0  0  0  0  0  0  0
    3.1498    3.2099    5.1099 C   0  0  0  0  0  0  0  0  0  0  0  0
    3.1494    2.0646    6.0184 O   0  0  0  0  0  0  0  0  0  0  0  0
    2.0494    0.9523    5.9906 C   0  0  1  0  0  0  0  0  0  0  0  0
    0.3820    0.7602    6.4765 C   0  0  2  0  0  0  0  0  0  0  0  0
   -0.4711    0.0842    5.5197 O   0  0  0  0  0  0  0  0  0  0  0  0
   -0.8636    0.7504    4.2746 C   0  0  0  0  0  0  0  0  0  0  0  0
   -0.2370    2.1918    3.9827 C   0  0  1  0  0  0  0  0  0  0  0  0
    0.0074    2.1890    2.5799 O   0  0  0  0  0  0  0  0  0  0  0  0
   -1.0802    3.3583    4.4011 C   0  0  2  0  0  0  0  0  0  0  0  0
   -2.2683    3.4576    3.6304 O   0  0  0  0  0  0  0  0  0  0  0  0
   -0.2071    4.6960    3.9863 C   0  0  0  0  0  0  0  0  0  0  0  0
   -1.5837    2.8091    5.8695 C   0  0  2  0  0  0  0  0  0  0  0  0
   -2.4327    3.6757    6.7871 C   0  0  0  0  0  0  0  0  0  0  0  0
   -2.6944    2.7840    8.0169 C   0  0  0  0  0  0  0  0  0  0  0  0
   -1.7123    1.5855    7.9526 C   0  0  0  0  0  0  0  0  0  0  0  0
   -0.6425    1.9508    6.9064 C   0  0  1  0  0  0  0  0  0  0  0  0
    0.3215    2.8239    7.5514 C   0  0  0  0  0  0  0  0  0  0  0  0
    0.9026    3.3629    6.3090 C   0  0  0  0  0  0  0  0  0  0  0  0
    1.0526    2.4583    4.8072 C   0  0  2  0  0  0  0  0  0  0  0  0
    1.8596    1.0715    4.5711 C   0  0  1  0  0  0  0  0  0  0  0  0
    3.0416    0.8273    3.5499 C   0  0  0  0  0  0  0  0  0  0  0  0
    3.7153   -0.5643    3.6912 C   0  0  0  0  0  0  0  0  0  0  0  0
    4.6715   -0.8278    2.5163 C   0  0  0  0  0  0  0  0  0  0  0  0
    5.3563   -2.1644    2.6533 N   0  0  0  0  0  0  0  0  0  0  0  0
    6.0420   -2.6262    1.4001 C   0  0  0  0  0  0  0  0  0  0  0  0
    5.0505   -3.1034    0.3122 C   0  0  2  0  0  0  0  0  0  0  0  0
    5.7670   -3.8504   -0.9271 C   0  0  2  0  0  0  0  0  0  0  0  0
    6.2685   -2.8495   -2.0322 C   0  0  2  0  0  0  0  0  0  0  0  0
    5.5359   -1.6294   -1.4657 C   0  0  1  0  0  0  0  0  0  0  0  0
    4.3403   -1.9296   -0.5187 C   0  0  1  0  0  0  0  0  0  0  0  0
    3.4036   -2.3698   -1.8227 C   0  0  2  0  0  0  0  0  0  0  0  0
    2.7357   -1.2700   -2.3524 O   0  0  0  0  0  0  0  0  0  0  0  0
    3.7800   -3.5045   -2.9026 C   0  0  2  0  0  0  0  0  0  0  0  0
    4.5914   -4.2147   -1.7867 C   0  0  2  0  0  0  0  0  0  0  0  0
    4.7242   -2.6691   -2.0627 C   0  0  2  0  0  0  0  0  0  0  0  0
    5.2071   -2.9027   -3.2911 C   0  0  2  0  0  0  0  0  0  0  0  0
    5.7235    5.0649    5.6745 H   0  0  0  0  0  0  0  0  0  0  0  0
    4.3065    6.3765    4.4294 H   0  0  0  0  0  0  0  0  0  0  0  0
    1.9849    6.7376    3.6297 H   0  0  0  0  0  0  0  0  0  0  0  0
    2.5775    0.0319    6.2352 H   0  0  0  0  0  0  0  0  0  0  0  0
    0.4411    0.0923    7.3284 H   0  0  0  0  0  0  0  0  0  0  0  0
   -0.5759    0.0582    3.4803 H   0  0  0  0  0  0  0  0  0  0  0  0
   -1.9467    0.7279    4.1494 H   0  0  0  0  0  0  0  0  0  0  0  0
    0.2173    3.0667    2.2672 H   0  0  0  0  0  0  0  0  0  0  0  0
   -2.0338    3.4606    2.7101 H   0  0  0  0  0  0  0  0  0  0  0  0
   -0.5319    5.5440    4.5830 H   0  0  0  0  0  0  0  0  0  0  0  0
   -0.4829    4.9732    2.9717 H   0  0  0  0  0  0  0  0  0  0  0  0
   -2.3753    2.1107    5.6081 H   0  0  0  0  0  0  0  0  0  0  0  0
   -1.8762    4.5501    7.0953 H   0  0  0  0  0  0  0  0  0  0  0  0
   -3.3589    3.9863    6.3097 H   0  0  0  0  0  0  0  0  0  0  0  0
   -2.5694    3.3512    8.9390 H   0  0  0  0  0  0  0  0  0  0  0  0
   -3.7288    2.4489    8.0195 H   0  0  0  0  0  0  0  0  0  0  0  0
   -1.2990    1.3507    8.9348 H   0  0  0  0  0  0  0  0  0  0  0  0
   -2.2564    0.7135    7.6035 H   0  0  0  0  0  0  0  0  0  0  0  0
   -0.1121    3.6097    8.1665 H   0  0  0  0  0  0  0  0  0  0  0  0
    1.0408    2.3005    8.1809 H   0  0  0  0  0  0  0  0  0  0  0  0
    0.3908    4.3112    6.2120 H   0  0  0  0  0  0  0  0  0  0  0  0
    1.7759    3.8020    6.7825 H   0  0  0  0  0  0  0  0  0  0  0  0
    1.3498    0.1668    4.2937 H   0  0  0  0  0  0  0  0  0  0  0  0
    2.6221    0.9489    2.5475 H   0  0  0  0  0  0  0  0  0  0  0  0
    3.8598    1.5384    3.5683 H   0  0  0  0  0  0  0  0  0  0  0  0
    4.2491   -0.6414    4.6530 H   0  0  0  0  0  0  0  0  0  0  0  0
    2.9422   -1.3445    3.6565 H   0  0  0  0  0  0  0  0  0  0  0  0
    3.9794   -0.8437    1.7272 H   0  0  0  0  0  0  0  0  0  0  0  0
    5.4331   -0.0433    2.3747 H   0  0  0  0  0  0  0  0  0  0  0  0
    6.0612   -2.0953    3.3959 H   0  0  0  0  0  0  0  0  0  0  0  0
    6.7290   -1.8641    1.0422 H   0  0  0  0  0  0  0  0  0  0  0  0
    6.6819   -3.4574    1.6943 H   0  0  0  0  0  0  0  0  0  0  0  0
    4.3355   -3.8020    0.7631 H   0  0  0  0  0  0  0  0  0  0  0  0
    6.4373   -4.6869   -0.6985 H   0  0  0  0  0  0  0  0  0  0  0  0
    7.3353   -2.7376   -2.2461 H   0  0  0  0  0  0  0  0  0  0  0  0
    5.5274   -0.6745   -2.0036 H   0  0  0  0  0  0  0  0  0  0  0  0
    3.9313   -1.0339   -0.0857 H   0  0  0  0  0  0  0  0  0  0  0  0
    1.9767   -1.1442   -1.7861 H   0  0  0  0  0  0  0  0  0  0  0  0
    3.0414   -3.9770   -3.5746 H   0  0  0  0  0  0  0  0  0  0  0  0
    5.0026   -4.9847   -2.4405 H   0  0  0  0  0  0  0  0  0  0  0  0
    5.1117   -1.9922   -3.8562 H   0  0  0  0  0  0  0  0  0  0  0  0
    4.6683   -2.8779    2.9101 H   0  0  0  0  0  0  0  0  0  0  0  0
  1  2  1  0
  1 43  1  0
  2  7  2  0
  2  3  1  0
  3  4  2  0
  3 44  1  0
  4  5  1  0
  4 45  1  0
  5 17  1  0
  5  6  2  0
  6 25  1  0
  6  7  1  0
  7  8  1  0
  8  9  1  0
  9 26  1  0
  9 10  1  0
  9 46  1  6
 10 22  1  0
 10 11  1  0
 10 47  1  1
 11 12  1  0
 12 13  1  0
 12 48  1  0
 12 49  1  0
 13 25  1  0
 13 14  1  6
 13 15  1  0
 14 50  1  0
 15 16  1  6
 15 17  1  0
 15 18  1  0
 16 51  1  0
 17 52  1  0
 17 53  1  0
 18 22  1  0
 18 19  1  0
 18 54  1  6
 19 20  1  0
 19 55  1  0
 19 56  1  0
 20 21  1  0
 20 57  1  0
 20 58  1  0
 22 21  1  1
 21 59  1  0
 21 60  1  0
 22 23  1  0
 23 24  1  0
 23 61  1  0
 23 62  1  0
 25 24  1  1
 24 63  1  0
 24 64  1  0
 25 26  1  0
 26 27  1  0
 26 65  1  6
 27 28  1  0
 27 66  1  0
 27 67  1  0
 28 29  1  0
 28 68  1  0
 28 69  1  0
 29 30  1  0
 29 70  1  0
 29 71  1  0
 30 31  1  0
 30 72  1  0
 30 84  1  0
 31 32  1  0
 31 73  1  0
 31 74  1  0
 32 36  1  0
 32 33  1  0
 32 75  1  1
 33 40  1  0
 33 34  1  0
 33 76  1  1
 34 42  1  0
 34 35  1  0
 34 77  1  6
 35 41  1  0
 35 36  1  0
 35 78  1  6
 36 37  1  0
 36 79  1  1
 41 37  1  6
 37 38  1  6
 37 39  1  0
 38 80  1  0
 39 42  1  0
 39 40  1  0
 39 81  1  6
 40 41  1  0
 40 82  1  1
 41 42  1  0
 42 83  1  6
M  CHG  1  30   1
M  END
>  <i_m_ct_stereo_status>  (80) 
1

>  <s_m_source_file>  (80) 
/var/tmp/pbs.5076255.sched01/tmp9stzsw2m/06nqgg2pe.sdf

>  <i_m_source_file_index>  (80) 
41

>  <i_lp_mmshare_version>  (80) 
48012

>  <i_f3d_flags>  (80) 
0

>  <s_epik_input>  (80) 
W09IXWMxW2NIXVtjSF1jMltDSDJdW0NAXShbT0hdKShbQ0BASF0zW0NIMl1bQ0gyXVtDSDJdNClbQ0BAXShbQ0gyXU81KShbT0hdKVtDQF0oW0NIMl1bQ0gyXTYpKGMyYzFPW0NASF03W0NASF01W0NAQF0zNDYpW0NASF03W0NIMl1bQ0gyXVtDSDJdW05IXVtDSDJdW0NASF04W0NAQEhdOVtDQF0xKFtPSF0pW0NAQEhdKFtDQEhdMjMpW0NASF00W0NASF04W0NAQEhdMltDQEhdOVtDQEBdMTM0

>  <s_epik_cmdline>  (80) 
J2VwaWtfcHl0aG9uJywgJy1waHQnLCAnMi4wJywgJy1waCcsICc3LjAnLCAnLXRuJywgJzgnLCAnLW1hJywgJzIwMCcsICctaW1hZScsICc8aW5maWxlLm1hZT4nLCAnLW9tYWUnLCAnPG91dGZpbGUubWFlPic=

>  <r_lp_tautomer_probability>  (80) 
1

>  <r_epik_Ionization_Penalty>  (80) 
0.000172558

>  <r_epik_Ionization_Penalty_Charging>  (80) 
0.000128034

>  <r_epik_Ionization_Penalty_Neutral>  (80) 
4.45242e-05

>  <r_epik_State_Penalty>  (80) 
-0

>  <r_epik_Charging_Adjusted_Penalty>  (80) 
0.000128034

>  <i_epik_Tot_Q>  (80) 
1

>  <i_epik_Tot_abs_Q>  (80) 
1

>  <s_lp_Force_Field>  (80) 
OPLS3e

>  <r_lp_Energy>  (80) 
708.797

>  <b_lp_Chiralities_Consistent>  (80) 
1

>  <s_lp_Variant>  (80) 
30:0-1

>  <s_i_glide_gridfile>  (80) 
pfpi4k_grid

>  <i_i_glide_lignum>  (80) 
41

>  <i_i_glide_rotatable_bonds>  (80) 
10

>  <r_i_docking_score>  (80) 
-3.11088

>  <r_i_glide_ligand_efficiency>  (80) 
-0.0740685

>  <r_i_glide_ligand_efficiency_sa>  (80) 
-0.257464

>  <r_i_glide_ligand_efficiency_ln>  (80) 
-0.656626

>  <r_i_glide_gscore>  (80) 
-3.11088

>  <r_i_glide_lipo>  (80) 
-0.715456

>  <r_i_glide_hbond>  (80) 
-0.152778

>  <r_i_glide_metal>  (80) 
-0

>  <r_i_glide_rewards>  (80) 
0

>  <r_i_glide_evdw>  (80) 
-24.6218

>  <r_i_glide_ecoul>  (80) 
-8.67084

>  <r_i_glide_erotb>  (80) 
0.289075

>  <r_i_glide_esite>  (80) 
0

>  <r_i_glide_emodel>  (80) 
-38.5227

>  <r_i_glide_energy>  (80) 
-33.2926

>  <r_i_glide_einternal>  (80) 
3.33072

>  <r_i_glide_intrahb_reward>  (80) 
-0

>  <i_i_glide_confnum>  (80) 
5

>  <i_i_glide_posenum>  (80) 
13

>  <r_i_glide_eff_state_penalty>  (80) 
0

>  <ligand_id>  (80) 
30

>  <original_smiles>  (80) 
Oc1ccc2c3c1OC1C4OCC5(O)C(O)(C2)C2CCCC42CCC35C1CCCNCC1C2C3C4C1C1(O)C5C2C41C35

>  <smiles>  (80) 
[H]Oc1c([H])c([H])c2c3c1OC1([H])C4([H])OC([H])([H])C5(O[H])C(O[H])(C2([H])[H])C2([H])C([H])([H])C([H])([H])C([H])([H])C42C([H])([H])C([H])([H])C35C1([H])C([H])([H])C([H])([H])C([H])([H])[N+]([H])([H])C([H])([H])C1([H])C2([H])C3([H])C4([H])C5([H])C2([H])C42C3([H])C1([H])C52O[H]

$$$$
30:0:2
     RDKit          3D

 84 96  0  0  1  0  0  0  0  0999 V2000
    5.2458    4.4485    6.0195 O   0  0  0  0  0  0  0  0  0  0  0  0
    4.0803    4.4724    5.3086 C   0  0  0  0  0  0  0  0  0  0  0  0
    3.6751    5.6563    4.6288 C   0  0  0  0  0  0  0  0  0  0  0  0
    2.3954    5.8049    4.0188 C   0  0  0  0  0  0  0  0  0  0  0  0
    1.5212    4.6871    4.0002 C   0  0  0  0  0  0  0  0  0  0  0  0
    2.0915    3.5278    4.5219 C   0  0  0  0  0  0  0  0  0  0  0  0
    3.2522    3.3312    5.3123 C   0  0  0  0  0  0  0  0  0  0  0  0
    3.2303    2.2045    6.2472 O   0  0  0  0  0  0  0  0  0  0  0  0
    2.1833    1.0395    6.1603 C   0  0  1  0  0  0  0  0  0  0  0  0
    0.4877    0.7801    6.5251 C   0  0  2  0  0  0  0  0  0  0  0  0
   -0.2777    0.0548    5.5207 O   0  0  0  0  0  0  0  0  0  0  0  0
   -0.5988    0.6978    4.2444 C   0  0  0  0  0  0  0  0  0  0  0  0
   -0.0081    2.1580    3.9697 C   0  0  1  0  0  0  0  0  0  0  0  0
    0.3359    2.1413    2.5842 O   0  0  0  0  0  0  0  0  0  0  0  0
   -0.9260    3.2971    4.3138 C   0  0  2  0  0  0  0  0  0  0  0  0
   -2.0586    3.3194    3.4587 O   0  0  0  0  0  0  0  0  0  0  0  0
   -0.0786    4.6649    3.9393 C   0  0  0  0  0  0  0  0  0  0  0  0
   -1.5085    2.7488    5.7505 C   0  0  2  0  0  0  0  0  0  0  0  0
   -2.4498    3.5981    6.5938 C   0  0  0  0  0  0  0  0  0  0  0  0
   -2.7597    2.7052    7.8101 C   0  0  0  0  0  0  0  0  0  0  0  0
   -1.7365    1.5451    7.8317 C   0  0  0  0  0  0  0  0  0  0  0  0
   -0.6110    1.9383    6.8612 C   0  0  1  0  0  0  0  0  0  0  0  0
    0.2673    2.8568    7.5629 C   0  0  0  0  0  0  0  0  0  0  0  0
    0.9177    3.4082    6.3580 C   0  0  0  0  0  0  0  0  0  0  0  0
    1.2106    2.4861    4.8813 C   0  0  2  0  0  0  0  0  0  0  0  0
    2.0858    1.1329    4.7296 C   0  0  1  0  0  0  0  0  0  0  0  0
    3.3476    0.9267    3.7992 C   0  0  0  0  0  0  0  0  0  0  0  0
    3.9794   -0.4915    3.9004 C   0  0  0  0  0  0  0  0  0  0  0  0
    4.8451   -0.7933    2.6752 C   0  0  0  0  0  0  0  0  0  0  0  0
    5.3907   -2.1835    2.7009 N   0  0  0  0  0  0  0  0  0  0  0  0
    6.0794   -2.6101    1.4447 C   0  0  0  0  0  0  0  0  0  0  0  0
    5.0853   -3.0594    0.3505 C   0  0  2  0  0  0  0  0  0  0  0  0
    5.7930   -3.8288   -0.8854 C   0  0  2  0  0  0  0  0  0  0  0  0
    6.3414   -2.8272   -1.9828 C   0  0  2  0  0  0  0  0  0  0  0  0
    5.6293   -1.5916   -1.4358 C   0  0  1  0  0  0  0  0  0  0  0  0
    4.4330   -1.8741   -0.4967 C   0  0  1  0  0  0  0  0  0  0  0  0
    3.5033   -2.2697   -1.7985 C   0  0  2  0  0  0  0  0  0  0  0  0
    2.9296   -1.1303   -2.3524 O   0  0  0  0  0  0  0  0  0  0  0  0
    3.8472   -3.4158   -2.8620 C   0  0  2  0  0  0  0  0  0  0  0  0
    4.6232   -4.1741   -1.7531 C   0  0  2  0  0  0  0  0  0  0  0  0
    4.8120   -2.6422   -2.0099 C   0  0  2  0  0  0  0  0  0  0  0  0
    5.2890   -2.8430   -3.2498 C   0  0  2  0  0  0  0  0  0  0  0  0
    5.3847    3.6291    6.4763 H   0  0  0  0  0  0  0  0  0  0  0  0
    4.3279    6.5120    4.6821 H   0  0  0  0  0  0  0  0  0  0  0  0
    2.0571    6.7824    3.7044 H   0  0  0  0  0  0  0  0  0  0  0  0
    2.7120    0.1266    6.4435 H   0  0  0  0  0  0  0  0  0  0  0  0
    0.5131    0.1359    7.4015 H   0  0  0  0  0  0  0  0  0  0  0  0
   -0.2229    0.0125    3.4855 H   0  0  0  0  0  0  0  0  0  0  0  0
   -1.6652    0.6288    4.0463 H   0  0  0  0  0  0  0  0  0  0  0  0
    0.4073    3.0312    2.2608 H   0  0  0  0  0  0  0  0  0  0  0  0
   -1.7507    3.3358    2.5602 H   0  0  0  0  0  0  0  0  0  0  0  0
   -0.4765    5.4972    4.5129 H   0  0  0  0  0  0  0  0  0  0  0  0
   -0.3020    4.9106    2.9018 H   0  0  0  0  0  0  0  0  0  0  0  0
   -2.2475    2.0083    5.4447 H   0  0  0  0  0  0  0  0  0  0  0  0
   -1.9630    4.5160    6.9138 H   0  0  0  0  0  0  0  0  0  0  0  0
   -3.3602    3.8417    6.0507 H   0  0  0  0  0  0  0  0  0  0  0  0
   -2.7258    3.2833    8.7307 H   0  0  0  0  0  0  0  0  0  0  0  0
   -3.7677    2.3112    7.7308 H   0  0  0  0  0  0  0  0  0  0  0  0
   -1.3787    1.3412    8.8425 H   0  0  0  0  0  0  0  0  0  0  0  0
   -2.2150    0.6487    7.4465 H   0  0  0  0  0  0  0  0  0  0  0  0
   -0.2405    3.6369    8.1306 H   0  0  0  0  0  0  0  0  0  0  0  0
    0.9627    2.3664    8.2474 H   0  0  0  0  0  0  0  0  0  0  0  0
    0.3734    4.3351    6.2092 H   0  0  0  0  0  0  0  0  0  0  0  0
    1.7355    3.8847    6.8975 H   0  0  0  0  0  0  0  0  0  0  0  0
    1.6249    0.2134    4.4222 H   0  0  0  0  0  0  0  0  0  0  0  0
    3.0077    1.1150    2.7804 H   0  0  0  0  0  0  0  0  0  0  0  0
    4.1808    1.6107    3.9288 H   0  0  0  0  0  0  0  0  0  0  0  0
    4.5568   -0.5920    4.8281 H   0  0  0  0  0  0  0  0  0  0  0  0
    3.1889   -1.2531    3.9159 H   0  0  0  0  0  0  0  0  0  0  0  0
    4.1380   -0.6838    1.8542 H   0  0  0  0  0  0  0  0  0  0  0  0
    5.6640   -0.0831    2.5393 H   0  0  0  0  0  0  0  0  0  0  0  0
    6.0686   -2.2499    3.4458 H   0  0  0  0  0  0  0  0  0  0  0  0
    6.7780   -1.8465    1.0912 H   0  0  0  0  0  0  0  0  0  0  0  0
    6.7131   -3.4675    1.7024 H   0  0  0  0  0  0  0  0  0  0  0  0
    4.3449   -3.7404    0.7749 H   0  0  0  0  0  0  0  0  0  0  0  0
    6.4359   -4.6798   -0.6524 H   0  0  0  0  0  0  0  0  0  0  0  0
    7.4175   -2.7562   -2.1909 H   0  0  0  0  0  0  0  0  0  0  0  0
    5.6161   -0.6734   -2.0233 H   0  0  0  0  0  0  0  0  0  0  0  0
    4.0421   -0.9747   -0.0234 H   0  0  0  0  0  0  0  0  0  0  0  0
    2.1147   -1.0400   -1.8572 H   0  0  0  0  0  0  0  0  0  0  0  0
    3.1230   -3.8683   -3.5573 H   0  0  0  0  0  0  0  0  0  0  0  0
    5.0017   -4.9459   -2.4299 H   0  0  0  0  0  0  0  0  0  0  0  0
    5.2342   -1.9199   -3.8277 H   0  0  0  0  0  0  0  0  0  0  0  0
    4.6502   -2.8478    2.8769 H   0  0  0  0  0  0  0  0  0  0  0  0
  1  2  1  0
  1 43  1  0
  2  7  2  0
  2  3  1  0
  3  4  2  0
  3 44  1  0
  4  5  1  0
  4 45  1  0
  5 17  1  0
  5  6  2  0
  6 25  1  0
  6  7  1  0
  7  8  1  0
  8  9  1  0
  9 26  1  0
  9 10  1  0
  9 46  1  6
 10 22  1  0
 10 11  1  0
 10 47  1  1
 11 12  1  0
 12 13  1  0
 12 48  1  0
 12 49  1  0
 13 25  1  0
 13 14  1  6
 13 15  1  0
 14 50  1  0
 15 16  1  6
 15 17  1  0
 15 18  1  0
 16 51  1  0
 17 52  1  0
 17 53  1  0
 18 22  1  0
 18 19  1  0
 18 54  1  6
 19 20  1  0
 19 55  1  0
 19 56  1  0
 20 21  1  0
 20 57  1  0
 20 58  1  0
 22 21  1  1
 21 59  1  0
 21 60  1  0
 22 23  1  0
 23 24  1  0
 23 61  1  0
 23 62  1  0
 25 24  1  1
 24 63  1  0
 24 64  1  0
 25 26  1  0
 26 27  1  0
 26 65  1  6
 27 28  1  0
 27 66  1  0
 27 67  1  0
 28 29  1  0
 28 68  1  0
 28 69  1  0
 29 30  1  0
 29 70  1  0
 29 71  1  0
 30 31  1  0
 30 72  1  0
 30 84  1  0
 31 32  1  0
 31 73  1  0
 31 74  1  0
 32 36  1  0
 32 33  1  0
 32 75  1  1
 33 40  1  0
 33 34  1  0
 33 76  1  1
 34 42  1  0
 34 35  1  0
 34 77  1  6
 35 41  1  0
 35 36  1  0
 35 78  1  6
 36 37  1  0
 36 79  1  1
 41 37  1  6
 37 38  1  6
 37 39  1  0
 38 80  1  0
 39 42  1  0
 39 40  1  0
 39 81  1  6
 40 41  1  0
 40 82  1  1
 41 42  1  0
 42 83  1  6
M  CHG  1  30   1
M  END
>  <i_m_ct_stereo_status>  (81) 
1

>  <s_m_source_file>  (81) 
/var/tmp/pbs.5076255.sched01/tmp9stzsw2m/06nqgg2pe.sdf

>  <i_m_source_file_index>  (81) 
41

>  <i_lp_mmshare_version>  (81) 
48012

>  <i_f3d_flags>  (81) 
0

>  <s_epik_input>  (81) 
W09IXWMxW2NIXVtjSF1jMltDSDJdW0NAXShbT0hdKShbQ0BASF0zW0NIMl1bQ0gyXVtDSDJdNClbQ0BAXShbQ0gyXU81KShbT0hdKVtDQF0oW0NIMl1bQ0gyXTYpKGMyYzFPW0NASF03W0NASF01W0NAQF0zNDYpW0NASF03W0NIMl1bQ0gyXVtDSDJdW05IXVtDSDJdW0NASF04W0NAQEhdOVtDQF0xKFtPSF0pW0NAQEhdKFtDQEhdMjMpW0NASF00W0NASF04W0NAQEhdMltDQEhdOVtDQEBdMTM0

>  <s_epik_cmdline>  (81) 
J2VwaWtfcHl0aG9uJywgJy1waHQnLCAnMi4wJywgJy1waCcsICc3LjAnLCAnLXRuJywgJzgnLCAnLW1hJywgJzIwMCcsICctaW1hZScsICc8aW5maWxlLm1hZT4nLCAnLW9tYWUnLCAnPG91dGZpbGUubWFlPic=

>  <r_lp_tautomer_probability>  (81) 
1

>  <r_epik_Ionization_Penalty>  (81) 
0.000172558

>  <r_epik_Ionization_Penalty_Charging>  (81) 
0.000128034

>  <r_epik_Ionization_Penalty_Neutral>  (81) 
4.45242e-05

>  <r_epik_State_Penalty>  (81) 
-0

>  <r_epik_Charging_Adjusted_Penalty>  (81) 
0.000128034

>  <i_epik_Tot_Q>  (81) 
1

>  <i_epik_Tot_abs_Q>  (81) 
1

>  <s_lp_Force_Field>  (81) 
OPLS3e

>  <r_lp_Energy>  (81) 
708.797

>  <b_lp_Chiralities_Consistent>  (81) 
1

>  <s_lp_Variant>  (81) 
30:0-1

>  <s_i_glide_gridfile>  (81) 
pfpi4k_grid

>  <i_i_glide_lignum>  (81) 
41

>  <i_i_glide_rotatable_bonds>  (81) 
10

>  <r_i_docking_score>  (81) 
-3.01464

>  <r_i_glide_ligand_efficiency>  (81) 
-0.0717772

>  <r_i_glide_ligand_efficiency_sa>  (81) 
-0.2495

>  <r_i_glide_ligand_efficiency_ln>  (81) 
-0.636314

>  <r_i_glide_gscore>  (81) 
-3.01464

>  <r_i_glide_lipo>  (81) 
-0.715155

>  <r_i_glide_hbond>  (81) 
-0.15239

>  <r_i_glide_metal>  (81) 
-0

>  <r_i_glide_rewards>  (81) 
0

>  <r_i_glide_evdw>  (81) 
-29.1749

>  <r_i_glide_ecoul>  (81) 
-6.51617

>  <r_i_glide_erotb>  (81) 
0.289075

>  <r_i_glide_esite>  (81) 
0

>  <r_i_glide_emodel>  (81) 
-41.0656

>  <r_i_glide_energy>  (81) 
-35.6911

>  <r_i_glide_einternal>  (81) 
3.8824

>  <r_i_glide_intrahb_reward>  (81) 
-0

>  <i_i_glide_confnum>  (81) 
5

>  <i_i_glide_posenum>  (81) 
8

>  <r_i_glide_eff_state_penalty>  (81) 
0

>  <ligand_id>  (81) 
30

>  <original_smiles>  (81) 
Oc1ccc2c3c1OC1C4OCC5(O)C(O)(C2)C2CCCC42CCC35C1CCCNCC1C2C3C4C1C1(O)C5C2C41C35

>  <smiles>  (81) 
[H]Oc1c([H])c([H])c2c3c1OC1([H])C4([H])OC([H])([H])C5(O[H])C(O[H])(C2([H])[H])C2([H])C([H])([H])C([H])([H])C([H])([H])C42C([H])([H])C([H])([H])C35C1([H])C([H])([H])C([H])([H])C([H])([H])[N+]([H])([H])C([H])([H])C1([H])C2([H])C3([H])C4([H])C5([H])C2([H])C42C3([H])C1([H])C52O[H]

$$$$
31:0:0
     RDKit          3D

 36 38  0  0  1  0  0  0  0  0999 V2000
    4.0092   -1.6485    2.4182 C   0  0  0  0  0  0  0  0  0  0  0  0
    4.8703   -1.8126    1.1337 C   0  0  0  0  0  0  0  0  0  0  0  0
    5.3615   -0.3694    0.8629 C   0  0  0  0  0  0  0  0  0  0  0  0
    6.1835   -2.6229    1.2963 C   0  0  0  0  0  0  0  0  0  0  0  0
    4.0457   -2.4264    0.0559 N   0  0  0  0  0  0  0  0  0  0  0  0
    3.3278   -3.6258    0.0703 C   0  0  0  0  0  0  0  0  0  0  0  0
    3.1547   -4.7153    1.1235 C   0  0  0  0  0  0  0  0  0  0  0  0
    3.9097   -4.8170    2.2528 C   0  0  0  0  0  0  0  0  0  0  0  0
    3.7101   -5.8169    3.2828 C   0  0  0  0  0  0  0  0  0  0  0  0
    2.7333   -6.7094    3.1319 C   0  0  0  0  0  0  0  0  0  0  0  0
    1.9547   -6.6656    1.9894 N   0  0  0  0  0  0  0  0  0  0  0  0
    2.0769   -5.7629    0.9907 C   0  0  0  0  0  0  0  0  0  0  0  0
    1.2485   -5.8518    0.0850 O   0  0  0  0  0  0  0  0  0  0  0  0
    2.6786   -3.8498   -1.0661 N   0  0  0  0  0  0  0  0  0  0  0  0
    3.0110   -2.8315   -1.8980 C   0  0  0  0  0  0  0  0  0  0  0  0
    2.6317   -2.6175   -3.2443 C   0  0  0  0  0  0  0  0  0  0  0  0
    3.0531   -1.5340   -3.9265 N   0  0  0  0  0  0  0  0  0  0  0  0
    3.8264   -0.6205   -3.3161 C   0  0  0  0  0  0  0  0  0  0  0  0
    4.2760   -0.7695   -1.9957 C   0  0  0  0  0  0  0  0  0  0  0  0
    3.8629   -1.9030   -1.2561 C   0  0  0  0  0  0  0  0  0  0  0  0
    1.2289   -7.3578    1.8993 H   0  0  0  0  0  0  0  0  0  0  0  0
    4.6127   -1.6048    3.3310 H   0  0  0  0  0  0  0  0  0  0  0  0
    3.2483   -2.4106    2.5546 H   0  0  0  0  0  0  0  0  0  0  0  0
    3.4198   -0.7295    2.3641 H   0  0  0  0  0  0  0  0  0  0  0  0
    4.5401    0.3258    0.6690 H   0  0  0  0  0  0  0  0  0  0  0  0
    6.0792   -0.3189    0.0470 H   0  0  0  0  0  0  0  0  0  0  0  0
    5.9119    0.0009    1.7325 H   0  0  0  0  0  0  0  0  0  0  0  0
    6.6055   -2.4988    2.2942 H   0  0  0  0  0  0  0  0  0  0  0  0
    6.9471   -2.2897    0.5921 H   0  0  0  0  0  0  0  0  0  0  0  0
    6.0801   -3.6860    1.0858 H   0  0  0  0  0  0  0  0  0  0  0  0
    4.6792   -4.1180    2.4999 H   0  0  0  0  0  0  0  0  0  0  0  0
    4.3250   -5.8352    4.1618 H   0  0  0  0  0  0  0  0  0  0  0  0
    2.4900   -7.4936    3.8335 H   0  0  0  0  0  0  0  0  0  0  0  0
    1.9927   -3.3080   -3.7703 H   0  0  0  0  0  0  0  0  0  0  0  0
    4.0863    0.2636   -3.8781 H   0  0  0  0  0  0  0  0  0  0  0  0
    4.8580    0.0343   -1.5884 H   0  0  0  0  0  0  0  0  0  0  0  0
  1  2  1  0
  1 22  1  0
  1 23  1  0
  1 24  1  0
  2  3  1  0
  2  4  1  0
  2  5  1  0
  3 25  1  0
  3 26  1  0
  3 27  1  0
  4 28  1  0
  4 29  1  0
  4 30  1  0
  5 20  1  0
  5  6  1  0
  6  7  1  0
  6 14  2  0
  7 12  1  0
  7  8  2  0
  8  9  1  0
  8 31  1  0
  9 10  2  0
  9 32  1  0
 10 11  1  0
 10 33  1  0
 11 21  1  0
 11 12  1  0
 12 13  2  0
 14 15  1  0
 15 20  2  0
 15 16  1  0
 16 17  2  0
 16 34  1  0
 17 18  1  0
 18 19  2  0
 18 35  1  0
 19 20  1  0
 19 36  1  0
M  END
>  <i_m_ct_stereo_status>  (82) 
1

>  <s_m_source_file>  (82) 
/var/tmp/pbs.5076255.sched01/tmp9stzsw2m/06nqgg2pe.sdf

>  <i_m_source_file_index>  (82) 
42

>  <i_lp_mmshare_version>  (82) 
48012

>  <i_f3d_flags>  (82) 
0

>  <s_epik_input>  (82) 
W2NIXTFuW2NIXVtjSF1jKGMxMiluKEMoW0NIM10pKFtDSDNdKVtDSDNdKWMobjIpLWMzW2NIXVtjSF1bY0hdW25IXWMzPU8=

>  <s_epik_cmdline>  (82) 
J2VwaWtfcHl0aG9uJywgJy1waHQnLCAnMi4wJywgJy1waCcsICc3LjAnLCAnLXRuJywgJzgnLCAnLW1hJywgJzIwMCcsICctaW1hZScsICc8aW5maWxlLm1hZT4nLCAnLW9tYWUnLCAnPG91dGZpbGUubWFlPic=

>  <r_lp_tautomer_probability>  (82) 
0.999

>  <r_epik_Ionization_Penalty>  (82) 
0.0699941

>  <r_epik_Ionization_Penalty_Charging>  (82) 
0.0699941

>  <r_epik_Ionization_Penalty_Neutral>  (82) 
0

>  <r_epik_State_Penalty>  (82) 
0.0610316

>  <r_epik_Charging_Adjusted_Penalty>  (82) 
0.131026

>  <i_epik_Tot_Q>  (82) 
0

>  <i_epik_Tot_abs_Q>  (82) 
0

>  <s_lp_Force_Field>  (82) 
OPLS3e

>  <r_lp_Energy>  (82) 
61.4525

>  <b_lp_Chiralities_Consistent>  (82) 
1

>  <s_lp_Variant>  (82) 
31:0-1

>  <s_i_glide_gridfile>  (82) 
pfpi4k_grid

>  <i_i_glide_lignum>  (82) 
42

>  <i_i_glide_rotatable_bonds>  (82) 
2

>  <r_i_docking_score>  (82) 
-3.89751

>  <r_i_glide_ligand_efficiency>  (82) 
-0.194875

>  <r_i_glide_ligand_efficiency_sa>  (82) 
-0.528973

>  <r_i_glide_ligand_efficiency_ln>  (82) 
-0.975418

>  <r_i_glide_gscore>  (82) 
-3.89751

>  <r_i_glide_lipo>  (82) 
-0.613897

>  <r_i_glide_hbond>  (82) 
-0.303737

>  <r_i_glide_metal>  (82) 
-0

>  <r_i_glide_rewards>  (82) 
-1.57968

>  <r_i_glide_evdw>  (82) 
-24.0943

>  <r_i_glide_ecoul>  (82) 
-2.68608

>  <r_i_glide_erotb>  (82) 
0.247916

>  <r_i_glide_esite>  (82) 
-0.0404862

>  <r_i_glide_emodel>  (82) 
-33.0643

>  <r_i_glide_energy>  (82) 
-26.7803

>  <r_i_glide_einternal>  (82) 
0.597053

>  <r_i_glide_intrahb_reward>  (82) 
-0

>  <i_i_glide_confnum>  (82) 
4

>  <i_i_glide_posenum>  (82) 
1

>  <r_i_glide_eff_state_penalty>  (82) 
0

>  <ligand_id>  (82) 
31

>  <original_smiles>  (82) 
CC(C)(C)n1c(-c2ccc[nH]c2=O)nc2cnccc21

>  <smiles>  (82) 
[H]c1nc([H])c2nc(-c3c([H])c([H])c([H])n([H])c3=O)n(C(C([H])([H])[H])(C([H])([H])[H])C([H])([H])[H])c2c1[H]

$$$$
31:0:1
     RDKit          3D

 36 38  0  0  1  0  0  0  0  0999 V2000
   -1.2464    4.1768   10.4718 C   0  0  0  0  0  0  0  0  0  0  0  0
   -1.7568    3.4709    9.1646 C   0  0  0  0  0  0  0  0  0  0  0  0
   -3.2932    3.2472    9.3922 C   0  0  0  0  0  0  0  0  0  0  0  0
   -1.5936    4.4720    7.9959 C   0  0  0  0  0  0  0  0  0  0  0  0
   -1.0095    2.1839    8.9136 N   0  0  0  0  0  0  0  0  0  0  0  0
   -0.6363    1.5756    7.7312 C   0  0  0  0  0  0  0  0  0  0  0  0
   -0.8740    1.9404    6.2633 C   0  0  0  0  0  0  0  0  0  0  0  0
   -0.4085    3.0673    5.6669 C   0  0  0  0  0  0  0  0  0  0  0  0
   -0.7053    3.3933    4.2979 C   0  0  0  0  0  0  0  0  0  0  0  0
   -1.3936    2.5244    3.5395 C   0  0  0  0  0  0  0  0  0  0  0  0
   -1.7994    1.3047    4.1065 N   0  0  0  0  0  0  0  0  0  0  0  0
   -1.6285    0.9564    5.4144 C   0  0  0  0  0  0  0  0  0  0  0  0
   -2.0208   -0.1338    5.8311 O   0  0  0  0  0  0  0  0  0  0  0  0
    0.0487    0.4353    7.8853 N   0  0  0  0  0  0  0  0  0  0  0  0
    0.1682    0.2852    9.2588 C   0  0  0  0  0  0  0  0  0  0  0  0
    0.8037   -0.7338   10.0038 C   0  0  0  0  0  0  0  0  0  0  0  0
    0.8095   -0.7196   11.3540 N   0  0  0  0  0  0  0  0  0  0  0  0
    0.2110    0.2906   12.0186 C   0  0  0  0  0  0  0  0  0  0  0  0
   -0.4440    1.3307   11.3523 C   0  0  0  0  0  0  0  0  0  0  0  0
   -0.4688    1.3383    9.9346 C   0  0  0  0  0  0  0  0  0  0  0  0
   -2.3107    0.6788    3.4853 H   0  0  0  0  0  0  0  0  0  0  0  0
   -1.4152    5.2545   10.4824 H   0  0  0  0  0  0  0  0  0  0  0  0
   -0.1758    4.0115   10.6379 H   0  0  0  0  0  0  0  0  0  0  0  0
   -1.7931    3.8170   11.3505 H   0  0  0  0  0  0  0  0  0  0  0  0
   -3.5239    2.6441   10.2897 H   0  0  0  0  0  0  0  0  0  0  0  0
   -3.7602    2.8023    8.5122 H   0  0  0  0  0  0  0  0  0  0  0  0
   -3.7378    4.2363    9.5326 H   0  0  0  0  0  0  0  0  0  0  0  0
   -1.9170    5.4874    8.2610 H   0  0  0  0  0  0  0  0  0  0  0  0
   -2.2766    4.1280    7.2150 H   0  0  0  0  0  0  0  0  0  0  0  0
   -0.5689    4.4478    7.7527 H   0  0  0  0  0  0  0  0  0  0  0  0
    0.2667    3.7430    6.1966 H   0  0  0  0  0  0  0  0  0  0  0  0
   -0.4456    4.3485    3.8839 H   0  0  0  0  0  0  0  0  0  0  0  0
   -1.6727    2.6840    2.4833 H   0  0  0  0  0  0  0  0  0  0  0  0
    1.2870   -1.5704    9.5437 H   0  0  0  0  0  0  0  0  0  0  0  0
    0.2489    0.2523   13.1075 H   0  0  0  0  0  0  0  0  0  0  0  0
   -0.8982    2.0708   11.9904 H   0  0  0  0  0  0  0  0  0  0  0  0
  1  2  1  0
  1 22  1  0
  1 23  1  0
  1 24  1  0
  2  3  1  0
  2  4  1  0
  2  5  1  0
  3 25  1  0
  3 26  1  0
  3 27  1  0
  4 28  1  0
  4 29  1  0
  4 30  1  0
  5 20  1  0
  5  6  1  0
  6  7  1  0
  6 14  2  0
  7 12  1  0
  7  8  2  0
  8  9  1  0
  8 31  1  0
  9 10  2  0
  9 32  1  0
 10 11  1  0
 10 33  1  0
 11 21  1  0
 11 12  1  0
 12 13  2  0
 14 15  1  0
 15 20  2  0
 15 16  1  0
 16 17  2  0
 16 34  1  0
 17 18  1  0
 18 19  2  0
 18 35  1  0
 19 20  1  0
 19 36  1  0
M  END
>  <i_m_ct_stereo_status>  (83) 
1

>  <s_m_source_file>  (83) 
/var/tmp/pbs.5076255.sched01/tmp9stzsw2m/06nqgg2pe.sdf

>  <i_m_source_file_index>  (83) 
42

>  <i_lp_mmshare_version>  (83) 
48012

>  <i_f3d_flags>  (83) 
0

>  <s_epik_input>  (83) 
W2NIXTFuW2NIXVtjSF1jKGMxMiluKEMoW0NIM10pKFtDSDNdKVtDSDNdKWMobjIpLWMzW2NIXVtjSF1bY0hdW25IXWMzPU8=

>  <s_epik_cmdline>  (83) 
J2VwaWtfcHl0aG9uJywgJy1waHQnLCAnMi4wJywgJy1waCcsICc3LjAnLCAnLXRuJywgJzgnLCAnLW1hJywgJzIwMCcsICctaW1hZScsICc8aW5maWxlLm1hZT4nLCAnLW9tYWUnLCAnPG91dGZpbGUubWFlPic=

>  <r_lp_tautomer_probability>  (83) 
0.999

>  <r_epik_Ionization_Penalty>  (83) 
0.0699941

>  <r_epik_Ionization_Penalty_Charging>  (83) 
0.0699941

>  <r_epik_Ionization_Penalty_Neutral>  (83) 
0

>  <r_epik_State_Penalty>  (83) 
0.0610316

>  <r_epik_Charging_Adjusted_Penalty>  (83) 
0.131026

>  <i_epik_Tot_Q>  (83) 
0

>  <i_epik_Tot_abs_Q>  (83) 
0

>  <s_lp_Force_Field>  (83) 
OPLS3e

>  <r_lp_Energy>  (83) 
61.4525

>  <b_lp_Chiralities_Consistent>  (83) 
1

>  <s_lp_Variant>  (83) 
31:0-1

>  <s_i_glide_gridfile>  (83) 
pfpi4k_grid

>  <i_i_glide_lignum>  (83) 
42

>  <i_i_glide_rotatable_bonds>  (83) 
2

>  <r_i_docking_score>  (83) 
-3.57693

>  <r_i_glide_ligand_efficiency>  (83) 
-0.178847

>  <r_i_glide_ligand_efficiency_sa>  (83) 
-0.485464

>  <r_i_glide_ligand_efficiency_ln>  (83) 
-0.895188

>  <r_i_glide_gscore>  (83) 
-3.57693

>  <r_i_glide_lipo>  (83) 
0

>  <r_i_glide_hbond>  (83) 
-0.421262

>  <r_i_glide_metal>  (83) 
-0

>  <r_i_glide_rewards>  (83) 
-1.57968

>  <r_i_glide_evdw>  (83) 
-17.325

>  <r_i_glide_ecoul>  (83) 
-5.89172

>  <r_i_glide_erotb>  (83) 
0.247916

>  <r_i_glide_esite>  (83) 
-0.0738998

>  <r_i_glide_emodel>  (83) 
-24.9067

>  <r_i_glide_energy>  (83) 
-23.2167

>  <r_i_glide_einternal>  (83) 
4.19409

>  <r_i_glide_intrahb_reward>  (83) 
-0

>  <i_i_glide_confnum>  (83) 
4

>  <i_i_glide_posenum>  (83) 
2

>  <r_i_glide_eff_state_penalty>  (83) 
0

>  <ligand_id>  (83) 
31

>  <original_smiles>  (83) 
CC(C)(C)n1c(-c2ccc[nH]c2=O)nc2cnccc21

>  <smiles>  (83) 
[H]c1nc([H])c2nc(-c3c([H])c([H])c([H])n([H])c3=O)n(C(C([H])([H])[H])(C([H])([H])[H])C([H])([H])[H])c2c1[H]

$$$$
31:0:2
     RDKit          3D

 36 38  0  0  1  0  0  0  0  0999 V2000
    4.9222   -8.6246    0.7744 C   0  0  0  0  0  0  0  0  0  0  0  0
    4.3248   -8.1910    2.1499 C   0  0  0  0  0  0  0  0  0  0  0  0
    4.3169   -9.4995    2.9856 C   0  0  0  0  0  0  0  0  0  0  0  0
    5.1769   -7.2621    3.0664 C   0  0  0  0  0  0  0  0  0  0  0  0
    2.9948   -7.5612    1.8911 N   0  0  0  0  0  0  0  0  0  0  0  0
    2.6991   -6.3488    1.2694 C   0  0  0  0  0  0  0  0  0  0  0  0
    3.5806   -5.2589    0.6409 C   0  0  0  0  0  0  0  0  0  0  0  0
    4.9374   -5.1145    0.8305 C   0  0  0  0  0  0  0  0  0  0  0  0
    5.6965   -4.0196    0.2967 C   0  0  0  0  0  0  0  0  0  0  0  0
    5.1313   -3.1498   -0.5442 C   0  0  0  0  0  0  0  0  0  0  0  0
    3.7759   -3.3053   -0.8331 N   0  0  0  0  0  0  0  0  0  0  0  0
    2.9758   -4.2543   -0.3191 C   0  0  0  0  0  0  0  0  0  0  0  0
    1.8148   -4.2710   -0.7395 O   0  0  0  0  0  0  0  0  0  0  0  0
    1.3754   -6.0997    1.2466 N   0  0  0  0  0  0  0  0  0  0  0  0
    0.7828   -7.1980    1.8125 C   0  0  0  0  0  0  0  0  0  0  0  0
   -0.5881   -7.4618    2.0096 C   0  0  0  0  0  0  0  0  0  0  0  0
   -1.0183   -8.5854    2.6190 N   0  0  0  0  0  0  0  0  0  0  0  0
   -0.1126   -9.4930    3.0271 C   0  0  0  0  0  0  0  0  0  0  0  0
    1.2708   -9.3158    2.8702 C   0  0  0  0  0  0  0  0  0  0  0  0
    1.7422   -8.1346    2.2415 C   0  0  0  0  0  0  0  0  0  0  0  0
    3.3780   -2.6619   -1.5015 H   0  0  0  0  0  0  0  0  0  0  0  0
    6.0074   -8.7127    0.8094 H   0  0  0  0  0  0  0  0  0  0  0  0
    4.6388   -7.9683   -0.0538 H   0  0  0  0  0  0  0  0  0  0  0  0
    4.5546   -9.6202    0.4885 H   0  0  0  0  0  0  0  0  0  0  0  0
    3.7922  -10.3227    2.5046 H   0  0  0  0  0  0  0  0  0  0  0  0
    3.9110   -9.3373    3.9845 H   0  0  0  0  0  0  0  0  0  0  0  0
    5.3341   -9.8631    3.1197 H   0  0  0  0  0  0  0  0  0  0  0  0
    6.2438   -7.3481    2.8302 H   0  0  0  0  0  0  0  0  0  0  0  0
    5.0308   -7.4858    4.1258 H   0  0  0  0  0  0  0  0  0  0  0  0
    4.8386   -6.2301    3.0523 H   0  0  0  0  0  0  0  0  0  0  0  0
    5.5716   -5.7600    1.3802 H   0  0  0  0  0  0  0  0  0  0  0  0
    6.7323   -3.9215    0.5875 H   0  0  0  0  0  0  0  0  0  0  0  0
    5.6511   -2.3232   -1.0418 H   0  0  0  0  0  0  0  0  0  0  0  0
   -1.3387   -6.7565    1.7050 H   0  0  0  0  0  0  0  0  0  0  0  0
   -0.5038  -10.3848    3.5064 H   0  0  0  0  0  0  0  0  0  0  0  0
    1.8913  -10.1024    3.2496 H   0  0  0  0  0  0  0  0  0  0  0  0
  1  2  1  0
  1 22  1  0
  1 23  1  0
  1 24  1  0
  2  3  1  0
  2  4  1  0
  2  5  1  0
  3 25  1  0
  3 26  1  0
  3 27  1  0
  4 28  1  0
  4 29  1  0
  4 30  1  0
  5 20  1  0
  5  6  1  0
  6  7  1  0
  6 14  2  0
  7 12  1  0
  7  8  2  0
  8  9  1  0
  8 31  1  0
  9 10  2  0
  9 32  1  0
 10 11  1  0
 10 33  1  0
 11 21  1  0
 11 12  1  0
 12 13  2  0
 14 15  1  0
 15 20  2  0
 15 16  1  0
 16 17  2  0
 16 34  1  0
 17 18  1  0
 18 19  2  0
 18 35  1  0
 19 20  1  0
 19 36  1  0
M  END
>  <i_m_ct_stereo_status>  (84) 
1

>  <s_m_source_file>  (84) 
/var/tmp/pbs.5076255.sched01/tmp9stzsw2m/06nqgg2pe.sdf

>  <i_m_source_file_index>  (84) 
42

>  <i_lp_mmshare_version>  (84) 
48012

>  <i_f3d_flags>  (84) 
0

>  <s_epik_input>  (84) 
W2NIXTFuW2NIXVtjSF1jKGMxMiluKEMoW0NIM10pKFtDSDNdKVtDSDNdKWMobjIpLWMzW2NIXVtjSF1bY0hdW25IXWMzPU8=

>  <s_epik_cmdline>  (84) 
J2VwaWtfcHl0aG9uJywgJy1waHQnLCAnMi4wJywgJy1waCcsICc3LjAnLCAnLXRuJywgJzgnLCAnLW1hJywgJzIwMCcsICctaW1hZScsICc8aW5maWxlLm1hZT4nLCAnLW9tYWUnLCAnPG91dGZpbGUubWFlPic=

>  <r_lp_tautomer_probability>  (84) 
0.999

>  <r_epik_Ionization_Penalty>  (84) 
0.0699941

>  <r_epik_Ionization_Penalty_Charging>  (84) 
0.0699941

>  <r_epik_Ionization_Penalty_Neutral>  (84) 
0

>  <r_epik_State_Penalty>  (84) 
0.0610316

>  <r_epik_Charging_Adjusted_Penalty>  (84) 
0.131026

>  <i_epik_Tot_Q>  (84) 
0

>  <i_epik_Tot_abs_Q>  (84) 
0

>  <s_lp_Force_Field>  (84) 
OPLS3e

>  <r_lp_Energy>  (84) 
61.4525

>  <b_lp_Chiralities_Consistent>  (84) 
1

>  <s_lp_Variant>  (84) 
31:0-1

>  <s_i_glide_gridfile>  (84) 
pfpi4k_grid

>  <i_i_glide_lignum>  (84) 
42

>  <i_i_glide_rotatable_bonds>  (84) 
2

>  <r_i_docking_score>  (84) 
-3.05867

>  <r_i_glide_ligand_efficiency>  (84) 
-0.152934

>  <r_i_glide_ligand_efficiency_sa>  (84) 
-0.415126

>  <r_i_glide_ligand_efficiency_ln>  (84) 
-0.765485

>  <r_i_glide_gscore>  (84) 
-3.05867

>  <r_i_glide_lipo>  (84) 
-0.184072

>  <r_i_glide_hbond>  (84) 
-0.126662

>  <r_i_glide_metal>  (84) 
-0

>  <r_i_glide_rewards>  (84) 
-1.59425

>  <r_i_glide_evdw>  (84) 
-23.5423

>  <r_i_glide_ecoul>  (84) 
-1.47494

>  <r_i_glide_erotb>  (84) 
0.247916

>  <r_i_glide_esite>  (84) 
-0.00324963

>  <r_i_glide_emodel>  (84) 
-28.0614

>  <r_i_glide_energy>  (84) 
-25.0172

>  <r_i_glide_einternal>  (84) 
0.539352

>  <r_i_glide_intrahb_reward>  (84) 
-0

>  <i_i_glide_confnum>  (84) 
6

>  <i_i_glide_posenum>  (84) 
38

>  <r_i_glide_eff_state_penalty>  (84) 
0

>  <ligand_id>  (84) 
31

>  <original_smiles>  (84) 
CC(C)(C)n1c(-c2ccc[nH]c2=O)nc2cnccc21

>  <smiles>  (84) 
[H]c1nc([H])c2nc(-c3c([H])c([H])c([H])n([H])c3=O)n(C(C([H])([H])[H])(C([H])([H])[H])C([H])([H])[H])c2c1[H]

$$$$
31:1:0
     RDKit          3D

 37 39  0  0  1  0  0  0  0  0999 V2000
    1.8296    2.1814    7.5580 C   0  0  0  0  0  0  0  0  0  0  0  0
    1.8875    3.0049    6.2488 C   0  0  0  0  0  0  0  0  0  0  0  0
    2.0573    4.5317    6.5478 C   0  0  0  0  0  0  0  0  0  0  0  0
    3.2116    2.5901    5.5574 C   0  0  0  0  0  0  0  0  0  0  0  0
    0.6476    2.7258    5.4303 N   0  0  0  0  0  0  0  0  0  0  0  0
   -0.6844    2.8990    5.7672 C   0  0  0  0  0  0  0  0  0  0  0  0
   -1.2726    3.3435    7.0517 C   0  0  0  0  0  0  0  0  0  0  0  0
   -1.0595    4.5994    7.4924 C   0  0  0  0  0  0  0  0  0  0  0  0
   -1.6095    5.0375    8.7629 C   0  0  0  0  0  0  0  0  0  0  0  0
   -2.4646    4.2384    9.4248 C   0  0  0  0  0  0  0  0  0  0  0  0
   -2.7723    2.9784    8.9019 N   0  0  0  0  0  0  0  0  0  0  0  0
   -2.2185    2.4521    7.7818 C   0  0  0  0  0  0  0  0  0  0  0  0
   -2.5518    1.3338    7.3847 O   0  0  0  0  0  0  0  0  0  0  0  0
   -1.5587    2.5975    4.8097 N   0  0  0  0  0  0  0  0  0  0  0  0
   -0.7754    2.1459    3.7795 C   0  0  0  0  0  0  0  0  0  0  0  0
   -1.1553    1.6491    2.5046 C   0  0  0  0  0  0  0  0  0  0  0  0
   -0.2082    1.2657    1.6294 N   0  0  0  0  0  0  0  0  0  0  0  0
    1.1075    1.3062    1.8964 C   0  0  0  0  0  0  0  0  0  0  0  0
    1.5544    1.7846    3.1405 C   0  0  0  0  0  0  0  0  0  0  0  0
    0.6019    2.2098    4.1056 C   0  0  0  0  0  0  0  0  0  0  0  0
   -3.4524    2.4353    9.4083 H   0  0  0  0  0  0  0  0  0  0  0  0
    2.7463    2.3203    8.1386 H   0  0  0  0  0  0  0  0  0  0  0  0
    1.7442    1.1095    7.3437 H   0  0  0  0  0  0  0  0  0  0  0  0
    0.9901    2.4635    8.1966 H   0  0  0  0  0  0  0  0  0  0  0  0
    1.3226    4.8979    7.2447 H   0  0  0  0  0  0  0  0  0  0  0  0
    2.0226    5.0786    5.5852 H   0  0  0  0  0  0  0  0  0  0  0  0
    3.0641    4.7047    6.9877 H   0  0  0  0  0  0  0  0  0  0  0  0
    4.0730    2.7895    6.1977 H   0  0  0  0  0  0  0  0  0  0  0  0
    3.3745    3.1968    4.6687 H   0  0  0  0  0  0  0  0  0  0  0  0
    3.2418    1.5239    5.3231 H   0  0  0  0  0  0  0  0  0  0  0  0
   -0.4963    5.3073    6.8965 H   0  0  0  0  0  0  0  0  0  0  0  0
   -1.3074    5.9770    9.1825 H   0  0  0  0  0  0  0  0  0  0  0  0
   -2.9512    4.4860   10.3731 H   0  0  0  0  0  0  0  0  0  0  0  0
   -2.1744    1.5719    2.1825 H   0  0  0  0  0  0  0  0  0  0  0  0
    1.7936    0.9836    1.1317 H   0  0  0  0  0  0  0  0  0  0  0  0
    2.6176    1.7971    3.2748 H   0  0  0  0  0  0  0  0  0  0  0  0
   -0.4913    0.9372    0.6894 H   0  0  0  0  0  0  0  0  0  0  0  0
  1  2  1  0
  1 22  1  0
  1 23  1  0
  1 24  1  0
  2  3  1  0
  2  4  1  0
  2  5  1  0
  3 25  1  0
  3 26  1  0
  3 27  1  0
  4 28  1  0
  4 29  1  0
  4 30  1  0
  5 20  1  0
  5  6  1  0
  6  7  1  0
  6 14  2  0
  7 12  1  0
  7  8  2  0
  8  9  1  0
  8 31  1  0
  9 10  2  0
  9 32  1  0
 10 11  1  0
 10 33  1  0
 11 21  1  0
 11 12  1  0
 12 13  2  0
 14 15  1  0
 15 20  2  0
 15 16  1  0
 16 17  2  0
 16 34  1  0
 17 18  1  0
 17 37  1  0
 18 19  2  0
 18 35  1  0
 19 20  1  0
 19 36  1  0
M  CHG  1  17   1
M  END
>  <i_m_ct_stereo_status>  (85) 
1

>  <s_m_source_file>  (85) 
/var/tmp/pbs.5076255.sched01/tmp9stzsw2m/06nqgg2pe.sdf

>  <i_m_source_file_index>  (85) 
43

>  <i_lp_mmshare_version>  (85) 
48012

>  <i_f3d_flags>  (85) 
0

>  <s_epik_input>  (85) 
W2NIXTFuW2NIXVtjSF1jKGMxMiluKEMoW0NIM10pKFtDSDNdKVtDSDNdKWMobjIpLWMzW2NIXVtjSF1bY0hdW25IXWMzPU8=

>  <s_epik_cmdline>  (85) 
J2VwaWtfcHl0aG9uJywgJy1waHQnLCAnMi4wJywgJy1waCcsICc3LjAnLCAnLXRuJywgJzgnLCAnLW1hJywgJzIwMCcsICctaW1hZScsICc8aW5maWxlLm1hZT4nLCAnLW9tYWUnLCAnPG91dGZpbGUubWFlPic=

>  <r_lp_tautomer_probability>  (85) 
0.99891

>  <r_epik_Ionization_Penalty>  (85) 
1.30313

>  <r_epik_Ionization_Penalty_Charging>  (85) 
0.000290395

>  <r_epik_Ionization_Penalty_Neutral>  (85) 
1.30284

>  <r_epik_State_Penalty>  (85) 
1.37694

>  <r_epik_Charging_Adjusted_Penalty>  (85) 
1.37723

>  <i_epik_Tot_Q>  (85) 
1

>  <i_epik_Tot_abs_Q>  (85) 
1

>  <s_lp_Force_Field>  (85) 
OPLS3e

>  <r_lp_Energy>  (85) 
47.0428

>  <b_lp_Chiralities_Consistent>  (85) 
1

>  <s_lp_Variant>  (85) 
31:0-2

>  <s_i_glide_gridfile>  (85) 
pfpi4k_grid

>  <i_i_glide_lignum>  (85) 
43

>  <i_i_glide_rotatable_bonds>  (85) 
2

>  <r_i_docking_score>  (85) 
-3.94834

>  <r_i_glide_ligand_efficiency>  (85) 
-0.197417

>  <r_i_glide_ligand_efficiency_sa>  (85) 
-0.535873

>  <r_i_glide_ligand_efficiency_ln>  (85) 
-0.98814

>  <r_i_glide_gscore>  (85) 
-3.94834

>  <r_i_glide_lipo>  (85) 
-0.0327348

>  <r_i_glide_hbond>  (85) 
-0.358933

>  <r_i_glide_metal>  (85) 
-0

>  <r_i_glide_rewards>  (85) 
-1.57281

>  <r_i_glide_evdw>  (85) 
-17.9222

>  <r_i_glide_ecoul>  (85) 
-8.1753

>  <r_i_glide_erotb>  (85) 
0.246314

>  <r_i_glide_esite>  (85) 
-0.107778

>  <r_i_glide_emodel>  (85) 
-33.1504

>  <r_i_glide_energy>  (85) 
-26.0975

>  <r_i_glide_einternal>  (85) 
2.49402

>  <r_i_glide_intrahb_reward>  (85) 
-0

>  <i_i_glide_confnum>  (85) 
4

>  <i_i_glide_posenum>  (85) 
10

>  <r_i_glide_eff_state_penalty>  (85) 
0

>  <ligand_id>  (85) 
31

>  <original_smiles>  (85) 
CC(C)(C)n1c(-c2ccc[nH]c2=O)nc2cnccc21

>  <smiles>  (85) 
[H]c1c([H])c([H])n([H])c(=O)c1-c1nc2c([H])[n+]([H])c([H])c([H])c2n1C(C([H])([H])[H])(C([H])([H])[H])C([H])([H])[H]

$$$$
31:1:1
     RDKit          3D

 37 39  0  0  1  0  0  0  0  0999 V2000
   -0.3702    4.8787    6.0714 C   0  0  0  0  0  0  0  0  0  0  0  0
   -0.9332    3.4756    5.7327 C   0  0  0  0  0  0  0  0  0  0  0  0
   -2.4114    3.5565    5.3088 C   0  0  0  0  0  0  0  0  0  0  0  0
   -0.1396    3.0188    4.4923 C   0  0  0  0  0  0  0  0  0  0  0  0
   -0.8168    2.5822    6.9194 N   0  0  0  0  0  0  0  0  0  0  0  0
   -0.3322    1.3004    7.0416 C   0  0  0  0  0  0  0  0  0  0  0  0
    0.2158    0.4337    5.9968 C   0  0  0  0  0  0  0  0  0  0  0  0
    1.5099    0.5549    5.6217 C   0  0  0  0  0  0  0  0  0  0  0  0
    2.0956   -0.3089    4.6197 C   0  0  0  0  0  0  0  0  0  0  0  0
    1.3238   -1.2689    4.0847 C   0  0  0  0  0  0  0  0  0  0  0  0
   -0.0071   -1.4148    4.4818 N   0  0  0  0  0  0  0  0  0  0  0  0
   -0.6220   -0.6230    5.3966 C   0  0  0  0  0  0  0  0  0  0  0  0
   -1.8001   -0.8173    5.7000 O   0  0  0  0  0  0  0  0  0  0  0  0
   -0.3872    0.7588    8.2564 N   0  0  0  0  0  0  0  0  0  0  0  0
   -0.9543    1.7573    9.0061 C   0  0  0  0  0  0  0  0  0  0  0  0
   -1.2737    1.7776   10.3789 C   0  0  0  0  0  0  0  0  0  0  0  0
   -1.9204    2.8438   10.8830 N   0  0  0  0  0  0  0  0  0  0  0  0
   -2.2520    3.9403   10.1791 C   0  0  0  0  0  0  0  0  0  0  0  0
   -1.9622    3.9844    8.8055 C   0  0  0  0  0  0  0  0  0  0  0  0
   -1.2904    2.8911    8.2061 C   0  0  0  0  0  0  0  0  0  0  0  0
   -0.5352   -2.1688    4.0637 H   0  0  0  0  0  0  0  0  0  0  0  0
   -0.3761    5.5363    5.1985 H   0  0  0  0  0  0  0  0  0  0  0  0
    0.6632    4.7951    6.4182 H   0  0  0  0  0  0  0  0  0  0  0  0
   -0.9184    5.4130    6.8427 H   0  0  0  0  0  0  0  0  0  0  0  0
   -3.0465    3.9457    6.1025 H   0  0  0  0  0  0  0  0  0  0  0  0
   -2.8063    2.5759    5.0309 H   0  0  0  0  0  0  0  0  0  0  0  0
   -2.5350    4.1933    4.4331 H   0  0  0  0  0  0  0  0  0  0  0  0
   -0.2290    3.7401    3.6765 H   0  0  0  0  0  0  0  0  0  0  0  0
   -0.4947    2.0708    4.0870 H   0  0  0  0  0  0  0  0  0  0  0  0
    0.9255    2.9471    4.7100 H   0  0  0  0  0  0  0  0  0  0  0  0
    2.1297    1.3095    6.0825 H   0  0  0  0  0  0  0  0  0  0  0  0
    3.1161   -0.1740    4.3033 H   0  0  0  0  0  0  0  0  0  0  0  0
    1.6571   -1.9610    3.3286 H   0  0  0  0  0  0  0  0  0  0  0  0
   -1.1083    0.9591   11.0743 H   0  0  0  0  0  0  0  0  0  0  0  0
   -2.7441    4.7327   10.7268 H   0  0  0  0  0  0  0  0  0  0  0  0
   -2.2855    4.8446    8.2535 H   0  0  0  0  0  0  0  0  0  0  0  0
   -2.2105    2.7592   11.8724 H   0  0  0  0  0  0  0  0  0  0  0  0
  1  2  1  0
  1 22  1  0
  1 23  1  0
  1 24  1  0
  2  3  1  0
  2  4  1  0
  2  5  1  0
  3 25  1  0
  3 26  1  0
  3 27  1  0
  4 28  1  0
  4 29  1  0
  4 30  1  0
  5 20  1  0
  5  6  1  0
  6  7  1  0
  6 14  2  0
  7 12  1  0
  7  8  2  0
  8  9  1  0
  8 31  1  0
  9 10  2  0
  9 32  1  0
 10 11  1  0
 10 33  1  0
 11 21  1  0
 11 12  1  0
 12 13  2  0
 14 15  1  0
 15 20  2  0
 15 16  1  0
 16 17  2  0
 16 34  1  0
 17 18  1  0
 17 37  1  0
 18 19  2  0
 18 35  1  0
 19 20  1  0
 19 36  1  0
M  CHG  1  17   1
M  END
>  <i_m_ct_stereo_status>  (86) 
1

>  <s_m_source_file>  (86) 
/var/tmp/pbs.5076255.sched01/tmp9stzsw2m/06nqgg2pe.sdf

>  <i_m_source_file_index>  (86) 
43

>  <i_lp_mmshare_version>  (86) 
48012

>  <i_f3d_flags>  (86) 
0

>  <s_epik_input>  (86) 
W2NIXTFuW2NIXVtjSF1jKGMxMiluKEMoW0NIM10pKFtDSDNdKVtDSDNdKWMobjIpLWMzW2NIXVtjSF1bY0hdW25IXWMzPU8=

>  <s_epik_cmdline>  (86) 
J2VwaWtfcHl0aG9uJywgJy1waHQnLCAnMi4wJywgJy1waCcsICc3LjAnLCAnLXRuJywgJzgnLCAnLW1hJywgJzIwMCcsICctaW1hZScsICc8aW5maWxlLm1hZT4nLCAnLW9tYWUnLCAnPG91dGZpbGUubWFlPic=

>  <r_lp_tautomer_probability>  (86) 
0.99891

>  <r_epik_Ionization_Penalty>  (86) 
1.30313

>  <r_epik_Ionization_Penalty_Charging>  (86) 
0.000290395

>  <r_epik_Ionization_Penalty_Neutral>  (86) 
1.30284

>  <r_epik_State_Penalty>  (86) 
1.37694

>  <r_epik_Charging_Adjusted_Penalty>  (86) 
1.37723

>  <i_epik_Tot_Q>  (86) 
1

>  <i_epik_Tot_abs_Q>  (86) 
1

>  <s_lp_Force_Field>  (86) 
OPLS3e

>  <r_lp_Energy>  (86) 
47.0428

>  <b_lp_Chiralities_Consistent>  (86) 
1

>  <s_lp_Variant>  (86) 
31:0-2

>  <s_i_glide_gridfile>  (86) 
pfpi4k_grid

>  <i_i_glide_lignum>  (86) 
43

>  <i_i_glide_rotatable_bonds>  (86) 
2

>  <r_i_docking_score>  (86) 
-3.78737

>  <r_i_glide_ligand_efficiency>  (86) 
-0.189369

>  <r_i_glide_ligand_efficiency_sa>  (86) 
-0.514025

>  <r_i_glide_ligand_efficiency_ln>  (86) 
-0.947854

>  <r_i_glide_gscore>  (86) 
-3.78737

>  <r_i_glide_lipo>  (86) 
0

>  <r_i_glide_hbond>  (86) 
-0.240556

>  <r_i_glide_metal>  (86) 
-0

>  <r_i_glide_rewards>  (86) 
-1.57281

>  <r_i_glide_evdw>  (86) 
-15.0882

>  <r_i_glide_ecoul>  (86) 
-8.89793

>  <r_i_glide_erotb>  (86) 
0.246314

>  <r_i_glide_esite>  (86) 
-0.131221

>  <r_i_glide_emodel>  (86) 
-31.9884

>  <r_i_glide_energy>  (86) 
-23.9862

>  <r_i_glide_einternal>  (86) 
1.85529

>  <r_i_glide_intrahb_reward>  (86) 
-0

>  <i_i_glide_confnum>  (86) 
1

>  <i_i_glide_posenum>  (86) 
32

>  <r_i_glide_eff_state_penalty>  (86) 
0

>  <ligand_id>  (86) 
31

>  <original_smiles>  (86) 
CC(C)(C)n1c(-c2ccc[nH]c2=O)nc2cnccc21

>  <smiles>  (86) 
[H]c1c([H])c([H])n([H])c(=O)c1-c1nc2c([H])[n+]([H])c([H])c([H])c2n1C(C([H])([H])[H])(C([H])([H])[H])C([H])([H])[H]

$$$$
31:1:2
     RDKit          3D

 37 39  0  0  1  0  0  0  0  0999 V2000
   -0.3507    5.0357    6.1843 C   0  0  0  0  0  0  0  0  0  0  0  0
   -0.8387    3.6113    5.7594 C   0  0  0  0  0  0  0  0  0  0  0  0
   -2.3254    3.6598    5.3119 C   0  0  0  0  0  0  0  0  0  0  0  0
    0.0462    3.3289    4.5098 C   0  0  0  0  0  0  0  0  0  0  0  0
   -0.7234    2.6884    6.9275 N   0  0  0  0  0  0  0  0  0  0  0  0
   -0.2091    1.4140    7.0540 C   0  0  0  0  0  0  0  0  0  0  0  0
    0.4339    0.5593    6.0375 C   0  0  0  0  0  0  0  0  0  0  0  0
   -0.1299    0.3871    4.8251 C   0  0  0  0  0  0  0  0  0  0  0  0
    0.5457   -0.2577    3.7276 C   0  0  0  0  0  0  0  0  0  0  0  0
    1.7092   -0.8618    3.9932 C   0  0  0  0  0  0  0  0  0  0  0  0
    2.2420   -0.8113    5.2876 N   0  0  0  0  0  0  0  0  0  0  0  0
    1.7076   -0.1350    6.3234 C   0  0  0  0  0  0  0  0  0  0  0  0
    2.2573   -0.1733    7.4106 O   0  0  0  0  0  0  0  0  0  0  0  0
   -0.3071    0.8530    8.2582 N   0  0  0  0  0  0  0  0  0  0  0  0
   -0.9037    1.8139    9.0185 C   0  0  0  0  0  0  0  0  0  0  0  0
   -1.2338    1.7996   10.3670 C   0  0  0  0  0  0  0  0  0  0  0  0
   -1.9166    2.8368   10.9041 N   0  0  0  0  0  0  0  0  0  0  0  0
   -2.2726    3.9382   10.1863 C   0  0  0  0  0  0  0  0  0  0  0  0
   -1.9590    4.0135    8.8426 C   0  0  0  0  0  0  0  0  0  0  0  0
   -1.2416    2.9542    8.2272 C   0  0  0  0  0  0  0  0  0  0  0  0
    3.0918   -1.3336    5.4632 H   0  0  0  0  0  0  0  0  0  0  0  0
   -0.3793    5.7171    5.3416 H   0  0  0  0  0  0  0  0  0  0  0  0
    0.6773    4.9783    6.5410 H   0  0  0  0  0  0  0  0  0  0  0  0
   -0.9283    5.5171    6.9609 H   0  0  0  0  0  0  0  0  0  0  0  0
   -2.9991    4.0103    6.0934 H   0  0  0  0  0  0  0  0  0  0  0  0
   -2.6749    2.6666    5.0155 H   0  0  0  0  0  0  0  0  0  0  0  0
   -2.4515    4.3065    4.4447 H   0  0  0  0  0  0  0  0  0  0  0  0
   -0.0427    4.1254    3.7703 H   0  0  0  0  0  0  0  0  0  0  0  0
   -0.2973    2.5717    3.8727 H   0  0  0  0  0  0  0  0  0  0  0  0
    1.0978    3.1749    4.7981 H   0  0  0  0  0  0  0  0  0  0  0  0
   -1.1203    0.8301    4.6330 H   0  0  0  0  0  0  0  0  0  0  0  0
    0.1696   -0.1982    2.7258 H   0  0  0  0  0  0  0  0  0  0  0  0
    2.3065   -1.4020    3.2760 H   0  0  0  0  0  0  0  0  0  0  0  0
   -1.0502    0.9685   11.0406 H   0  0  0  0  0  0  0  0  0  0  0  0
   -2.8097    4.6947   10.7412 H   0  0  0  0  0  0  0  0  0  0  0  0
   -2.2764    4.8900    8.2981 H   0  0  0  0  0  0  0  0  0  0  0  0
   -2.2106    2.7461   11.8876 H   0  0  0  0  0  0  0  0  0  0  0  0
  1  2  1  0
  1 22  1  0
  1 23  1  0
  1 24  1  0
  2  3  1  0
  2  4  1  0
  2  5  1  0
  3 25  1  0
  3 26  1  0
  3 27  1  0
  4 28  1  0
  4 29  1  0
  4 30  1  0
  5 20  1  0
  5  6  1  0
  6  7  1  0
  6 14  2  0
  7 12  1  0
  7  8  2  0
  8  9  1  0
  8 31  1  0
  9 10  2  0
  9 32  1  0
 10 11  1  0
 10 33  1  0
 11 21  1  0
 11 12  1  0
 12 13  2  0
 14 15  1  0
 15 20  2  0
 15 16  1  0
 16 17  2  0
 16 34  1  0
 17 18  1  0
 17 37  1  0
 18 19  2  0
 18 35  1  0
 19 20  1  0
 19 36  1  0
M  CHG  1  17   1
M  END
>  <i_m_ct_stereo_status>  (87) 
1

>  <s_m_source_file>  (87) 
/var/tmp/pbs.5076255.sched01/tmp9stzsw2m/06nqgg2pe.sdf

>  <i_m_source_file_index>  (87) 
43

>  <i_lp_mmshare_version>  (87) 
48012

>  <i_f3d_flags>  (87) 
0

>  <s_epik_input>  (87) 
W2NIXTFuW2NIXVtjSF1jKGMxMiluKEMoW0NIM10pKFtDSDNdKVtDSDNdKWMobjIpLWMzW2NIXVtjSF1bY0hdW25IXWMzPU8=

>  <s_epik_cmdline>  (87) 
J2VwaWtfcHl0aG9uJywgJy1waHQnLCAnMi4wJywgJy1waCcsICc3LjAnLCAnLXRuJywgJzgnLCAnLW1hJywgJzIwMCcsICctaW1hZScsICc8aW5maWxlLm1hZT4nLCAnLW9tYWUnLCAnPG91dGZpbGUubWFlPic=

>  <r_lp_tautomer_probability>  (87) 
0.99891

>  <r_epik_Ionization_Penalty>  (87) 
1.30313

>  <r_epik_Ionization_Penalty_Charging>  (87) 
0.000290395

>  <r_epik_Ionization_Penalty_Neutral>  (87) 
1.30284

>  <r_epik_State_Penalty>  (87) 
1.37694

>  <r_epik_Charging_Adjusted_Penalty>  (87) 
1.37723

>  <i_epik_Tot_Q>  (87) 
1

>  <i_epik_Tot_abs_Q>  (87) 
1

>  <s_lp_Force_Field>  (87) 
OPLS3e

>  <r_lp_Energy>  (87) 
47.0428

>  <b_lp_Chiralities_Consistent>  (87) 
1

>  <s_lp_Variant>  (87) 
31:0-2

>  <s_i_glide_gridfile>  (87) 
pfpi4k_grid

>  <i_i_glide_lignum>  (87) 
43

>  <i_i_glide_rotatable_bonds>  (87) 
2

>  <r_i_docking_score>  (87) 
-3.10105

>  <r_i_glide_ligand_efficiency>  (87) 
-0.155053

>  <r_i_glide_ligand_efficiency_sa>  (87) 
-0.420877

>  <r_i_glide_ligand_efficiency_ln>  (87) 
-0.776091

>  <r_i_glide_gscore>  (87) 
-3.10105

>  <r_i_glide_lipo>  (87) 
0

>  <r_i_glide_hbond>  (87) 
-0.19922

>  <r_i_glide_metal>  (87) 
-0

>  <r_i_glide_rewards>  (87) 
-1.57281

>  <r_i_glide_evdw>  (87) 
-12.8136

>  <r_i_glide_ecoul>  (87) 
-5.48464

>  <r_i_glide_erotb>  (87) 
0.246314

>  <r_i_glide_esite>  (87) 
-0.111964

>  <r_i_glide_emodel>  (87) 
-23.8436

>  <r_i_glide_energy>  (87) 
-18.2982

>  <r_i_glide_einternal>  (87) 
0.350317

>  <r_i_glide_intrahb_reward>  (87) 
-0

>  <i_i_glide_confnum>  (87) 
3

>  <i_i_glide_posenum>  (87) 
37

>  <r_i_glide_eff_state_penalty>  (87) 
0

>  <ligand_id>  (87) 
31

>  <original_smiles>  (87) 
CC(C)(C)n1c(-c2ccc[nH]c2=O)nc2cnccc21

>  <smiles>  (87) 
[H]c1c([H])c([H])n([H])c(=O)c1-c1nc2c([H])[n+]([H])c([H])c([H])c2n1C(C([H])([H])[H])(C([H])([H])[H])C([H])([H])[H]

$$$$
32:0:0
     RDKit          3D

 29 31  0  0  1  0  0  0  0  0999 V2000
    0.2317  -10.5611    2.4821 C   0  0  0  0  0  0  0  0  0  0  0  0
   -0.2788   -9.2058    2.5642 N   0  0  0  0  0  0  0  0  0  0  0  0
   -1.5867   -8.9909    2.8343 N   0  0  0  0  0  0  0  0  0  0  0  0
   -1.7549   -7.7052    2.8777 N   0  0  0  0  0  0  0  0  0  0  0  0
   -0.5788   -7.0338    2.6020 N   0  0  0  0  0  0  0  0  0  0  0  0
    0.3071   -8.0076    2.4175 C   0  0  0  0  0  0  0  0  0  0  0  0
    1.7712   -7.8186    2.1401 C   0  0  0  0  0  0  0  0  0  0  0  0
    1.9445   -6.6170    1.3886 O   0  0  0  0  0  0  0  0  0  0  0  0
    3.2336   -6.1920    1.1026 C   0  0  0  0  0  0  0  0  0  0  0  0
    4.3935   -6.8053    1.6506 C   0  0  0  0  0  0  0  0  0  0  0  0
    5.6782   -6.3206    1.3463 C   0  0  0  0  0  0  0  0  0  0  0  0
    5.8329   -5.2297    0.4790 C   0  0  0  0  0  0  0  0  0  0  0  0
    4.6956   -4.6161   -0.0797 C   0  0  0  0  0  0  0  0  0  0  0  0
    4.8550   -3.5274   -0.9611 C   0  0  0  0  0  0  0  0  0  0  0  0
    3.7064   -2.9343   -1.5124 C   0  0  0  0  0  0  0  0  0  0  0  0
    2.4516   -3.4570   -1.1553 C   0  0  0  0  0  0  0  0  0  0  0  0
    2.2906   -4.4869   -0.3006 N   0  0  0  0  0  0  0  0  0  0  0  0
    3.3852   -5.0820    0.2311 C   0  0  0  0  0  0  0  0  0  0  0  0
    1.2996  -10.5766    2.2726 H   0  0  0  0  0  0  0  0  0  0  0  0
   -0.2882  -11.0844    1.6818 H   0  0  0  0  0  0  0  0  0  0  0  0
    0.0633  -11.0711    3.4328 H   0  0  0  0  0  0  0  0  0  0  0  0
    2.2786   -7.7800    3.1035 H   0  0  0  0  0  0  0  0  0  0  0  0
    2.1635   -8.6557    1.5641 H   0  0  0  0  0  0  0  0  0  0  0  0
    4.3341   -7.6446    2.3245 H   0  0  0  0  0  0  0  0  0  0  0  0
    6.5539   -6.7877    1.7766 H   0  0  0  0  0  0  0  0  0  0  0  0
    6.8212   -4.8648    0.2438 H   0  0  0  0  0  0  0  0  0  0  0  0
    5.8371   -3.1555   -1.2171 H   0  0  0  0  0  0  0  0  0  0  0  0
    3.7723   -2.0961   -2.1930 H   0  0  0  0  0  0  0  0  0  0  0  0
    1.5400   -3.0574   -1.5775 H   0  0  0  0  0  0  0  0  0  0  0  0
  1  2  1  0
  1 19  1  0
  1 20  1  0
  1 21  1  0
  2  6  1  0
  2  3  1  0
  3  4  2  0
  4  5  1  0
  5  6  2  0
  6  7  1  0
  7  8  1  0
  7 22  1  0
  7 23  1  0
  8  9  1  0
  9 18  1  0
  9 10  2  0
 10 11  1  0
 10 24  1  0
 11 12  2  0
 11 25  1  0
 12 13  1  0
 12 26  1  0
 13 18  2  0
 13 14  1  0
 14 15  2  0
 14 27  1  0
 15 16  1  0
 15 28  1  0
 16 17  2  0
 16 29  1  0
 17 18  1  0
M  END
>  <i_m_ct_stereo_status>  (88) 
1

>  <s_m_source_file>  (88) 
/var/tmp/pbs.5076255.sched01/tmp9stzsw2m/06nqgg2pe.sdf

>  <i_m_source_file_index>  (88) 
44

>  <i_lp_mmshare_version>  (88) 
48012

>  <i_f3d_flags>  (88) 
0

>  <s_epik_input>  (88) 
W0NIM11uMW5ubmMxW0NIMl1PYyhbY0hdW2NIXVtjSF0yKWMoYzIzKW5bY0hdW2NIXVtjSF0z

>  <s_epik_cmdline>  (88) 
J2VwaWtfcHl0aG9uJywgJy1waHQnLCAnMi4wJywgJy1waCcsICc3LjAnLCAnLXRuJywgJzgnLCAnLW1hJywgJzIwMCcsICctaW1hZScsICc8aW5maWxlLm1hZT4nLCAnLW9tYWUnLCAnPG91dGZpbGUubWFlPic=

>  <r_lp_tautomer_probability>  (88) 
1

>  <r_epik_Ionization_Penalty>  (88) 
0.00170443

>  <r_epik_Ionization_Penalty_Charging>  (88) 
0

>  <r_epik_Ionization_Penalty_Neutral>  (88) 
0.00170443

>  <r_epik_State_Penalty>  (88) 
0.00115177

>  <r_epik_Charging_Adjusted_Penalty>  (88) 
0.00115177

>  <i_epik_Tot_Q>  (88) 
0

>  <i_epik_Tot_abs_Q>  (88) 
0

>  <s_lp_Force_Field>  (88) 
OPLS3e

>  <r_lp_Energy>  (88) 
28.7156

>  <b_lp_Chiralities_Consistent>  (88) 
1

>  <s_lp_Variant>  (88) 
32:0-1

>  <s_i_glide_gridfile>  (88) 
pfpi4k_grid

>  <i_i_glide_lignum>  (88) 
44

>  <i_i_glide_rotatable_bonds>  (88) 
3

>  <r_i_docking_score>  (88) 
-3.4967

>  <r_i_glide_ligand_efficiency>  (88) 
-0.194261

>  <r_i_glide_ligand_efficiency_sa>  (88) 
-0.509109

>  <r_i_glide_ligand_efficiency_ln>  (88) 
-0.89881

>  <r_i_glide_gscore>  (88) 
-3.4967

>  <r_i_glide_lipo>  (88) 
-0.523146

>  <r_i_glide_hbond>  (88) 
0

>  <r_i_glide_metal>  (88) 
-0

>  <r_i_glide_rewards>  (88) 
-1.76421

>  <r_i_glide_evdw>  (88) 
-24.6497

>  <r_i_glide_ecoul>  (88) 
-4.35098

>  <r_i_glide_erotb>  (88) 
0.892795

>  <r_i_glide_esite>  (88) 
-0.21701

>  <r_i_glide_emodel>  (88) 
-36.0445

>  <r_i_glide_energy>  (88) 
-29.0006

>  <r_i_glide_einternal>  (88) 
0.789303

>  <r_i_glide_intrahb_reward>  (88) 
-0

>  <i_i_glide_confnum>  (88) 
3

>  <i_i_glide_posenum>  (88) 
15

>  <r_i_glide_eff_state_penalty>  (88) 
0

>  <ligand_id>  (88) 
32

>  <original_smiles>  (88) 
Cn1nnnc1COc1cccc2cccnc12

>  <smiles>  (88) 
[H]c1nc2c(OC([H])([H])c3nnnn3C([H])([H])[H])c([H])c([H])c([H])c2c([H])c1[H]

$$$$
32:0:1
     RDKit          3D

 29 31  0  0  1  0  0  0  0  0999 V2000
    1.1874   -1.1984    3.5345 C   0  0  0  0  0  0  0  0  0  0  0  0
    0.0652   -1.4163    4.4217 N   0  0  0  0  0  0  0  0  0  0  0  0
   -0.9348   -0.5017    4.5012 N   0  0  0  0  0  0  0  0  0  0  0  0
   -1.7866   -0.9505    5.3773 N   0  0  0  0  0  0  0  0  0  0  0  0
   -1.3744   -2.1608    5.8978 N   0  0  0  0  0  0  0  0  0  0  0  0
   -0.2258   -2.4033    5.2753 C   0  0  0  0  0  0  0  0  0  0  0  0
    0.6454   -3.5889    5.5639 C   0  0  0  0  0  0  0  0  0  0  0  0
    0.2027   -4.6735    4.7450 O   0  0  0  0  0  0  0  0  0  0  0  0
    0.3392   -5.9843    5.1742 C   0  0  0  0  0  0  0  0  0  0  0  0
    0.7589   -6.3298    6.4864 C   0  0  0  0  0  0  0  0  0  0  0  0
    0.8455   -7.6704    6.8895 C   0  0  0  0  0  0  0  0  0  0  0  0
    0.5314   -8.7009    5.9906 C   0  0  0  0  0  0  0  0  0  0  0  0
    0.1261   -8.3780    4.6829 C   0  0  0  0  0  0  0  0  0  0  0  0
   -0.1834   -9.4165    3.7827 C   0  0  0  0  0  0  0  0  0  0  0  0
   -0.5938   -9.0883    2.4803 C   0  0  0  0  0  0  0  0  0  0  0  0
   -0.6664   -7.7308    2.1332 C   0  0  0  0  0  0  0  0  0  0  0  0
   -0.3824   -6.7221    2.9870 N   0  0  0  0  0  0  0  0  0  0  0  0
    0.0191   -7.0228    4.2540 C   0  0  0  0  0  0  0  0  0  0  0  0
    1.9058   -2.0175    3.5988 H   0  0  0  0  0  0  0  0  0  0  0  0
    1.6912   -0.2654    3.8011 H   0  0  0  0  0  0  0  0  0  0  0  0
    0.8246   -1.1327    2.5070 H   0  0  0  0  0  0  0  0  0  0  0  0
    1.6900   -3.3694    5.3431 H   0  0  0  0  0  0  0  0  0  0  0  0
    0.5539   -3.7441    6.6343 H   0  0  0  0  0  0  0  0  0  0  0  0
    1.0215   -5.5983    7.2344 H   0  0  0  0  0  0  0  0  0  0  0  0
    1.1572   -7.9084    7.8958 H   0  0  0  0  0  0  0  0  0  0  0  0
    0.6069   -9.7306    6.3113 H   0  0  0  0  0  0  0  0  0  0  0  0
   -0.1205  -10.4501    4.0924 H   0  0  0  0  0  0  0  0  0  0  0  0
   -0.8433   -9.8640    1.7709 H   0  0  0  0  0  0  0  0  0  0  0  0
   -0.9715   -7.4535    1.1334 H   0  0  0  0  0  0  0  0  0  0  0  0
  1  2  1  0
  1 19  1  0
  1 20  1  0
  1 21  1  0
  2  6  1  0
  2  3  1  0
  3  4  2  0
  4  5  1  0
  5  6  2  0
  6  7  1  0
  7  8  1  0
  7 22  1  0
  7 23  1  0
  8  9  1  0
  9 18  1  0
  9 10  2  0
 10 11  1  0
 10 24  1  0
 11 12  2  0
 11 25  1  0
 12 13  1  0
 12 26  1  0
 13 18  2  0
 13 14  1  0
 14 15  2  0
 14 27  1  0
 15 16  1  0
 15 28  1  0
 16 17  2  0
 16 29  1  0
 17 18  1  0
M  END
>  <i_m_ct_stereo_status>  (89) 
1

>  <s_m_source_file>  (89) 
/var/tmp/pbs.5076255.sched01/tmp9stzsw2m/06nqgg2pe.sdf

>  <i_m_source_file_index>  (89) 
44

>  <i_lp_mmshare_version>  (89) 
48012

>  <i_f3d_flags>  (89) 
0

>  <s_epik_input>  (89) 
W0NIM11uMW5ubmMxW0NIMl1PYyhbY0hdW2NIXVtjSF0yKWMoYzIzKW5bY0hdW2NIXVtjSF0z

>  <s_epik_cmdline>  (89) 
J2VwaWtfcHl0aG9uJywgJy1waHQnLCAnMi4wJywgJy1waCcsICc3LjAnLCAnLXRuJywgJzgnLCAnLW1hJywgJzIwMCcsICctaW1hZScsICc8aW5maWxlLm1hZT4nLCAnLW9tYWUnLCAnPG91dGZpbGUubWFlPic=

>  <r_lp_tautomer_probability>  (89) 
1

>  <r_epik_Ionization_Penalty>  (89) 
0.00170443

>  <r_epik_Ionization_Penalty_Charging>  (89) 
0

>  <r_epik_Ionization_Penalty_Neutral>  (89) 
0.00170443

>  <r_epik_State_Penalty>  (89) 
0.00115177

>  <r_epik_Charging_Adjusted_Penalty>  (89) 
0.00115177

>  <i_epik_Tot_Q>  (89) 
0

>  <i_epik_Tot_abs_Q>  (89) 
0

>  <s_lp_Force_Field>  (89) 
OPLS3e

>  <r_lp_Energy>  (89) 
28.7156

>  <b_lp_Chiralities_Consistent>  (89) 
1

>  <s_lp_Variant>  (89) 
32:0-1

>  <s_i_glide_gridfile>  (89) 
pfpi4k_grid

>  <i_i_glide_lignum>  (89) 
44

>  <i_i_glide_rotatable_bonds>  (89) 
3

>  <r_i_docking_score>  (89) 
-3.08934

>  <r_i_glide_ligand_efficiency>  (89) 
-0.17163

>  <r_i_glide_ligand_efficiency_sa>  (89) 
-0.449798

>  <r_i_glide_ligand_efficiency_ln>  (89) 
-0.7941

>  <r_i_glide_gscore>  (89) 
-3.08934

>  <r_i_glide_lipo>  (89) 
-0.0427154

>  <r_i_glide_hbond>  (89) 
-0.16

>  <r_i_glide_metal>  (89) 
-0

>  <r_i_glide_rewards>  (89) 
-1.76421

>  <r_i_glide_evdw>  (89) 
-19.0678

>  <r_i_glide_ecoul>  (89) 
-6.01254

>  <r_i_glide_erotb>  (89) 
0.892795

>  <r_i_glide_esite>  (89) 
-0.159935

>  <r_i_glide_emodel>  (89) 
-30.6657

>  <r_i_glide_energy>  (89) 
-25.0804

>  <r_i_glide_einternal>  (89) 
1.59911

>  <r_i_glide_intrahb_reward>  (89) 
-0

>  <i_i_glide_confnum>  (89) 
3

>  <i_i_glide_posenum>  (89) 
10

>  <r_i_glide_eff_state_penalty>  (89) 
0

>  <ligand_id>  (89) 
32

>  <original_smiles>  (89) 
Cn1nnnc1COc1cccc2cccnc12

>  <smiles>  (89) 
[H]c1nc2c(OC([H])([H])c3nnnn3C([H])([H])[H])c([H])c([H])c([H])c2c([H])c1[H]

$$$$
32:0:2
     RDKit          3D

 29 31  0  0  1  0  0  0  0  0999 V2000
    2.3434   -9.1279    2.5770 C   0  0  0  0  0  0  0  0  0  0  0  0
    1.3885   -8.0823    2.2559 N   0  0  0  0  0  0  0  0  0  0  0  0
    0.0696   -8.2922    2.4655 N   0  0  0  0  0  0  0  0  0  0  0  0
   -0.5484   -7.2126    2.0872 N   0  0  0  0  0  0  0  0  0  0  0  0
    0.3449   -6.2572    1.6550 N   0  0  0  0  0  0  0  0  0  0  0  0
    1.5356   -6.8398    1.7719 C   0  0  0  0  0  0  0  0  0  0  0  0
    2.8649   -6.2121    1.4632 C   0  0  0  0  0  0  0  0  0  0  0  0
    2.6689   -5.1505    0.5295 O   0  0  0  0  0  0  0  0  0  0  0  0
    3.7776   -4.4424    0.0838 C   0  0  0  0  0  0  0  0  0  0  0  0
    5.0604   -4.5475    0.6875 C   0  0  0  0  0  0  0  0  0  0  0  0
    6.1585   -3.8128    0.1923 C   0  0  0  0  0  0  0  0  0  0  0  0
    6.0007   -2.9792   -0.9261 C   0  0  0  0  0  0  0  0  0  0  0  0
    4.7361   -2.8638   -1.5366 C   0  0  0  0  0  0  0  0  0  0  0  0
    4.5773   -2.0352   -2.6690 C   0  0  0  0  0  0  0  0  0  0  0  0
    3.3165   -1.9534   -3.2835 C   0  0  0  0  0  0  0  0  0  0  0  0
    2.2624   -2.6929   -2.7170 C   0  0  0  0  0  0  0  0  0  0  0  0
    2.3905   -3.4559   -1.6119 N   0  0  0  0  0  0  0  0  0  0  0  0
    3.6037   -3.5747   -1.0278 C   0  0  0  0  0  0  0  0  0  0  0  0
    3.3621   -8.7981    2.3869 H   0  0  0  0  0  0  0  0  0  0  0  0
    2.1396  -10.0110    1.9696 H   0  0  0  0  0  0  0  0  0  0  0  0
    2.2562   -9.3988    3.6303 H   0  0  0  0  0  0  0  0  0  0  0  0
    3.2959   -5.8567    2.4002 H   0  0  0  0  0  0  0  0  0  0  0  0
    3.5314   -6.9590    1.0318 H   0  0  0  0  0  0  0  0  0  0  0  0
    5.2364   -5.1703    1.5492 H   0  0  0  0  0  0  0  0  0  0  0  0
    7.1272   -3.8889    0.6691 H   0  0  0  0  0  0  0  0  0  0  0  0
    6.8487   -2.4282   -1.3103 H   0  0  0  0  0  0  0  0  0  0  0  0
    5.4037   -1.4650   -3.0612 H   0  0  0  0  0  0  0  0  0  0  0  0
    3.1341   -1.3161   -4.1417 H   0  0  0  0  0  0  0  0  0  0  0  0
    1.2827   -2.6664   -3.1619 H   0  0  0  0  0  0  0  0  0  0  0  0
  1  2  1  0
  1 19  1  0
  1 20  1  0
  1 21  1  0
  2  6  1  0
  2  3  1  0
  3  4  2  0
  4  5  1  0
  5  6  2  0
  6  7  1  0
  7  8  1  0
  7 22  1  0
  7 23  1  0
  8  9  1  0
  9 18  1  0
  9 10  2  0
 10 11  1  0
 10 24  1  0
 11 12  2  0
 11 25  1  0
 12 13  1  0
 12 26  1  0
 13 18  2  0
 13 14  1  0
 14 15  2  0
 14 27  1  0
 15 16  1  0
 15 28  1  0
 16 17  2  0
 16 29  1  0
 17 18  1  0
M  END
>  <i_m_ct_stereo_status>  (90) 
1

>  <s_m_source_file>  (90) 
/var/tmp/pbs.5076255.sched01/tmp9stzsw2m/06nqgg2pe.sdf

>  <i_m_source_file_index>  (90) 
44

>  <i_lp_mmshare_version>  (90) 
48012

>  <i_f3d_flags>  (90) 
0

>  <s_epik_input>  (90) 
W0NIM11uMW5ubmMxW0NIMl1PYyhbY0hdW2NIXVtjSF0yKWMoYzIzKW5bY0hdW2NIXVtjSF0z

>  <s_epik_cmdline>  (90) 
J2VwaWtfcHl0aG9uJywgJy1waHQnLCAnMi4wJywgJy1waCcsICc3LjAnLCAnLXRuJywgJzgnLCAnLW1hJywgJzIwMCcsICctaW1hZScsICc8aW5maWxlLm1hZT4nLCAnLW9tYWUnLCAnPG91dGZpbGUubWFlPic=

>  <r_lp_tautomer_probability>  (90) 
1

>  <r_epik_Ionization_Penalty>  (90) 
0.00170443

>  <r_epik_Ionization_Penalty_Charging>  (90) 
0

>  <r_epik_Ionization_Penalty_Neutral>  (90) 
0.00170443

>  <r_epik_State_Penalty>  (90) 
0.00115177

>  <r_epik_Charging_Adjusted_Penalty>  (90) 
0.00115177

>  <i_epik_Tot_Q>  (90) 
0

>  <i_epik_Tot_abs_Q>  (90) 
0

>  <s_lp_Force_Field>  (90) 
OPLS3e

>  <r_lp_Energy>  (90) 
28.7156

>  <b_lp_Chiralities_Consistent>  (90) 
1

>  <s_lp_Variant>  (90) 
32:0-1

>  <s_i_glide_gridfile>  (90) 
pfpi4k_grid

>  <i_i_glide_lignum>  (90) 
44

>  <i_i_glide_rotatable_bonds>  (90) 
3

>  <r_i_docking_score>  (90) 
-2.93648

>  <r_i_glide_ligand_efficiency>  (90) 
-0.163138

>  <r_i_glide_ligand_efficiency_sa>  (90) 
-0.427542

>  <r_i_glide_ligand_efficiency_ln>  (90) 
-0.754807

>  <r_i_glide_gscore>  (90) 
-2.93648

>  <r_i_glide_lipo>  (90) 
-0.365752

>  <r_i_glide_hbond>  (90) 
0

>  <r_i_glide_metal>  (90) 
-0

>  <r_i_glide_rewards>  (90) 
-1.76421

>  <r_i_glide_evdw>  (90) 
-23.5107

>  <r_i_glide_ecoul>  (90) 
-1.4239

>  <r_i_glide_erotb>  (90) 
0.892795

>  <r_i_glide_esite>  (90) 
-0.310192

>  <r_i_glide_emodel>  (90) 
-30.6443

>  <r_i_glide_energy>  (90) 
-24.9346

>  <r_i_glide_einternal>  (90) 
1.03572

>  <r_i_glide_intrahb_reward>  (90) 
-0

>  <i_i_glide_confnum>  (90) 
3

>  <i_i_glide_posenum>  (90) 
23

>  <r_i_glide_eff_state_penalty>  (90) 
0

>  <ligand_id>  (90) 
32

>  <original_smiles>  (90) 
Cn1nnnc1COc1cccc2cccnc12

>  <smiles>  (90) 
[H]c1nc2c(OC([H])([H])c3nnnn3C([H])([H])[H])c([H])c([H])c([H])c2c([H])c1[H]

$$$$
34:0:0
     RDKit          3D

 99104  0  0  1  0  0  0  0  0999 V2000
    5.4257   -7.4071    5.4278 C   0  0  0  0  0  0  0  0  0  0  0  0
    4.8820   -6.8888    4.0731 C   0  0  1  0  0  0  0  0  0  0  0  0
    5.9852   -6.9553    3.1871 O   0  0  0  0  0  0  0  0  0  0  0  0
    3.8274   -7.8357    3.5066 C   0  0  0  0  0  0  0  0  0  0  0  0
    2.5657   -7.8901    4.4041 C   0  0  2  0  0  0  0  0  0  0  0  0
    1.6339   -9.1434    4.0641 C   0  0  0  0  0  0  0  0  0  0  0  0
    2.4725  -10.4292    3.8187 C   0  0  0  0  0  0  0  0  0  0  0  0
    0.7006   -9.5207    5.2493 C   0  0  0  0  0  0  0  0  0  0  0  0
    0.8161   -8.8548    2.7815 C   0  0  1  0  0  0  0  0  0  0  0  0
   -0.1011   -9.8851    2.4765 O   0  0  0  0  0  0  0  0  0  0  0  0
    0.0583   -7.5336    2.8711 C   0  0  0  0  0  0  0  0  0  0  0  0
    1.0232   -6.3724    3.1405 C   0  0  0  0  0  0  0  0  0  0  0  0
    1.8705   -6.4519    4.4502 C   0  0  1  0  0  0  0  0  0  0  0  0
    0.9479   -6.4605    5.7189 C   0  0  0  0  0  0  0  0  0  0  0  0
    2.9173   -5.2087    4.6396 C   0  0  1  0  0  0  0  0  0  0  0  0
    4.3617   -5.4270    4.0910 C   0  0  1  0  0  0  0  0  0  0  0  0
    5.3300   -4.5399    4.8955 C   0  0  0  0  0  0  0  0  0  0  0  0
    4.9867   -3.0579    4.8739 C   0  0  0  0  0  0  0  0  0  0  0  0
    3.5048   -2.7146    5.2433 C   0  0  2  0  0  0  0  0  0  0  0  0
    2.4859   -3.6448    4.4225 C   0  0  2  0  0  0  0  0  0  0  0  0
    1.0435   -3.4603    4.9732 C   0  0  0  0  0  0  0  0  0  0  0  0
    2.5832   -3.1205    2.9414 C   0  0  1  0  0  0  0  0  0  0  0  0
    2.2163   -4.0465    1.9543 O   0  0  0  0  0  0  0  0  0  0  0  0
    1.8124   -1.8304    2.5536 C   0  0  0  0  0  0  0  0  0  0  0  0
    1.9755   -0.4745    3.3207 C   0  0  1  0  0  0  0  0  0  0  0  0
    0.6787   -0.0061    4.0574 C   0  0  1  0  0  0  0  0  0  0  0  0
    0.7642   -0.1216    5.6093 C   0  0  0  0  0  0  0  0  0  0  0  0
    1.9829   -0.8194    6.2738 C   0  0  0  0  0  0  0  0  0  0  0  0
    3.2793   -1.1186    5.4332 C   0  0  1  0  0  0  0  0  0  0  0  0
    4.4275   -0.6316    6.3875 C   0  0  0  0  0  0  0  0  0  0  0  0
    3.2641   -0.1863    4.1368 C   0  0  1  0  0  0  0  0  0  0  0  0
    4.5028   -0.3008    3.2036 C   0  0  0  0  0  0  0  0  0  0  0  0
    3.2868    1.3391    4.5590 C   0  0  0  0  0  0  0  0  0  0  0  0
    2.5952    2.3818    3.6410 C   0  0  0  0  0  0  0  0  0  0  0  0
    1.0839    2.5753    3.9155 C   0  0  1  0  0  0  0  0  0  0  0  0
    0.6530    3.7843    3.2978 O   0  0  0  0  0  0  0  0  0  0  0  0
    0.1298    1.3859    3.5624 C   0  0  0  0  0  0  0  0  0  0  0  0
   -0.1478    1.3437    2.0411 C   0  0  0  0  0  0  0  0  0  0  0  0
   -1.2497    1.6357    4.2278 C   0  0  0  0  0  0  0  0  0  0  0  0
    4.7401   -7.1941    6.2513 H   0  0  0  0  0  0  0  0  0  0  0  0
    6.3861   -6.9497    5.6776 H   0  0  0  0  0  0  0  0  0  0  0  0
    5.5852   -8.4857    5.3972 H   0  0  0  0  0  0  0  0  0  0  0  0
    5.6794   -6.7734    2.3135 H   0  0  0  0  0  0  0  0  0  0  0  0
    3.5652   -7.5301    2.4928 H   0  0  0  0  0  0  0  0  0  0  0  0
    4.3121   -8.8019    3.3991 H   0  0  0  0  0  0  0  0  0  0  0  0
    2.9331   -8.1094    5.4059 H   0  0  0  0  0  0  0  0  0  0  0  0
    1.8507  -11.3253    3.7883 H   0  0  0  0  0  0  0  0  0  0  0  0
    3.2186  -10.5817    4.6004 H   0  0  0  0  0  0  0  0  0  0  0  0
    2.9859  -10.4058    2.8551 H   0  0  0  0  0  0  0  0  0  0  0  0
    0.2325  -10.4951    5.1073 H   0  0  0  0  0  0  0  0  0  0  0  0
   -0.1303   -8.8291    5.3775 H   0  0  0  0  0  0  0  0  0  0  0  0
    1.2435   -9.5764    6.1927 H   0  0  0  0  0  0  0  0  0  0  0  0
    1.5022   -8.8057    1.9361 H   0  0  0  0  0  0  0  0  0  0  0  0
   -0.2171   -9.9114    1.5321 H   0  0  0  0  0  0  0  0  0  0  0  0
   -0.4486   -7.3574    1.9228 H   0  0  0  0  0  0  0  0  0  0  0  0
   -0.7311   -7.5773    3.6194 H   0  0  0  0  0  0  0  0  0  0  0  0
    1.7083   -6.3698    2.2978 H   0  0  0  0  0  0  0  0  0  0  0  0
    0.4561   -5.4549    3.0617 H   0  0  0  0  0  0  0  0  0  0  0  0
    1.0631   -5.5954    6.3632 H   0  0  0  0  0  0  0  0  0  0  0  0
    1.1873   -7.2669    6.4084 H   0  0  0  0  0  0  0  0  0  0  0  0
   -0.1120   -6.5266    5.4807 H   0  0  0  0  0  0  0  0  0  0  0  0
    3.0911   -5.2686    5.7133 H   0  0  0  0  0  0  0  0  0  0  0  0
    4.3725   -5.1067    3.0532 H   0  0  0  0  0  0  0  0  0  0  0  0
    5.3437   -4.8470    5.9409 H   0  0  0  0  0  0  0  0  0  0  0  0
    6.3475   -4.6711    4.5301 H   0  0  0  0  0  0  0  0  0  0  0  0
    5.6878   -2.6214    5.5784 H   0  0  0  0  0  0  0  0  0  0  0  0
    5.2885   -2.6719    3.9081 H   0  0  0  0  0  0  0  0  0  0  0  0
    3.4160   -3.0925    6.2632 H   0  0  0  0  0  0  0  0  0  0  0  0
    0.6043   -2.5121    4.7266 H   0  0  0  0  0  0  0  0  0  0  0  0
    1.0266   -3.5403    6.0557 H   0  0  0  0  0  0  0  0  0  0  0  0
    0.3158   -4.1719    4.6078 H   0  0  0  0  0  0  0  0  0  0  0  0
    3.6212   -2.9896    2.6728 H   0  0  0  0  0  0  0  0  0  0  0  0
    2.5254   -3.7255    1.1217 H   0  0  0  0  0  0  0  0  0  0  0  0
    2.0950   -1.6153    1.5191 H   0  0  0  0  0  0  0  0  0  0  0  0
    0.7557   -2.0791    2.4616 H   0  0  0  0  0  0  0  0  0  0  0  0
    2.0890    0.1783    2.4645 H   0  0  0  0  0  0  0  0  0  0  0  0
   -0.1147   -0.6967    3.7707 H   0  0  0  0  0  0  0  0  0  0  0  0
    0.7193    0.8731    6.0412 H   0  0  0  0  0  0  0  0  0  0  0  0
   -0.1481   -0.5919    5.9739 H   0  0  0  0  0  0  0  0  0  0  0  0
    2.2246   -0.1688    7.1166 H   0  0  0  0  0  0  0  0  0  0  0  0
    1.6641   -1.7029    6.8146 H   0  0  0  0  0  0  0  0  0  0  0  0
    4.2533    0.3551    6.8184 H   0  0  0  0  0  0  0  0  0  0  0  0
    5.3960   -0.5424    5.8951 H   0  0  0  0  0  0  0  0  0  0  0  0
    4.5449   -1.3040    7.2378 H   0  0  0  0  0  0  0  0  0  0  0  0
    5.4467   -0.3130    3.7473 H   0  0  0  0  0  0  0  0  0  0  0  0
    4.5524    0.5427    2.5243 H   0  0  0  0  0  0  0  0  0  0  0  0
    4.4918   -1.1597    2.5439 H   0  0  0  0  0  0  0  0  0  0  0  0
    2.8708    1.4958    5.5504 H   0  0  0  0  0  0  0  0  0  0  0  0
    4.3252    1.6452    4.6883 H   0  0  0  0  0  0  0  0  0  0  0  0
    3.0736    3.3359    3.8639 H   0  0  0  0  0  0  0  0  0  0  0  0
    2.8070    2.2153    2.5867 H   0  0  0  0  0  0  0  0  0  0  0  0
    0.9914    2.7779    4.9840 H   0  0  0  0  0  0  0  0  0  0  0  0
    0.6079    3.7123    2.3441 H   0  0  0  0  0  0  0  0  0  0  0  0
   -0.8051    2.1496    1.7311 H   0  0  0  0  0  0  0  0  0  0  0  0
   -0.6437    0.4161    1.7486 H   0  0  0  0  0  0  0  0  0  0  0  0
    0.7484    1.4418    1.4307 H   0  0  0  0  0  0  0  0  0  0  0  0
   -1.7174    2.5413    3.8394 H   0  0  0  0  0  0  0  0  0  0  0  0
   -1.1839    1.7655    5.3083 H   0  0  0  0  0  0  0  0  0  0  0  0
   -1.9417    0.8149    4.0389 H   0  0  0  0  0  0  0  0  0  0  0  0
  1  2  1  0
  1 40  1  0
  1 41  1  0
  1 42  1  0
  2 16  1  0
  2  3  1  6
  2  4  1  0
  3 43  1  0
  4  5  1  0
  4 44  1  0
  4 45  1  0
  5 13  1  0
  5  6  1  0
  5 46  1  1
  6  7  1  0
  6  8  1  0
  6  9  1  0
  7 47  1  0
  7 48  1  0
  7 49  1  0
  8 50  1  0
  8 51  1  0
  8 52  1  0
  9 10  1  0
  9 11  1  0
  9 53  1  6
 10 54  1  0
 11 12  1  0
 11 55  1  0
 11 56  1  0
 12 13  1  0
 12 57  1  0
 12 58  1  0
 13 14  1  1
 13 15  1  0
 14 59  1  0
 14 60  1  0
 14 61  1  0
 15 20  1  0
 15 16  1  0
 15 62  1  1
 16 17  1  0
 16 63  1  6
 17 18  1  0
 17 64  1  0
 17 65  1  0
 18 19  1  0
 18 66  1  0
 18 67  1  0
 19 29  1  0
 19 20  1  0
 19 68  1  1
 20 21  1  1
 20 22  1  0
 21 69  1  0
 21 70  1  0
 21 71  1  0
 22 23  1  0
 22 24  1  0
 22 72  1  6
 23 73  1  0
 24 25  1  0
 24 74  1  0
 24 75  1  0
 25 31  1  0
 25 26  1  0
 25 76  1  6
 26 37  1  0
 26 27  1  0
 26 77  1  6
 27 28  1  0
 27 78  1  0
 27 79  1  0
 28 29  1  0
 28 80  1  0
 28 81  1  0
 29 30  1  1
 29 31  1  0
 30 82  1  0
 30 83  1  0
 30 84  1  0
 31 32  1  6
 31 33  1  0
 32 85  1  0
 32 86  1  0
 32 87  1  0
 33 34  1  0
 33 88  1  0
 33 89  1  0
 34 35  1  0
 34 90  1  0
 34 91  1  0
 35 36  1  0
 35 37  1  0
 35 92  1  1
 36 93  1  0
 37 38  1  0
 37 39  1  0
 38 94  1  0
 38 95  1  0
 38 96  1  0
 39 97  1  0
 39 98  1  0
 39 99  1  0
M  END
>  <i_m_ct_stereo_status>  (91) 
1

>  <s_m_source_file>  (91) 
/var/tmp/pbs.5076255.sched01/tmpjtt61wjg/4457_394l_.sdf

>  <i_m_source_file_index>  (91) 
2

>  <i_lp_mmshare_version>  (91) 
48012

>  <i_f3d_flags>  (91) 
0

>  <s_epik_input>  (91) 
W0NIMl0xW0NIMl1bQ0BIXShbT0hdKUMoW0NIM10pKFtDSDNdKVtDQEhdKFtDQF0xMltDSDNdKVtDSDJdW0NAQF0oW0NIM10pKFtPSF0pW0NASF0zW0NASF0yW0NAQF00KFtDSDNdKVtDQEBIXShbQ0gyXVtDSDJdMylbQ0BAXTUoW0NIM10pW0NAQF02KFtDSDNdKVtDQEBIXShbQ0gyXVtDQEBIXTRbT0hdKVtDQEBIXShbQ0gyXVtDSDJdNSlDKFtDSDNdKShbQ0gzXSlbQ0BIXShbT0hdKVtDSDJdW0NIMl02

>  <s_epik_cmdline>  (91) 
J2VwaWtfcHl0aG9uJywgJy1waHQnLCAnMi4wJywgJy1waCcsICc3LjAnLCAnLXRuJywgJzgnLCAnLW1hJywgJzIwMCcsICctaW1hZScsICc8aW5maWxlLm1hZT4nLCAnLW9tYWUnLCAnPG91dGZpbGUubWFlPic=

>  <r_lp_tautomer_probability>  (91) 
1

>  <r_epik_Ionization_Penalty>  (91) 
1.25331e-05

>  <r_epik_Ionization_Penalty_Charging>  (91) 
0

>  <r_epik_Ionization_Penalty_Neutral>  (91) 
1.25331e-05

>  <r_epik_State_Penalty>  (91) 
-0

>  <r_epik_Charging_Adjusted_Penalty>  (91) 
0

>  <i_epik_Tot_Q>  (91) 
0

>  <i_epik_Tot_abs_Q>  (91) 
0

>  <s_lp_Force_Field>  (91) 
OPLS3e

>  <r_lp_Energy>  (91) 
170.477

>  <b_lp_Chiralities_Consistent>  (91) 
1

>  <s_lp_Variant>  (91) 
34:0-1

>  <s_i_glide_gridfile>  (91) 
pfpi4k_grid

>  <i_i_glide_lignum>  (91) 
2

>  <i_i_glide_rotatable_bonds>  (91) 
4

>  <r_i_docking_score>  (91) 
-3.16818

>  <r_i_glide_ligand_efficiency>  (91) 
-0.0812353

>  <r_i_glide_ligand_efficiency_sa>  (91) 
-0.275486

>  <r_i_glide_ligand_efficiency_ln>  (91) 
-0.679347

>  <r_i_glide_gscore>  (91) 
-3.16818

>  <r_i_glide_lipo>  (91) 
-0.110262

>  <r_i_glide_hbond>  (91) 
-0.456

>  <r_i_glide_metal>  (91) 
-0

>  <r_i_glide_rewards>  (91) 
0

>  <r_i_glide_evdw>  (91) 
-31.65

>  <r_i_glide_ecoul>  (91) 
-6.79612

>  <r_i_glide_erotb>  (91) 
0

>  <r_i_glide_esite>  (91) 
0

>  <r_i_glide_emodel>  (91) 
-45.3682

>  <r_i_glide_energy>  (91) 
-38.4461

>  <r_i_glide_einternal>  (91) 
1.26747

>  <r_i_glide_intrahb_reward>  (91) 
-0

>  <i_i_glide_confnum>  (91) 
2

>  <i_i_glide_posenum>  (91) 
18

>  <r_i_glide_eff_state_penalty>  (91) 
0

>  <ligand_id>  (91) 
34

>  <original_smiles>  (91) 
CC1(O)CC2C(C)(C)C(O)CCC2(C)C2C1CCC1C2(C)C(O)CC2C3CCC1(C)C2(C)CCC(O)C3(C)C

>  <smiles>  (91) 
[H]OC1([H])C([H])([H])C([H])([H])C2(C([H])([H])[H])C3([H])C([H])([H])C([H])(O[H])C4(C([H])([H])[H])C5([H])C([H])(C([H])([H])C([H])([H])C4([H])C2(C([H])([H])[H])C([H])([H])C([H])([H])C3([H])C1(C([H])([H])[H])C([H])([H])[H])C(O[H])(C([H])([H])[H])C([H])([H])C1([H])C(C([H])([H])[H])(C([H])([H])[H])C([H])(O[H])C([H])([H])C([H])([H])C15C([H])([H])[H]

$$$$
34:0:1
     RDKit          3D

 99104  0  0  1  0  0  0  0  0999 V2000
    5.4406   -7.4034    5.4104 C   0  0  0  0  0  0  0  0  0  0  0  0
    4.8848   -6.8828    4.0631 C   0  0  1  0  0  0  0  0  0  0  0  0
    5.9715   -6.9368    3.1570 O   0  0  0  0  0  0  0  0  0  0  0  0
    3.8299   -7.8257    3.4912 C   0  0  0  0  0  0  0  0  0  0  0  0
    2.5748   -7.8873    4.3972 C   0  0  2  0  0  0  0  0  0  0  0  0
    1.6445   -9.1412    4.0563 C   0  0  0  0  0  0  0  0  0  0  0  0
    2.4842  -10.4250    3.8038 C   0  0  0  0  0  0  0  0  0  0  0  0
    0.7140   -9.5220    5.2445 C   0  0  0  0  0  0  0  0  0  0  0  0
    0.8217   -8.8498    2.7794 C   0  0  1  0  0  0  0  0  0  0  0  0
   -0.0955   -9.8870    2.4821 O   0  0  0  0  0  0  0  0  0  0  0  0
    0.0579   -7.5321    2.8741 C   0  0  0  0  0  0  0  0  0  0  0  0
    1.0243   -6.3700    3.1408 C   0  0  0  0  0  0  0  0  0  0  0  0
    1.8762   -6.4518    4.4493 C   0  0  1  0  0  0  0  0  0  0  0  0
    0.9601   -6.4621    5.7194 C   0  0  0  0  0  0  0  0  0  0  0  0
    2.9203   -5.2054    4.6360 C   0  0  1  0  0  0  0  0  0  0  0  0
    4.3636   -5.4233    4.0833 C   0  0  1  0  0  0  0  0  0  0  0  0
    5.3332   -4.5346    4.8868 C   0  0  0  0  0  0  0  0  0  0  0  0
    4.9909   -3.0555    4.8650 C   0  0  0  0  0  0  0  0  0  0  0  0
    3.5092   -2.7114    5.2451 C   0  0  2  0  0  0  0  0  0  0  0  0
    2.4872   -3.6415    4.4266 C   0  0  2  0  0  0  0  0  0  0  0  0
    1.0489   -3.4603    4.9810 C   0  0  0  0  0  0  0  0  0  0  0  0
    2.5795   -3.1157    2.9421 C   0  0  1  0  0  0  0  0  0  0  0  0
    2.2138   -4.0406    1.9601 O   0  0  0  0  0  0  0  0  0  0  0  0
    1.8070   -1.8239    2.5595 C   0  0  0  0  0  0  0  0  0  0  0  0
    1.9667   -0.4713    3.3315 C   0  0  1  0  0  0  0  0  0  0  0  0
    0.6751   -0.0035    4.0726 C   0  0  1  0  0  0  0  0  0  0  0  0
    0.7643   -0.1222    5.6251 C   0  0  0  0  0  0  0  0  0  0  0  0
    1.9872   -0.8219    6.2831 C   0  0  0  0  0  0  0  0  0  0  0  0
    3.2829   -1.1136    5.4360 C   0  0  1  0  0  0  0  0  0  0  0  0
    4.4344   -0.6282    6.3838 C   0  0  0  0  0  0  0  0  0  0  0  0
    3.2580   -0.1821    4.1407 C   0  0  1  0  0  0  0  0  0  0  0  0
    4.4936   -0.3010    3.2044 C   0  0  0  0  0  0  0  0  0  0  0  0
    3.2769    1.3432    4.5658 C   0  0  0  0  0  0  0  0  0  0  0  0
    2.5853    2.3874    3.6493 C   0  0  0  0  0  0  0  0  0  0  0  0
    1.0725    2.5804    3.9177 C   0  0  1  0  0  0  0  0  0  0  0  0
    0.6460    3.7838    3.2903 O   0  0  0  0  0  0  0  0  0  0  0  0
    0.1191    1.3858    3.5804 C   0  0  0  0  0  0  0  0  0  0  0  0
   -0.1690    1.3415    2.0608 C   0  0  0  0  0  0  0  0  0  0  0  0
   -1.2572    1.6344    4.2553 C   0  0  0  0  0  0  0  0  0  0  0  0
    4.7553   -7.1920    6.2363 H   0  0  0  0  0  0  0  0  0  0  0  0
    6.3994   -6.9426    5.6600 H   0  0  0  0  0  0  0  0  0  0  0  0
    5.6012   -8.4845    5.3826 H   0  0  0  0  0  0  0  0  0  0  0  0
    6.2863   -7.8254    3.1221 H   0  0  0  0  0  0  0  0  0  0  0  0
    3.5689   -7.5139    2.4803 H   0  0  0  0  0  0  0  0  0  0  0  0
    4.3126   -8.7951    3.3807 H   0  0  0  0  0  0  0  0  0  0  0  0
    2.9453   -8.1070    5.3975 H   0  0  0  0  0  0  0  0  0  0  0  0
    1.8607  -11.3217    3.7775 H   0  0  0  0  0  0  0  0  0  0  0  0
    3.2321  -10.5765    4.5856 H   0  0  0  0  0  0  0  0  0  0  0  0
    2.9915  -10.3996    2.8376 H   0  0  0  0  0  0  0  0  0  0  0  0
    0.2447  -10.4968    5.0995 H   0  0  0  0  0  0  0  0  0  0  0  0
   -0.1129   -8.8310    5.3821 H   0  0  0  0  0  0  0  0  0  0  0  0
    1.2659   -9.5872    6.1840 H   0  0  0  0  0  0  0  0  0  0  0  0
    1.5039   -8.7933    1.9300 H   0  0  0  0  0  0  0  0  0  0  0  0
   -0.1952   -9.9218    1.5340 H   0  0  0  0  0  0  0  0  0  0  0  0
   -0.4555   -7.3552    1.9302 H   0  0  0  0  0  0  0  0  0  0  0  0
   -0.7254   -7.5814    3.6274 H   0  0  0  0  0  0  0  0  0  0  0  0
    1.7028   -6.3632    2.2934 H   0  0  0  0  0  0  0  0  0  0  0  0
    0.4525   -5.4542    3.0663 H   0  0  0  0  0  0  0  0  0  0  0  0
    1.0751   -5.5983    6.3642 H   0  0  0  0  0  0  0  0  0  0  0  0
    1.2045   -7.2703    6.4066 H   0  0  0  0  0  0  0  0  0  0  0  0
   -0.1017   -6.5304    5.4856 H   0  0  0  0  0  0  0  0  0  0  0  0
    3.1008   -5.2683    5.7078 H   0  0  0  0  0  0  0  0  0  0  0  0
    4.3724   -5.1045    3.0432 H   0  0  0  0  0  0  0  0  0  0  0  0
    5.3541   -4.8440    5.9307 H   0  0  0  0  0  0  0  0  0  0  0  0
    6.3490   -4.6670    4.5161 H   0  0  0  0  0  0  0  0  0  0  0  0
    5.6943   -2.6172    5.5662 H   0  0  0  0  0  0  0  0  0  0  0  0
    5.2871   -2.6654    3.8993 H   0  0  0  0  0  0  0  0  0  0  0  0
    3.4251   -3.0922    6.2622 H   0  0  0  0  0  0  0  0  0  0  0  0
    0.6086   -2.5099    4.7382 H   0  0  0  0  0  0  0  0  0  0  0  0
    1.0335   -3.5436    6.0629 H   0  0  0  0  0  0  0  0  0  0  0  0
    0.3202   -4.1693    4.6124 H   0  0  0  0  0  0  0  0  0  0  0  0
    3.6187   -2.9834    2.6765 H   0  0  0  0  0  0  0  0  0  0  0  0
    2.5732   -3.7496    1.1349 H   0  0  0  0  0  0  0  0  0  0  0  0
    2.0856   -1.6097    1.5234 H   0  0  0  0  0  0  0  0  0  0  0  0
    0.7500   -2.0775    2.4738 H   0  0  0  0  0  0  0  0  0  0  0  0
    2.0732    0.1834    2.4752 H   0  0  0  0  0  0  0  0  0  0  0  0
   -0.1170   -0.6941    3.7903 H   0  0  0  0  0  0  0  0  0  0  0  0
    0.7171    0.8727    6.0609 H   0  0  0  0  0  0  0  0  0  0  0  0
   -0.1427   -0.6027    5.9928 H   0  0  0  0  0  0  0  0  0  0  0  0
    2.2296   -0.1754    7.1259 H   0  0  0  0  0  0  0  0  0  0  0  0
    1.6701   -1.7079    6.8208 H   0  0  0  0  0  0  0  0  0  0  0  0
    4.2594    0.3578    6.8186 H   0  0  0  0  0  0  0  0  0  0  0  0
    5.3996   -0.5394    5.8856 H   0  0  0  0  0  0  0  0  0  0  0  0
    4.5562   -1.3062    7.2327 H   0  0  0  0  0  0  0  0  0  0  0  0
    5.4394   -0.3018    3.7427 H   0  0  0  0  0  0  0  0  0  0  0  0
    4.5348    0.5435    2.5186 H   0  0  0  0  0  0  0  0  0  0  0  0
    4.4818   -1.1555    2.5434 H   0  0  0  0  0  0  0  0  0  0  0  0
    2.8647    1.4985    5.5593 H   0  0  0  0  0  0  0  0  0  0  0  0
    4.3162    1.6504    4.6914 H   0  0  0  0  0  0  0  0  0  0  0  0
    3.0616    3.3410    3.8769 H   0  0  0  0  0  0  0  0  0  0  0  0
    2.7968    2.2216    2.5950 H   0  0  0  0  0  0  0  0  0  0  0  0
    0.9797    2.7915    4.9819 H   0  0  0  0  0  0  0  0  0  0  0  0
    0.6126    3.7026    2.3363 H   0  0  0  0  0  0  0  0  0  0  0  0
   -0.8287    2.1546    1.7581 H   0  0  0  0  0  0  0  0  0  0  0  0
   -0.6647    0.4171    1.7727 H   0  0  0  0  0  0  0  0  0  0  0  0
    0.7261    1.4434    1.4472 H   0  0  0  0  0  0  0  0  0  0  0  0
   -1.7263    2.5414    3.8740 H   0  0  0  0  0  0  0  0  0  0  0  0
   -1.1866    1.7577    5.3362 H   0  0  0  0  0  0  0  0  0  0  0  0
   -1.9498    0.8123    4.0663 H   0  0  0  0  0  0  0  0  0  0  0  0
  1  2  1  0
  1 40  1  0
  1 41  1  0
  1 42  1  0
  2 16  1  0
  2  3  1  6
  2  4  1  0
  3 43  1  0
  4  5  1  0
  4 44  1  0
  4 45  1  0
  5 13  1  0
  5  6  1  0
  5 46  1  1
  6  7  1  0
  6  8  1  0
  6  9  1  0
  7 47  1  0
  7 48  1  0
  7 49  1  0
  8 50  1  0
  8 51  1  0
  8 52  1  0
  9 10  1  0
  9 11  1  0
  9 53  1  6
 10 54  1  0
 11 12  1  0
 11 55  1  0
 11 56  1  0
 12 13  1  0
 12 57  1  0
 12 58  1  0
 13 14  1  1
 13 15  1  0
 14 59  1  0
 14 60  1  0
 14 61  1  0
 15 20  1  0
 15 16  1  0
 15 62  1  1
 16 17  1  0
 16 63  1  6
 17 18  1  0
 17 64  1  0
 17 65  1  0
 18 19  1  0
 18 66  1  0
 18 67  1  0
 19 29  1  0
 19 20  1  0
 19 68  1  1
 20 21  1  1
 20 22  1  0
 21 69  1  0
 21 70  1  0
 21 71  1  0
 22 23  1  0
 22 24  1  0
 22 72  1  6
 23 73  1  0
 24 25  1  0
 24 74  1  0
 24 75  1  0
 25 31  1  0
 25 26  1  0
 25 76  1  6
 26 37  1  0
 26 27  1  0
 26 77  1  6
 27 28  1  0
 27 78  1  0
 27 79  1  0
 28 29  1  0
 28 80  1  0
 28 81  1  0
 29 30  1  1
 29 31  1  0
 30 82  1  0
 30 83  1  0
 30 84  1  0
 31 32  1  6
 31 33  1  0
 32 85  1  0
 32 86  1  0
 32 87  1  0
 33 34  1  0
 33 88  1  0
 33 89  1  0
 34 35  1  0
 34 90  1  0
 34 91  1  0
 35 36  1  0
 35 37  1  0
 35 92  1  1
 36 93  1  0
 37 38  1  0
 37 39  1  0
 38 94  1  0
 38 95  1  0
 38 96  1  0
 39 97  1  0
 39 98  1  0
 39 99  1  0
M  END
>  <i_m_ct_stereo_status>  (92) 
1

>  <s_m_source_file>  (92) 
/var/tmp/pbs.5076255.sched01/tmpjtt61wjg/4457_394l_.sdf

>  <i_m_source_file_index>  (92) 
2

>  <i_lp_mmshare_version>  (92) 
48012

>  <i_f3d_flags>  (92) 
0

>  <s_epik_input>  (92) 
W0NIMl0xW0NIMl1bQ0BIXShbT0hdKUMoW0NIM10pKFtDSDNdKVtDQEhdKFtDQF0xMltDSDNdKVtDSDJdW0NAQF0oW0NIM10pKFtPSF0pW0NASF0zW0NASF0yW0NAQF00KFtDSDNdKVtDQEBIXShbQ0gyXVtDSDJdMylbQ0BAXTUoW0NIM10pW0NAQF02KFtDSDNdKVtDQEBIXShbQ0gyXVtDQEBIXTRbT0hdKVtDQEBIXShbQ0gyXVtDSDJdNSlDKFtDSDNdKShbQ0gzXSlbQ0BIXShbT0hdKVtDSDJdW0NIMl02

>  <s_epik_cmdline>  (92) 
J2VwaWtfcHl0aG9uJywgJy1waHQnLCAnMi4wJywgJy1waCcsICc3LjAnLCAnLXRuJywgJzgnLCAnLW1hJywgJzIwMCcsICctaW1hZScsICc8aW5maWxlLm1hZT4nLCAnLW9tYWUnLCAnPG91dGZpbGUubWFlPic=

>  <r_lp_tautomer_probability>  (92) 
1

>  <r_epik_Ionization_Penalty>  (92) 
1.25331e-05

>  <r_epik_Ionization_Penalty_Charging>  (92) 
0

>  <r_epik_Ionization_Penalty_Neutral>  (92) 
1.25331e-05

>  <r_epik_State_Penalty>  (92) 
-0

>  <r_epik_Charging_Adjusted_Penalty>  (92) 
0

>  <i_epik_Tot_Q>  (92) 
0

>  <i_epik_Tot_abs_Q>  (92) 
0

>  <s_lp_Force_Field>  (92) 
OPLS3e

>  <r_lp_Energy>  (92) 
170.477

>  <b_lp_Chiralities_Consistent>  (92) 
1

>  <s_lp_Variant>  (92) 
34:0-1

>  <s_i_glide_gridfile>  (92) 
pfpi4k_grid

>  <i_i_glide_lignum>  (92) 
2

>  <i_i_glide_rotatable_bonds>  (92) 
4

>  <r_i_docking_score>  (92) 
-3.16238

>  <r_i_glide_ligand_efficiency>  (92) 
-0.0810868

>  <r_i_glide_ligand_efficiency_sa>  (92) 
-0.274982

>  <r_i_glide_ligand_efficiency_ln>  (92) 
-0.678105

>  <r_i_glide_gscore>  (92) 
-3.16238

>  <r_i_glide_lipo>  (92) 
-0.109409

>  <r_i_glide_hbond>  (92) 
-0.455556

>  <r_i_glide_metal>  (92) 
-0

>  <r_i_glide_rewards>  (92) 
0

>  <r_i_glide_evdw>  (92) 
-31.6778

>  <r_i_glide_ecoul>  (92) 
-6.75686

>  <r_i_glide_erotb>  (92) 
0

>  <r_i_glide_esite>  (92) 
0

>  <r_i_glide_emodel>  (92) 
-45.2875

>  <r_i_glide_energy>  (92) 
-38.4347

>  <r_i_glide_einternal>  (92) 
1.32546

>  <r_i_glide_intrahb_reward>  (92) 
-0

>  <i_i_glide_confnum>  (92) 
1

>  <i_i_glide_posenum>  (92) 
30

>  <r_i_glide_eff_state_penalty>  (92) 
0

>  <ligand_id>  (92) 
34

>  <original_smiles>  (92) 
CC1(O)CC2C(C)(C)C(O)CCC2(C)C2C1CCC1C2(C)C(O)CC2C3CCC1(C)C2(C)CCC(O)C3(C)C

>  <smiles>  (92) 
[H]OC1([H])C([H])([H])C([H])([H])C2(C([H])([H])[H])C3([H])C([H])([H])C([H])(O[H])C4(C([H])([H])[H])C5([H])C([H])(C([H])([H])C([H])([H])C4([H])C2(C([H])([H])[H])C([H])([H])C([H])([H])C3([H])C1(C([H])([H])[H])C([H])([H])[H])C(O[H])(C([H])([H])[H])C([H])([H])C1([H])C(C([H])([H])[H])(C([H])([H])[H])C([H])(O[H])C([H])([H])C([H])([H])C15C([H])([H])[H]

$$$$
34:0:2
     RDKit          3D

 99104  0  0  1  0  0  0  0  0999 V2000
    5.4331   -7.4035    5.4154 C   0  0  0  0  0  0  0  0  0  0  0  0
    4.8811   -6.8834    4.0625 C   0  0  1  0  0  0  0  0  0  0  0  0
    5.9641   -6.9416    3.1528 O   0  0  0  0  0  0  0  0  0  0  0  0
    3.8256   -7.8244    3.4909 C   0  0  0  0  0  0  0  0  0  0  0  0
    2.5685   -7.8813    4.3933 C   0  0  2  0  0  0  0  0  0  0  0  0
    1.6358   -9.1346    4.0578 C   0  0  0  0  0  0  0  0  0  0  0  0
    2.4721  -10.4204    3.8078 C   0  0  0  0  0  0  0  0  0  0  0  0
    0.7016   -9.5086    5.2464 C   0  0  0  0  0  0  0  0  0  0  0  0
    0.8133   -8.8463    2.7797 C   0  0  1  0  0  0  0  0  0  0  0  0
   -0.1039   -9.8814    2.4832 O   0  0  0  0  0  0  0  0  0  0  0  0
    0.0508   -7.5246    2.8697 C   0  0  0  0  0  0  0  0  0  0  0  0
    1.0204   -6.3645    3.1364 C   0  0  0  0  0  0  0  0  0  0  0  0
    1.8738   -6.4458    4.4447 C   0  0  1  0  0  0  0  0  0  0  0  0
    0.9533   -6.4474    5.7165 C   0  0  0  0  0  0  0  0  0  0  0  0
    2.9201   -5.2000    4.6276 C   0  0  1  0  0  0  0  0  0  0  0  0
    4.3647   -5.4215    4.0794 C   0  0  1  0  0  0  0  0  0  0  0  0
    5.3362   -4.5351    4.8804 C   0  0  0  0  0  0  0  0  0  0  0  0
    4.9950   -3.0517    4.8568 C   0  0  0  0  0  0  0  0  0  0  0  0
    3.5159   -2.7038    5.2341 C   0  0  2  0  0  0  0  0  0  0  0  0
    2.4913   -3.6325    4.4172 C   0  0  2  0  0  0  0  0  0  0  0  0
    1.0523   -3.4500    4.9691 C   0  0  0  0  0  0  0  0  0  0  0  0
    2.5863   -3.1100    2.9327 C   0  0  1  0  0  0  0  0  0  0  0  0
    2.2159   -4.0453    1.9552 O   0  0  0  0  0  0  0  0  0  0  0  0
    1.8133   -1.8207    2.5462 C   0  0  0  0  0  0  0  0  0  0  0  0
    1.9836   -0.4652    3.3115 C   0  0  1  0  0  0  0  0  0  0  0  0
    0.6887    0.0041    4.0517 C   0  0  1  0  0  0  0  0  0  0  0  0
    0.7767   -0.1118    5.6053 C   0  0  0  0  0  0  0  0  0  0  0  0
    1.9973   -0.8113    6.2648 C   0  0  0  0  0  0  0  0  0  0  0  0
    3.2934   -1.1056    5.4217 C   0  0  1  0  0  0  0  0  0  0  0  0
    4.4464   -0.6203    6.3722 C   0  0  0  0  0  0  0  0  0  0  0  0
    3.2730   -0.1774    4.1236 C   0  0  1  0  0  0  0  0  0  0  0  0
    4.5090   -0.3001    3.1877 C   0  0  0  0  0  0  0  0  0  0  0  0
    3.2960    1.3494    4.5462 C   0  0  0  0  0  0  0  0  0  0  0  0
    2.6027    2.3931    3.6300 C   0  0  0  0  0  0  0  0  0  0  0  0
    1.0906    2.5875    3.9076 C   0  0  1  0  0  0  0  0  0  0  0  0
    0.6597    3.8015    3.3031 O   0  0  0  0  0  0  0  0  0  0  0  0
    0.1370    1.3954    3.5576 C   0  0  0  0  0  0  0  0  0  0  0  0
   -0.1456    1.3459    2.0370 C   0  0  0  0  0  0  0  0  0  0  0  0
   -1.2402    1.6497    4.2292 C   0  0  0  0  0  0  0  0  0  0  0  0
    4.7462   -7.1859    6.2348 H   0  0  0  0  0  0  0  0  0  0  0  0
    6.3939   -6.9435    5.6615 H   0  0  0  0  0  0  0  0  0  0  0  0
    5.5889   -8.4853    5.3864 H   0  0  0  0  0  0  0  0  0  0  0  0
    6.2788   -7.8332    3.1228 H   0  0  0  0  0  0  0  0  0  0  0  0
    3.5630   -7.5150    2.4782 H   0  0  0  0  0  0  0  0  0  0  0  0
    4.3025   -8.7962    3.3819 H   0  0  0  0  0  0  0  0  0  0  0  0
    2.9351   -8.0992    5.3959 H   0  0  0  0  0  0  0  0  0  0  0  0
    1.8469  -11.3150    3.7811 H   0  0  0  0  0  0  0  0  0  0  0  0
    3.2195  -10.5705    4.5883 H   0  0  0  0  0  0  0  0  0  0  0  0
    2.9795  -10.3954    2.8406 H   0  0  0  0  0  0  0  0  0  0  0  0
    0.2303  -10.4838    5.1042 H   0  0  0  0  0  0  0  0  0  0  0  0
   -0.1266   -8.8136    5.3774 H   0  0  0  0  0  0  0  0  0  0  0  0
    1.2511   -9.5665    6.1872 H   0  0  0  0  0  0  0  0  0  0  0  0
    1.4942   -8.7922    1.9287 H   0  0  0  0  0  0  0  0  0  0  0  0
   -0.1841   -9.9393    1.5371 H   0  0  0  0  0  0  0  0  0  0  0  0
   -0.4593   -7.3467    1.9231 H   0  0  0  0  0  0  0  0  0  0  0  0
   -0.7353   -7.5680    3.6231 H   0  0  0  0  0  0  0  0  0  0  0  0
    1.6972   -6.3702    2.2871 H   0  0  0  0  0  0  0  0  0  0  0  0
    0.4496   -5.4477    3.0593 H   0  0  0  0  0  0  0  0  0  0  0  0
    1.0724   -5.5818    6.3584 H   0  0  0  0  0  0  0  0  0  0  0  0
    1.1958   -7.2561    6.4041 H   0  0  0  0  0  0  0  0  0  0  0  0
   -0.1079   -6.5136    5.4797 H   0  0  0  0  0  0  0  0  0  0  0  0
    3.0998   -5.2610    5.7012 H   0  0  0  0  0  0  0  0  0  0  0  0
    4.3867   -5.1017    3.0390 H   0  0  0  0  0  0  0  0  0  0  0  0
    5.3541   -4.8399    5.9276 H   0  0  0  0  0  0  0  0  0  0  0  0
    6.3533   -4.6656    4.5118 H   0  0  0  0  0  0  0  0  0  0  0  0
    5.6982   -2.6138    5.5591 H   0  0  0  0  0  0  0  0  0  0  0  0
    5.2934   -2.6655    3.8897 H   0  0  0  0  0  0  0  0  0  0  0  0
    3.4292   -3.0841    6.2532 H   0  0  0  0  0  0  0  0  0  0  0  0
    0.6138   -2.4992    4.7224 H   0  0  0  0  0  0  0  0  0  0  0  0
    1.0356   -3.5281    6.0529 H   0  0  0  0  0  0  0  0  0  0  0  0
    0.3225   -4.1585    4.6028 H   0  0  0  0  0  0  0  0  0  0  0  0
    3.6239   -2.9794    2.6586 H   0  0  0  0  0  0  0  0  0  0  0  0
    2.8329   -4.7623    1.9861 H   0  0  0  0  0  0  0  0  0  0  0  0
    2.0973   -1.6162    1.5108 H   0  0  0  0  0  0  0  0  0  0  0  0
    0.7562   -2.0706    2.4545 H   0  0  0  0  0  0  0  0  0  0  0  0
    2.0904    0.1861    2.4541 H   0  0  0  0  0  0  0  0  0  0  0  0
   -0.1071   -0.6843    3.7666 H   0  0  0  0  0  0  0  0  0  0  0  0
    0.7336    0.8865    6.0367 H   0  0  0  0  0  0  0  0  0  0  0  0
   -0.1358   -0.5828    5.9724 H   0  0  0  0  0  0  0  0  0  0  0  0
    2.2415   -0.1562    7.1042 H   0  0  0  0  0  0  0  0  0  0  0  0
    1.6800   -1.6911    6.8102 H   0  0  0  0  0  0  0  0  0  0  0  0
    4.2688    0.3650    6.8025 H   0  0  0  0  0  0  0  0  0  0  0  0
    5.4098   -0.5337    5.8730 H   0  0  0  0  0  0  0  0  0  0  0  0
    4.5636   -1.2970    7.2216 H   0  0  0  0  0  0  0  0  0  0  0  0
    5.4544   -0.3073    3.7277 H   0  0  0  0  0  0  0  0  0  0  0  0
    4.5551    0.5413    2.5038 H   0  0  0  0  0  0  0  0  0  0  0  0
    4.4927   -1.1553    2.5267 H   0  0  0  0  0  0  0  0  0  0  0  0
    2.8833    1.5052    5.5387 H   0  0  0  0  0  0  0  0  0  0  0  0
    4.3364    1.6535    4.6736 H   0  0  0  0  0  0  0  0  0  0  0  0
    3.0848    3.3450    3.8540 H   0  0  0  0  0  0  0  0  0  0  0  0
    2.8145    2.2252    2.5760 H   0  0  0  0  0  0  0  0  0  0  0  0
    1.0058    2.7873    4.9736 H   0  0  0  0  0  0  0  0  0  0  0  0
    0.6081    3.7252    2.3482 H   0  0  0  0  0  0  0  0  0  0  0  0
   -0.8025    2.1599    1.7312 H   0  0  0  0  0  0  0  0  0  0  0  0
   -0.6461    0.4228    1.7486 H   0  0  0  0  0  0  0  0  0  0  0  0
    0.7500    1.4459    1.4236 H   0  0  0  0  0  0  0  0  0  0  0  0
   -1.7060    2.5585    3.8434 H   0  0  0  0  0  0  0  0  0  0  0  0
   -1.1710    1.7762    5.3100 H   0  0  0  0  0  0  0  0  0  0  0  0
   -1.9346    0.8301    4.0382 H   0  0  0  0  0  0  0  0  0  0  0  0
  1  2  1  0
  1 40  1  0
  1 41  1  0
  1 42  1  0
  2 16  1  0
  2  3  1  6
  2  4  1  0
  3 43  1  0
  4  5  1  0
  4 44  1  0
  4 45  1  0
  5 13  1  0
  5  6  1  0
  5 46  1  1
  6  7  1  0
  6  8  1  0
  6  9  1  0
  7 47  1  0
  7 48  1  0
  7 49  1  0
  8 50  1  0
  8 51  1  0
  8 52  1  0
  9 10  1  0
  9 11  1  0
  9 53  1  6
 10 54  1  0
 11 12  1  0
 11 55  1  0
 11 56  1  0
 12 13  1  0
 12 57  1  0
 12 58  1  0
 13 14  1  1
 13 15  1  0
 14 59  1  0
 14 60  1  0
 14 61  1  0
 15 20  1  0
 15 16  1  0
 15 62  1  1
 16 17  1  0
 16 63  1  6
 17 18  1  0
 17 64  1  0
 17 65  1  0
 18 19  1  0
 18 66  1  0
 18 67  1  0
 19 29  1  0
 19 20  1  0
 19 68  1  1
 20 21  1  1
 20 22  1  0
 21 69  1  0
 21 70  1  0
 21 71  1  0
 22 23  1  0
 22 24  1  0
 22 72  1  6
 23 73  1  0
 24 25  1  0
 24 74  1  0
 24 75  1  0
 25 31  1  0
 25 26  1  0
 25 76  1  6
 26 37  1  0
 26 27  1  0
 26 77  1  6
 27 28  1  0
 27 78  1  0
 27 79  1  0
 28 29  1  0
 28 80  1  0
 28 81  1  0
 29 30  1  1
 29 31  1  0
 30 82  1  0
 30 83  1  0
 30 84  1  0
 31 32  1  6
 31 33  1  0
 32 85  1  0
 32 86  1  0
 32 87  1  0
 33 34  1  0
 33 88  1  0
 33 89  1  0
 34 35  1  0
 34 90  1  0
 34 91  1  0
 35 36  1  0
 35 37  1  0
 35 92  1  1
 36 93  1  0
 37 38  1  0
 37 39  1  0
 38 94  1  0
 38 95  1  0
 38 96  1  0
 39 97  1  0
 39 98  1  0
 39 99  1  0
M  END
>  <i_m_ct_stereo_status>  (93) 
1

>  <s_m_source_file>  (93) 
/var/tmp/pbs.5076255.sched01/tmpjtt61wjg/4457_394l_.sdf

>  <i_m_source_file_index>  (93) 
2

>  <i_lp_mmshare_version>  (93) 
48012

>  <i_f3d_flags>  (93) 
0

>  <s_epik_input>  (93) 
W0NIMl0xW0NIMl1bQ0BIXShbT0hdKUMoW0NIM10pKFtDSDNdKVtDQEhdKFtDQF0xMltDSDNdKVtDSDJdW0NAQF0oW0NIM10pKFtPSF0pW0NASF0zW0NASF0yW0NAQF00KFtDSDNdKVtDQEBIXShbQ0gyXVtDSDJdMylbQ0BAXTUoW0NIM10pW0NAQF02KFtDSDNdKVtDQEBIXShbQ0gyXVtDQEBIXTRbT0hdKVtDQEBIXShbQ0gyXVtDSDJdNSlDKFtDSDNdKShbQ0gzXSlbQ0BIXShbT0hdKVtDSDJdW0NIMl02

>  <s_epik_cmdline>  (93) 
J2VwaWtfcHl0aG9uJywgJy1waHQnLCAnMi4wJywgJy1waCcsICc3LjAnLCAnLXRuJywgJzgnLCAnLW1hJywgJzIwMCcsICctaW1hZScsICc8aW5maWxlLm1hZT4nLCAnLW9tYWUnLCAnPG91dGZpbGUubWFlPic=

>  <r_lp_tautomer_probability>  (93) 
1

>  <r_epik_Ionization_Penalty>  (93) 
1.25331e-05

>  <r_epik_Ionization_Penalty_Charging>  (93) 
0

>  <r_epik_Ionization_Penalty_Neutral>  (93) 
1.25331e-05

>  <r_epik_State_Penalty>  (93) 
-0

>  <r_epik_Charging_Adjusted_Penalty>  (93) 
0

>  <i_epik_Tot_Q>  (93) 
0

>  <i_epik_Tot_abs_Q>  (93) 
0

>  <s_lp_Force_Field>  (93) 
OPLS3e

>  <r_lp_Energy>  (93) 
170.477

>  <b_lp_Chiralities_Consistent>  (93) 
1

>  <s_lp_Variant>  (93) 
34:0-1

>  <s_i_glide_gridfile>  (93) 
pfpi4k_grid

>  <i_i_glide_lignum>  (93) 
2

>  <i_i_glide_rotatable_bonds>  (93) 
4

>  <r_i_docking_score>  (93) 
-3.03504

>  <r_i_glide_ligand_efficiency>  (93) 
-0.0778215

>  <r_i_glide_ligand_efficiency_sa>  (93) 
-0.263909

>  <r_i_glide_ligand_efficiency_ln>  (93) 
-0.650798

>  <r_i_glide_gscore>  (93) 
-3.03504

>  <r_i_glide_lipo>  (93) 
-0.112214

>  <r_i_glide_hbond>  (93) 
-0.456

>  <r_i_glide_metal>  (93) 
-0

>  <r_i_glide_rewards>  (93) 
0

>  <r_i_glide_evdw>  (93) 
-31.6971

>  <r_i_glide_ecoul>  (93) 
-5.87978

>  <r_i_glide_erotb>  (93) 
0

>  <r_i_glide_esite>  (93) 
0

>  <r_i_glide_emodel>  (93) 
-44.0963

>  <r_i_glide_energy>  (93) 
-37.5769

>  <r_i_glide_einternal>  (93) 
1.37697

>  <r_i_glide_intrahb_reward>  (93) 
-0

>  <i_i_glide_confnum>  (93) 
1

>  <i_i_glide_posenum>  (93) 
40

>  <r_i_glide_eff_state_penalty>  (93) 
0

>  <ligand_id>  (93) 
34

>  <original_smiles>  (93) 
CC1(O)CC2C(C)(C)C(O)CCC2(C)C2C1CCC1C2(C)C(O)CC2C3CCC1(C)C2(C)CCC(O)C3(C)C

>  <smiles>  (93) 
[H]OC1([H])C([H])([H])C([H])([H])C2(C([H])([H])[H])C3([H])C([H])([H])C([H])(O[H])C4(C([H])([H])[H])C5([H])C([H])(C([H])([H])C([H])([H])C4([H])C2(C([H])([H])[H])C([H])([H])C([H])([H])C3([H])C1(C([H])([H])[H])C([H])([H])[H])C(O[H])(C([H])([H])[H])C([H])([H])C1([H])C(C([H])([H])[H])(C([H])([H])[H])C([H])(O[H])C([H])([H])C([H])([H])C15C([H])([H])[H]

$$$$
35:0:0
     RDKit          3D

 62 68  0  0  1  0  0  0  0  0999 V2000
   -0.4474   -7.8386    1.9015 C   0  0  0  0  0  0  0  0  0  0  0  0
   -0.5499   -7.1503    3.0592 C   0  0  0  0  0  0  0  0  0  0  0  0
   -1.6554   -7.5305    4.0367 C   0  0  0  0  0  0  0  0  0  0  0  0
    0.3725   -6.0349    3.4312 C   0  0  0  0  0  0  0  0  0  0  0  0
    0.2613   -5.4097    4.6995 C   0  0  0  0  0  0  0  0  0  0  0  0
    1.0821   -4.3173    5.0321 C   0  0  0  0  0  0  0  0  0  0  0  0
    2.0330   -3.8229    4.1156 C   0  0  0  0  0  0  0  0  0  0  0  0
    2.1839   -4.4248    2.8303 C   0  0  0  0  0  0  0  0  0  0  0  0
    1.3460   -5.5281    2.5265 C   0  0  0  0  0  0  0  0  0  0  0  0
    3.2726   -3.9380    1.8151 C   0  0  2  0  0  0  0  0  0  0  0  0
    2.7404   -4.0267    0.3451 C   0  0  0  0  0  0  0  0  0  0  0  0
    3.5833   -3.2695   -0.6925 C   0  0  1  0  0  0  0  0  0  0  0  0
    3.0662   -3.4376   -2.0010 O   0  0  0  0  0  0  0  0  0  0  0  0
    3.6779   -1.7801   -0.3538 C   0  0  0  0  0  0  0  0  0  0  0  0
    4.5536   -1.8419    0.9134 C   0  0  2  0  0  0  0  0  0  0  0  0
    5.6286   -2.6893    0.3098 N   0  0  1  0  0  0  0  0  0  0  0  0
    6.9182   -2.9366    0.9926 C   0  0  0  0  0  0  0  0  0  0  0  0
    8.0449   -2.0632    0.4161 C   0  0  0  0  0  0  0  0  0  0  0  0
    5.0129   -3.7074   -0.5961 C   0  0  1  0  0  0  0  0  0  0  0  0
    5.1263   -5.2162   -0.2581 C   0  0  0  0  0  0  0  0  0  0  0  0
    5.1397   -5.6659    1.1918 C   0  0  0  0  0  0  0  0  0  0  0  0
    6.0996   -6.5756    1.6637 C   0  0  0  0  0  0  0  0  0  0  0  0
    6.4860   -6.5537    3.0151 C   0  0  0  0  0  0  0  0  0  0  0  0
    6.0418   -5.5016    3.8366 C   0  0  0  0  0  0  0  0  0  0  0  0
    6.5548   -5.3930    5.0958 O   0  0  0  0  0  0  0  0  0  0  0  0
    5.1289   -4.5326    3.3769 C   0  0  0  0  0  0  0  0  0  0  0  0
    4.5431   -4.7641    2.1118 C   0  0  0  0  0  0  0  0  0  0  0  0
    4.9944   -3.3515    4.0732 O   0  0  0  0  0  0  0  0  0  0  0  0
    4.0788   -2.3637    3.5940 C   0  0  2  0  0  0  0  0  0  0  0  0
    2.8821   -2.6347    4.5383 C   0  0  0  0  0  0  0  0  0  0  0  0
    3.6614   -2.4556    2.0843 C   0  0  2  0  0  0  0  0  0  0  0  0
    2.5044   -1.6131    2.0780 O   0  0  0  0  0  0  0  0  0  0  0  0
   -1.1222   -8.6510    1.6811 H   0  0  0  0  0  0  0  0  0  0  0  0
    0.3017   -7.6462    1.1562 H   0  0  0  0  0  0  0  0  0  0  0  0
   -2.2668   -6.6710    4.3126 H   0  0  0  0  0  0  0  0  0  0  0  0
   -1.2221   -7.9544    4.9412 H   0  0  0  0  0  0  0  0  0  0  0  0
   -2.3274   -8.2807    3.6194 H   0  0  0  0  0  0  0  0  0  0  0  0
   -0.4595   -5.7395    5.4327 H   0  0  0  0  0  0  0  0  0  0  0  0
    0.9767   -3.8639    6.0119 H   0  0  0  0  0  0  0  0  0  0  0  0
    1.4400   -5.9768    1.5532 H   0  0  0  0  0  0  0  0  0  0  0  0
    2.5320   -5.0511    0.0303 H   0  0  0  0  0  0  0  0  0  0  0  0
    1.8076   -3.5058    0.2960 H   0  0  0  0  0  0  0  0  0  0  0  0
    2.9742   -4.3663   -2.2005 H   0  0  0  0  0  0  0  0  0  0  0  0
    4.1816   -1.2426   -1.1641 H   0  0  0  0  0  0  0  0  0  0  0  0
    2.7068   -1.2930   -0.2601 H   0  0  0  0  0  0  0  0  0  0  0  0
    4.9189   -0.8507    1.1737 H   0  0  0  0  0  0  0  0  0  0  0  0
    6.7843   -2.7313    2.0494 H   0  0  0  0  0  0  0  0  0  0  0  0
    7.2420   -3.9699    0.9025 H   0  0  0  0  0  0  0  0  0  0  0  0
    8.9985   -2.3157    0.8728 H   0  0  0  0  0  0  0  0  0  0  0  0
    7.8886   -0.9951    0.5974 H   0  0  0  0  0  0  0  0  0  0  0  0
    8.1916   -2.2133   -0.6591 H   0  0  0  0  0  0  0  0  0  0  0  0
    5.4696   -3.5556   -1.5691 H   0  0  0  0  0  0  0  0  0  0  0  0
    4.4100   -5.8142   -0.8126 H   0  0  0  0  0  0  0  0  0  0  0  0
    6.0860   -5.5198   -0.6546 H   0  0  0  0  0  0  0  0  0  0  0  0
    6.6278   -7.2276    0.9738 H   0  0  0  0  0  0  0  0  0  0  0  0
    7.2298   -7.2452    3.3760 H   0  0  0  0  0  0  0  0  0  0  0  0
    6.1599   -4.6809    5.5737 H   0  0  0  0  0  0  0  0  0  0  0  0
    4.5081   -1.3889    3.8170 H   0  0  0  0  0  0  0  0  0  0  0  0
    2.2370   -1.7598    4.6051 H   0  0  0  0  0  0  0  0  0  0  0  0
    3.2388   -2.8118    5.5543 H   0  0  0  0  0  0  0  0  0  0  0  0
    2.1699   -1.5029    1.1975 H   0  0  0  0  0  0  0  0  0  0  0  0
    5.9400   -2.0316   -0.3875 H   0  0  0  0  0  0  0  0  0  0  0  0
  1  2  2  0
  1 33  1  0
  1 34  1  0
  2  3  1  0
  2  4  1  0
  3 35  1  0
  3 36  1  0
  3 37  1  0
  4  9  2  0
  4  5  1  0
  5  6  2  0
  5 38  1  0
  6  7  1  0
  6 39  1  0
  7 30  1  0
  7  8  2  0
  8  9  1  0
 10  8  1  1
  9 40  1  0
 10 27  1  0
 10 31  1  0
 10 11  1  0
 11 12  1  0
 11 41  1  0
 11 42  1  0
 12 19  1  0
 12 13  1  6
 12 14  1  0
 13 43  1  0
 14 15  1  0
 14 44  1  0
 14 45  1  0
 15 31  1  0
 15 16  1  0
 15 46  1  1
 16 17  1  0
 16 19  1  0
 16 62  1  6
 17 18  1  0
 17 47  1  0
 17 48  1  0
 18 49  1  0
 18 50  1  0
 18 51  1  0
 19 20  1  0
 19 52  1  6
 20 21  1  0
 20 53  1  0
 20 54  1  0
 21 27  2  0
 21 22  1  0
 22 23  2  0
 22 55  1  0
 23 24  1  0
 23 56  1  0
 24 25  1  0
 24 26  2  0
 25 57  1  0
 26 27  1  0
 26 28  1  0
 28 29  1  0
 29 30  1  0
 29 31  1  0
 29 58  1  1
 30 59  1  0
 30 60  1  0
 31 32  1  1
 32 61  1  0
M  CHG  1  16   1
M  END
>  <i_m_ct_stereo_status>  (94) 
1

>  <s_m_source_file>  (94) 
/var/tmp/pbs.5076255.sched01/tmpjtt61wjg/4457_394l_.sdf

>  <i_m_source_file_index>  (94) 
3

>  <i_lp_mmshare_version>  (94) 
48012

>  <i_f3d_flags>  (94) 
0

>  <s_epik_input>  (94) 
W0NIMl09QyhbQ0gzXSljKFtjSF0xKVtjSF1bY0hdYyhjMVtDQF0yMzQpW0NIMl1bQ0BASF01W0NAQF00KFtPSF0pW0NAQEhdNltDSDJdW0NAQF0oW0NIMl0yKShbT0hdKVtDQEBIXShONltDSDJdW0NIM10pW0NIMl1jN2MzYyhPNSljKFtPSF0pW2NIXVtjSF03

>  <s_epik_cmdline>  (94) 
J2VwaWtfcHl0aG9uJywgJy1waHQnLCAnMi4wJywgJy1waCcsICc3LjAnLCAnLXRuJywgJzgnLCAnLW1hJywgJzIwMCcsICctaW1hZScsICc8aW5maWxlLm1hZT4nLCAnLW9tYWUnLCAnPG91dGZpbGUubWFlPic=

>  <r_lp_tautomer_probability>  (94) 
1

>  <r_epik_Ionization_Penalty>  (94) 
0.0653536

>  <r_epik_Ionization_Penalty_Charging>  (94) 
0.0642969

>  <r_epik_Ionization_Penalty_Neutral>  (94) 
0.0010567

>  <r_epik_State_Penalty>  (94) 
0.0559989

>  <r_epik_Charging_Adjusted_Penalty>  (94) 
0.120296

>  <i_epik_Tot_Q>  (94) 
1

>  <i_epik_Tot_abs_Q>  (94) 
1

>  <s_lp_Force_Field>  (94) 
OPLS3e

>  <r_lp_Energy>  (94) 
112.494

>  <b_lp_Chiralities_Consistent>  (94) 
1

>  <s_lp_Variant>  (94) 
35:0-1

>  <s_i_glide_gridfile>  (94) 
pfpi4k_grid

>  <i_i_glide_lignum>  (94) 
3

>  <i_i_glide_rotatable_bonds>  (94) 
5

>  <r_i_docking_score>  (94) 
-3.22581

>  <r_i_glide_ligand_efficiency>  (94) 
-0.100807

>  <r_i_glide_ligand_efficiency_sa>  (94) 
-0.320041

>  <r_i_glide_ligand_efficiency_ln>  (94) 
-0.722348

>  <r_i_glide_gscore>  (94) 
-3.22581

>  <r_i_glide_lipo>  (94) 
-0.4702

>  <r_i_glide_hbond>  (94) 
-0.32

>  <r_i_glide_metal>  (94) 
-0

>  <r_i_glide_rewards>  (94) 
-0.460013

>  <r_i_glide_evdw>  (94) 
-23.3777

>  <r_i_glide_ecoul>  (94) 
-6.08723

>  <r_i_glide_erotb>  (94) 
0.106366

>  <r_i_glide_esite>  (94) 
0

>  <r_i_glide_emodel>  (94) 
-35.4841

>  <r_i_glide_energy>  (94) 
-29.4649

>  <r_i_glide_einternal>  (94) 
2.27442

>  <r_i_glide_intrahb_reward>  (94) 
-0

>  <i_i_glide_confnum>  (94) 
3

>  <i_i_glide_posenum>  (94) 
32

>  <r_i_glide_eff_state_penalty>  (94) 
0

>  <ligand_id>  (94) 
35

>  <original_smiles>  (94) 
C=C(C)c1ccc2c(c1)C13CC4(O)CC5N(CC)C4Cc4ccc(O)c(c41)OC(C2)C53O

>  <smiles>  (94) 
[H]Oc1c([H])c([H])c2c3c1OC1([H])C([H])([H])c4c([H])c([H])c(C(=C([H])[H])C([H])([H])[H])c([H])c4C34C([H])([H])C3(O[H])C([H])([H])C([H])(C14O[H])[N+]([H])(C([H])([H])C([H])([H])[H])C3([H])C2([H])[H]

$$$$
35:0:1
     RDKit          3D

 62 68  0  0  1  0  0  0  0  0999 V2000
    2.7864   -1.2201    5.8116 C   0  0  0  0  0  0  0  0  0  0  0  0
    2.2988   -2.4549    5.5703 C   0  0  0  0  0  0  0  0  0  0  0  0
    0.7952   -2.6448    5.4378 C   0  0  0  0  0  0  0  0  0  0  0  0
    3.1677   -3.6614    5.4396 C   0  0  0  0  0  0  0  0  0  0  0  0
    4.5123   -3.6328    5.8746 C   0  0  0  0  0  0  0  0  0  0  0  0
    5.3282   -4.7705    5.7660 C   0  0  0  0  0  0  0  0  0  0  0  0
    4.8184   -5.9675    5.2194 C   0  0  0  0  0  0  0  0  0  0  0  0
    3.4676   -6.0442    4.7750 C   0  0  0  0  0  0  0  0  0  0  0  0
    2.6665   -4.8740    4.8923 C   0  0  0  0  0  0  0  0  0  0  0  0
    2.8646   -7.3764    4.2214 C   0  0  2  0  0  0  0  0  0  0  0  0
    1.8637   -7.0610    3.0614 C   0  0  0  0  0  0  0  0  0  0  0  0
    1.4491   -8.2919    2.2330 C   0  0  1  0  0  0  0  0  0  0  0  0
    0.4896   -7.8494    1.2822 O   0  0  0  0  0  0  0  0  0  0  0  0
    2.6672   -8.9447    1.5709 C   0  0  0  0  0  0  0  0  0  0  0  0
    3.3819   -9.5235    2.8176 C   0  0  2  0  0  0  0  0  0  0  0  0
    2.2000  -10.2594    3.3691 N   0  0  1  0  0  0  0  0  0  0  0  0
    2.3146  -11.2349    4.4918 C   0  0  0  0  0  0  0  0  0  0  0  0
    3.4835  -12.2110    4.2995 C   0  0  0  0  0  0  0  0  0  0  0  0
    0.9672   -9.4229    3.1443 C   0  0  1  0  0  0  0  0  0  0  0  0
    0.1593   -8.8839    4.3577 C   0  0  0  0  0  0  0  0  0  0  0  0
    0.9150   -8.4796    5.6145 C   0  0  0  0  0  0  0  0  0  0  0  0
    0.4694   -8.8970    6.8864 C   0  0  0  0  0  0  0  0  0  0  0  0
    1.3892   -9.0362    7.9378 C   0  0  0  0  0  0  0  0  0  0  0  0
    2.7644   -8.9385    7.6694 C   0  0  0  0  0  0  0  0  0  0  0  0
    3.6554   -9.2818    8.6427 O   0  0  0  0  0  0  0  0  0  0  0  0
    3.2450   -8.5668    6.3924 C   0  0  0  0  0  0  0  0  0  0  0  0
    2.2832   -8.1402    5.4478 C   0  0  0  0  0  0  0  0  0  0  0  0
    4.5579   -8.8237    6.0829 O   0  0  0  0  0  0  0  0  0  0  0  0
    5.0455   -8.4886    4.7861 C   0  0  2  0  0  0  0  0  0  0  0  0
    5.7629   -7.1569    5.1188 C   0  0  0  0  0  0  0  0  0  0  0  0
    3.9769   -8.3008    3.6551 C   0  0  2  0  0  0  0  0  0  0  0  0
    4.7518   -7.6173    2.6711 O   0  0  0  0  0  0  0  0  0  0  0  0
    2.1282   -0.3685    5.9134 H   0  0  0  0  0  0  0  0  0  0  0  0
    3.8392   -1.0099    5.9077 H   0  0  0  0  0  0  0  0  0  0  0  0
    0.4560   -3.4425    6.0981 H   0  0  0  0  0  0  0  0  0  0  0  0
    0.5314   -2.9008    4.4110 H   0  0  0  0  0  0  0  0  0  0  0  0
    0.2516   -1.7371    5.7058 H   0  0  0  0  0  0  0  0  0  0  0  0
    4.9453   -2.7487    6.3196 H   0  0  0  0  0  0  0  0  0  0  0  0
    6.3476   -4.7181    6.1233 H   0  0  0  0  0  0  0  0  0  0  0  0
    1.6404   -4.9057    4.5709 H   0  0  0  0  0  0  0  0  0  0  0  0
    0.9820   -6.5379    3.4268 H   0  0  0  0  0  0  0  0  0  0  0  0
    2.3329   -6.3607    2.3704 H   0  0  0  0  0  0  0  0  0  0  0  0
    0.2187   -8.5788    0.7241 H   0  0  0  0  0  0  0  0  0  0  0  0
    2.3584   -9.7575    0.9062 H   0  0  0  0  0  0  0  0  0  0  0  0
    3.2379   -8.2648    0.9416 H   0  0  0  0  0  0  0  0  0  0  0  0
    4.1733  -10.2109    2.5132 H   0  0  0  0  0  0  0  0  0  0  0  0
    2.4087  -10.7720    5.4628 H   0  0  0  0  0  0  0  0  0  0  0  0
    1.3925  -11.8105    4.5420 H   0  0  0  0  0  0  0  0  0  0  0  0
    3.4860  -12.9606    5.0910 H   0  0  0  0  0  0  0  0  0  0  0  0
    4.4493  -11.7047    4.3371 H   0  0  0  0  0  0  0  0  0  0  0  0
    3.4168  -12.7454    3.3485 H   0  0  0  0  0  0  0  0  0  0  0  0
    0.2904  -10.0525    2.5668 H   0  0  0  0  0  0  0  0  0  0  0  0
   -0.4964   -8.0713    4.0525 H   0  0  0  0  0  0  0  0  0  0  0  0
   -0.5285   -9.6754    4.6440 H   0  0  0  0  0  0  0  0  0  0  0  0
   -0.5521   -9.2267    7.0255 H   0  0  0  0  0  0  0  0  0  0  0  0
    1.0569   -9.3798    8.9041 H   0  0  0  0  0  0  0  0  0  0  0  0
    4.5411   -9.3146    8.3159 H   0  0  0  0  0  0  0  0  0  0  0  0
    5.7845   -9.2405    4.5039 H   0  0  0  0  0  0  0  0  0  0  0  0
    6.5143   -6.9267    4.3646 H   0  0  0  0  0  0  0  0  0  0  0  0
    6.3159   -7.2510    6.0555 H   0  0  0  0  0  0  0  0  0  0  0  0
    4.2179   -7.4092    1.9215 H   0  0  0  0  0  0  0  0  0  0  0  0
    2.0850  -10.9315    2.6200 H   0  0  0  0  0  0  0  0  0  0  0  0
  1  2  2  0
  1 33  1  0
  1 34  1  0
  2  3  1  0
  2  4  1  0
  3 35  1  0
  3 36  1  0
  3 37  1  0
  4  9  2  0
  4  5  1  0
  5  6  2  0
  5 38  1  0
  6  7  1  0
  6 39  1  0
  7 30  1  0
  7  8  2  0
  8  9  1  0
 10  8  1  1
  9 40  1  0
 10 27  1  0
 10 31  1  0
 10 11  1  0
 11 12  1  0
 11 41  1  0
 11 42  1  0
 12 19  1  0
 12 13  1  6
 12 14  1  0
 13 43  1  0
 14 15  1  0
 14 44  1  0
 14 45  1  0
 15 31  1  0
 15 16  1  0
 15 46  1  6
 16 17  1  0
 16 19  1  0
 16 62  1  6
 17 18  1  0
 17 47  1  0
 17 48  1  0
 18 49  1  0
 18 50  1  0
 18 51  1  0
 19 20  1  0
 19 52  1  6
 20 21  1  0
 20 53  1  0
 20 54  1  0
 21 27  2  0
 21 22  1  0
 22 23  2  0
 22 55  1  0
 23 24  1  0
 23 56  1  0
 24 25  1  0
 24 26  2  0
 25 57  1  0
 26 27  1  0
 26 28  1  0
 28 29  1  0
 29 30  1  0
 29 31  1  0
 29 58  1  6
 30 59  1  0
 30 60  1  0
 31 32  1  6
 32 61  1  0
M  CHG  1  16   1
M  END
>  <i_m_ct_stereo_status>  (95) 
1

>  <s_m_source_file>  (95) 
/var/tmp/pbs.5076255.sched01/tmpjtt61wjg/4457_394l_.sdf

>  <i_m_source_file_index>  (95) 
3

>  <i_lp_mmshare_version>  (95) 
48012

>  <i_f3d_flags>  (95) 
0

>  <s_epik_input>  (95) 
W0NIMl09QyhbQ0gzXSljKFtjSF0xKVtjSF1bY0hdYyhjMVtDQF0yMzQpW0NIMl1bQ0BASF01W0NAQF00KFtPSF0pW0NAQEhdNltDSDJdW0NAQF0oW0NIMl0yKShbT0hdKVtDQEBIXShONltDSDJdW0NIM10pW0NIMl1jN2MzYyhPNSljKFtPSF0pW2NIXVtjSF03

>  <s_epik_cmdline>  (95) 
J2VwaWtfcHl0aG9uJywgJy1waHQnLCAnMi4wJywgJy1waCcsICc3LjAnLCAnLXRuJywgJzgnLCAnLW1hJywgJzIwMCcsICctaW1hZScsICc8aW5maWxlLm1hZT4nLCAnLW9tYWUnLCAnPG91dGZpbGUubWFlPic=

>  <r_lp_tautomer_probability>  (95) 
1

>  <r_epik_Ionization_Penalty>  (95) 
0.0653536

>  <r_epik_Ionization_Penalty_Charging>  (95) 
0.0642969

>  <r_epik_Ionization_Penalty_Neutral>  (95) 
0.0010567

>  <r_epik_State_Penalty>  (95) 
0.0559989

>  <r_epik_Charging_Adjusted_Penalty>  (95) 
0.120296

>  <i_epik_Tot_Q>  (95) 
1

>  <i_epik_Tot_abs_Q>  (95) 
1

>  <s_lp_Force_Field>  (95) 
OPLS3e

>  <r_lp_Energy>  (95) 
112.494

>  <b_lp_Chiralities_Consistent>  (95) 
1

>  <s_lp_Variant>  (95) 
35:0-1

>  <s_i_glide_gridfile>  (95) 
pfpi4k_grid

>  <i_i_glide_lignum>  (95) 
3

>  <i_i_glide_rotatable_bonds>  (95) 
5

>  <r_i_docking_score>  (95) 
-3.08794

>  <r_i_glide_ligand_efficiency>  (95) 
-0.0964982

>  <r_i_glide_ligand_efficiency_sa>  (95) 
-0.306363

>  <r_i_glide_ligand_efficiency_ln>  (95) 
-0.691475

>  <r_i_glide_gscore>  (95) 
-3.08794

>  <r_i_glide_lipo>  (95) 
-0.00288

>  <r_i_glide_hbond>  (95) 
-0.32

>  <r_i_glide_metal>  (95) 
-0

>  <r_i_glide_rewards>  (95) 
-0.460013

>  <r_i_glide_evdw>  (95) 
-20.2808

>  <r_i_glide_ecoul>  (95) 
-9.31585

>  <r_i_glide_erotb>  (95) 
0.106366

>  <r_i_glide_esite>  (95) 
0

>  <r_i_glide_emodel>  (95) 
-36.9325

>  <r_i_glide_energy>  (95) 
-29.5966

>  <r_i_glide_einternal>  (95) 
0.353351

>  <r_i_glide_intrahb_reward>  (95) 
-0

>  <i_i_glide_confnum>  (95) 
2

>  <i_i_glide_posenum>  (95) 
3

>  <r_i_glide_eff_state_penalty>  (95) 
0

>  <ligand_id>  (95) 
35

>  <original_smiles>  (95) 
C=C(C)c1ccc2c(c1)C13CC4(O)CC5N(CC)C4Cc4ccc(O)c(c41)OC(C2)C53O

>  <smiles>  (95) 
[H]Oc1c([H])c([H])c2c3c1OC1([H])C([H])([H])c4c([H])c([H])c(C(=C([H])[H])C([H])([H])[H])c([H])c4C34C([H])([H])C3(O[H])C([H])([H])C([H])(C14O[H])[N+]([H])(C([H])([H])C([H])([H])[H])C3([H])C2([H])[H]

$$$$
35:0:2
     RDKit          3D

 62 68  0  0  1  0  0  0  0  0999 V2000
   -2.1256   -5.0438    7.2442 C   0  0  0  0  0  0  0  0  0  0  0  0
   -1.0100   -4.6768    7.9067 C   0  0  0  0  0  0  0  0  0  0  0  0
   -1.1401   -4.1634    9.3365 C   0  0  0  0  0  0  0  0  0  0  0  0
    0.3564   -4.7885    7.3160 C   0  0  0  0  0  0  0  0  0  0  0  0
    1.4610   -4.1661    7.9431 C   0  0  0  0  0  0  0  0  0  0  0  0
    2.7462   -4.2441    7.3846 C   0  0  0  0  0  0  0  0  0  0  0  0
    2.9679   -4.9464    6.1845 C   0  0  0  0  0  0  0  0  0  0  0  0
    1.8882   -5.6011    5.5249 C   0  0  0  0  0  0  0  0  0  0  0  0
    0.5994   -5.5072    6.1135 C   0  0  0  0  0  0  0  0  0  0  0  0
    2.1161   -6.4394    4.2273 C   0  0  2  0  0  0  0  0  0  0  0  0
    0.8889   -6.2734    3.2639 C   0  0  0  0  0  0  0  0  0  0  0  0
    1.1387   -6.7970    1.8330 C   0  0  1  0  0  0  0  0  0  0  0  0
   -0.0413   -6.6546    1.0554 O   0  0  0  0  0  0  0  0  0  0  0  0
    2.3026   -6.0470    1.1742 C   0  0  0  0  0  0  0  0  0  0  0  0
    3.4895   -6.5953    2.0084 C   0  0  2  0  0  0  0  0  0  0  0  0
    3.1770   -8.0498    1.8289 N   0  0  1  0  0  0  0  0  0  0  0  0
    4.1207   -9.1319    2.2246 C   0  0  0  0  0  0  0  0  0  0  0  0
    5.5047   -8.9587    1.5759 C   0  0  0  0  0  0  0  0  0  0  0  0
    1.6855   -8.2242    1.8749 C   0  0  1  0  0  0  0  0  0  0  0  0
    1.0270   -9.0774    2.9942 C   0  0  0  0  0  0  0  0  0  0  0  0
    1.6571   -9.0371    4.3777 C   0  0  0  0  0  0  0  0  0  0  0  0
    1.8762  -10.2205    5.1045 C   0  0  0  0  0  0  0  0  0  0  0  0
    2.9049  -10.2785    6.0571 C   0  0  0  0  0  0  0  0  0  0  0  0
    3.8169   -9.2191    6.1572 C   0  0  0  0  0  0  0  0  0  0  0  0
    4.9287   -9.3729    6.9347 O   0  0  0  0  0  0  0  0  0  0  0  0
    3.6430   -8.0273    5.4197 C   0  0  0  0  0  0  0  0  0  0  0  0
    2.4329   -7.8880    4.6948 C   0  0  0  0  0  0  0  0  0  0  0  0
    4.7208   -7.1937    5.2601 O   0  0  0  0  0  0  0  0  0  0  0  0
    4.5791   -6.0016    4.4922 C   0  0  2  0  0  0  0  0  0  0  0  0
    4.3832   -4.9702    5.6278 C   0  0  0  0  0  0  0  0  0  0  0  0
    3.3874   -5.9618    3.4719 C   0  0  2  0  0  0  0  0  0  0  0  0
    3.2828   -4.5682    3.1834 O   0  0  0  0  0  0  0  0  0  0  0  0
   -3.0989   -4.9706    7.7084 H   0  0  0  0  0  0  0  0  0  0  0  0
   -2.1128   -5.4349    6.2416 H   0  0  0  0  0  0  0  0  0  0  0  0
   -0.6617   -3.1929    9.4675 H   0  0  0  0  0  0  0  0  0  0  0  0
   -0.6890   -4.8690   10.0336 H   0  0  0  0  0  0  0  0  0  0  0  0
   -2.1844   -4.0319    9.6246 H   0  0  0  0  0  0  0  0  0  0  0  0
    1.3596   -3.6148    8.8640 H   0  0  0  0  0  0  0  0  0  0  0  0
    3.5636   -3.7555    7.8954 H   0  0  0  0  0  0  0  0  0  0  0  0
   -0.2196   -6.0147    5.6373 H   0  0  0  0  0  0  0  0  0  0  0  0
   -0.0091   -6.7278    3.6802 H   0  0  0  0  0  0  0  0  0  0  0  0
    0.6548   -5.2110    3.1776 H   0  0  0  0  0  0  0  0  0  0  0  0
   -0.2783   -7.5013    0.6886 H   0  0  0  0  0  0  0  0  0  0  0  0
    2.4025   -6.3287    0.1235 H   0  0  0  0  0  0  0  0  0  0  0  0
    2.1584   -4.9667    1.1571 H   0  0  0  0  0  0  0  0  0  0  0  0
    4.4344   -6.3352    1.5305 H   0  0  0  0  0  0  0  0  0  0  0  0
    4.2498   -9.2129    3.2940 H   0  0  0  0  0  0  0  0  0  0  0  0
    3.7104  -10.0864    1.8949 H   0  0  0  0  0  0  0  0  0  0  0  0
    6.1482   -9.8050    1.8208 H   0  0  0  0  0  0  0  0  0  0  0  0
    6.0139   -8.0590    1.9338 H   0  0  0  0  0  0  0  0  0  0  0  0
    5.4449   -8.9085    0.4840 H   0  0  0  0  0  0  0  0  0  0  0  0
    1.4293   -8.6886    0.9265 H   0  0  0  0  0  0  0  0  0  0  0  0
   -0.0390   -8.8666    3.0756 H   0  0  0  0  0  0  0  0  0  0  0  0
    1.0659  -10.1166    2.6640 H   0  0  0  0  0  0  0  0  0  0  0  0
    1.3269  -11.1231    4.8650 H   0  0  0  0  0  0  0  0  0  0  0  0
    3.0641  -11.2008    6.5926 H   0  0  0  0  0  0  0  0  0  0  0  0
    4.9548  -10.2146    7.3617 H   0  0  0  0  0  0  0  0  0  0  0  0
    5.5306   -5.8149    3.9891 H   0  0  0  0  0  0  0  0  0  0  0  0
    4.6284   -3.9649    5.2875 H   0  0  0  0  0  0  0  0  0  0  0  0
    5.0761   -5.1773    6.4452 H   0  0  0  0  0  0  0  0  0  0  0  0
    4.0852   -4.2806    2.7760 H   0  0  0  0  0  0  0  0  0  0  0  0
    3.3074   -8.1145    0.8277 H   0  0  0  0  0  0  0  0  0  0  0  0
  1  2  2  0
  1 33  1  0
  1 34  1  0
  2  3  1  0
  2  4  1  0
  3 35  1  0
  3 36  1  0
  3 37  1  0
  4  9  2  0
  4  5  1  0
  5  6  2  0
  5 38  1  0
  6  7  1  0
  6 39  1  0
  7 30  1  0
  7  8  2  0
  8  9  1  0
 10  8  1  1
  9 40  1  0
 10 27  1  0
 10 31  1  0
 10 11  1  0
 11 12  1  0
 11 41  1  0
 11 42  1  0
 12 19  1  0
 12 13  1  6
 12 14  1  0
 13 43  1  0
 14 15  1  0
 14 44  1  0
 14 45  1  0
 15 31  1  0
 15 16  1  0
 15 46  1  6
 16 17  1  0
 16 19  1  0
 16 62  1  6
 17 18  1  0
 17 47  1  0
 17 48  1  0
 18 49  1  0
 18 50  1  0
 18 51  1  0
 19 20  1  0
 19 52  1  6
 20 21  1  0
 20 53  1  0
 20 54  1  0
 21 27  2  0
 21 22  1  0
 22 23  2  0
 22 55  1  0
 23 24  1  0
 23 56  1  0
 24 25  1  0
 24 26  2  0
 25 57  1  0
 26 27  1  0
 26 28  1  0
 28 29  1  0
 29 30  1  0
 29 31  1  0
 29 58  1  6
 30 59  1  0
 30 60  1  0
 31 32  1  6
 32 61  1  0
M  CHG  1  16   1
M  END
>  <i_m_ct_stereo_status>  (96) 
1

>  <s_m_source_file>  (96) 
/var/tmp/pbs.5076255.sched01/tmpjtt61wjg/4457_394l_.sdf

>  <i_m_source_file_index>  (96) 
3

>  <i_lp_mmshare_version>  (96) 
48012

>  <i_f3d_flags>  (96) 
0

>  <s_epik_input>  (96) 
W0NIMl09QyhbQ0gzXSljKFtjSF0xKVtjSF1bY0hdYyhjMVtDQF0yMzQpW0NIMl1bQ0BASF01W0NAQF00KFtPSF0pW0NAQEhdNltDSDJdW0NAQF0oW0NIMl0yKShbT0hdKVtDQEBIXShONltDSDJdW0NIM10pW0NIMl1jN2MzYyhPNSljKFtPSF0pW2NIXVtjSF03

>  <s_epik_cmdline>  (96) 
J2VwaWtfcHl0aG9uJywgJy1waHQnLCAnMi4wJywgJy1waCcsICc3LjAnLCAnLXRuJywgJzgnLCAnLW1hJywgJzIwMCcsICctaW1hZScsICc8aW5maWxlLm1hZT4nLCAnLW9tYWUnLCAnPG91dGZpbGUubWFlPic=

>  <r_lp_tautomer_probability>  (96) 
1

>  <r_epik_Ionization_Penalty>  (96) 
0.0653536

>  <r_epik_Ionization_Penalty_Charging>  (96) 
0.0642969

>  <r_epik_Ionization_Penalty_Neutral>  (96) 
0.0010567

>  <r_epik_State_Penalty>  (96) 
0.0559989

>  <r_epik_Charging_Adjusted_Penalty>  (96) 
0.120296

>  <i_epik_Tot_Q>  (96) 
1

>  <i_epik_Tot_abs_Q>  (96) 
1

>  <s_lp_Force_Field>  (96) 
OPLS3e

>  <r_lp_Energy>  (96) 
112.494

>  <b_lp_Chiralities_Consistent>  (96) 
1

>  <s_lp_Variant>  (96) 
35:0-1

>  <s_i_glide_gridfile>  (96) 
pfpi4k_grid

>  <i_i_glide_lignum>  (96) 
3

>  <i_i_glide_rotatable_bonds>  (96) 
5

>  <r_i_docking_score>  (96) 
-2.85746

>  <r_i_glide_ligand_efficiency>  (96) 
-0.0892957

>  <r_i_glide_ligand_efficiency_sa>  (96) 
-0.283496

>  <r_i_glide_ligand_efficiency_ln>  (96) 
-0.639864

>  <r_i_glide_gscore>  (96) 
-2.85746

>  <r_i_glide_lipo>  (96) 
-0.0360672

>  <r_i_glide_hbond>  (96) 
-0.16

>  <r_i_glide_metal>  (96) 
-0

>  <r_i_glide_rewards>  (96) 
-0.460013

>  <r_i_glide_evdw>  (96) 
-24.1145

>  <r_i_glide_ecoul>  (96) 
-7.30585

>  <r_i_glide_erotb>  (96) 
0.106366

>  <r_i_glide_esite>  (96) 
-0.00614741

>  <r_i_glide_emodel>  (96) 
-37.4421

>  <r_i_glide_energy>  (96) 
-31.4203

>  <r_i_glide_einternal>  (96) 
1.73832

>  <r_i_glide_intrahb_reward>  (96) 
-0

>  <i_i_glide_confnum>  (96) 
3

>  <i_i_glide_posenum>  (96) 
5

>  <r_i_glide_eff_state_penalty>  (96) 
0

>  <ligand_id>  (96) 
35

>  <original_smiles>  (96) 
C=C(C)c1ccc2c(c1)C13CC4(O)CC5N(CC)C4Cc4ccc(O)c(c41)OC(C2)C53O

>  <smiles>  (96) 
[H]Oc1c([H])c([H])c2c3c1OC1([H])C([H])([H])c4c([H])c([H])c(C(=C([H])[H])C([H])([H])[H])c([H])c4C34C([H])([H])C3(O[H])C([H])([H])C([H])(C14O[H])[N+]([H])(C([H])([H])C([H])([H])[H])C3([H])C2([H])[H]

$$$$
35:1:0
     RDKit          3D

 61 67  0  0  1  0  0  0  0  0999 V2000
    0.0105   -8.2526    2.0770 C   0  0  0  0  0  0  0  0  0  0  0  0
   -0.3531   -7.4650    3.1043 C   0  0  0  0  0  0  0  0  0  0  0  0
   -1.6290   -7.7847    3.8707 C   0  0  0  0  0  0  0  0  0  0  0  0
    0.4433   -6.2790    3.5251 C   0  0  0  0  0  0  0  0  0  0  0  0
    0.2341   -5.6922    4.7926 C   0  0  0  0  0  0  0  0  0  0  0  0
    0.9824   -4.5749    5.1982 C   0  0  0  0  0  0  0  0  0  0  0  0
    1.9610   -4.0157    4.3511 C   0  0  0  0  0  0  0  0  0  0  0  0
    2.2007   -4.5815    3.0669 C   0  0  0  0  0  0  0  0  0  0  0  0
    1.4353   -5.7129    2.6841 C   0  0  0  0  0  0  0  0  0  0  0  0
    3.3124   -4.0252    2.1266 C   0  0  2  0  0  0  0  0  0  0  0  0
    2.8381   -4.0608    0.6284 C   0  0  0  0  0  0  0  0  0  0  0  0
    3.7529   -3.2631   -0.3355 C   0  0  1  0  0  0  0  0  0  0  0  0
    3.3370   -3.4516   -1.6782 O   0  0  0  0  0  0  0  0  0  0  0  0
    3.8144   -1.7819    0.0271 C   0  0  0  0  0  0  0  0  0  0  0  0
    4.5877   -1.8999    1.3636 C   0  0  2  0  0  0  0  0  0  0  0  0
    5.7249   -2.7610    0.9729 N   0  0  0  0  0  0  0  0  0  0  0  0
    6.9382   -2.0243    0.6278 C   0  0  0  0  0  0  0  0  0  0  0  0
    8.1552   -2.9354    0.4108 C   0  0  0  0  0  0  0  0  0  0  0  0
    5.2102   -3.6437   -0.1132 C   0  0  1  0  0  0  0  0  0  0  0  0
    5.3447   -5.1747    0.0966 C   0  0  0  0  0  0  0  0  0  0  0  0
    5.3283   -5.6492    1.5466 C   0  0  0  0  0  0  0  0  0  0  0  0
    6.3407   -6.4971    2.0385 C   0  0  0  0  0  0  0  0  0  0  0  0
    6.6898   -6.4609    3.3957 C   0  0  0  0  0  0  0  0  0  0  0  0
    6.1491   -5.4608    4.2197 C   0  0  0  0  0  0  0  0  0  0  0  0
    6.6346   -5.3146    5.4857 O   0  0  0  0  0  0  0  0  0  0  0  0
    5.1522   -4.5762    3.7526 C   0  0  0  0  0  0  0  0  0  0  0  0
    4.6121   -4.8322    2.4690 C   0  0  0  0  0  0  0  0  0  0  0  0
    4.9037   -3.4370    4.4809 O   0  0  0  0  0  0  0  0  0  0  0  0
    3.9720   -2.4721    3.9844 C   0  0  2  0  0  0  0  0  0  0  0  0
    2.7313   -2.7998    4.8458 C   0  0  0  0  0  0  0  0  0  0  0  0
    3.6209   -2.5349    2.4587 C   0  0  2  0  0  0  0  0  0  0  0  0
    2.4458   -1.7242    2.3782 O   0  0  0  0  0  0  0  0  0  0  0  0
   -0.5929   -9.1026    1.7921 H   0  0  0  0  0  0  0  0  0  0  0  0
    0.9051   -8.0964    1.4944 H   0  0  0  0  0  0  0  0  0  0  0  0
   -2.2787   -6.9147    3.9348 H   0  0  0  0  0  0  0  0  0  0  0  0
   -1.3933   -8.1214    4.8790 H   0  0  0  0  0  0  0  0  0  0  0  0
   -2.1915   -8.5864    3.3919 H   0  0  0  0  0  0  0  0  0  0  0  0
   -0.4959   -6.0908    5.4788 H   0  0  0  0  0  0  0  0  0  0  0  0
    0.8097   -4.1508    6.1768 H   0  0  0  0  0  0  0  0  0  0  0  0
    1.6153   -6.1492    1.7162 H   0  0  0  0  0  0  0  0  0  0  0  0
    2.7130   -5.0817    0.2716 H   0  0  0  0  0  0  0  0  0  0  0  0
    1.8503   -3.6139    0.5621 H   0  0  0  0  0  0  0  0  0  0  0  0
    3.2780   -4.3816   -1.8750 H   0  0  0  0  0  0  0  0  0  0  0  0
    4.4041   -1.2264   -0.7059 H   0  0  0  0  0  0  0  0  0  0  0  0
    2.8449   -1.2839    0.0557 H   0  0  0  0  0  0  0  0  0  0  0  0
    4.9276   -0.9173    1.7029 H   0  0  0  0  0  0  0  0  0  0  0  0
    6.7725   -1.3983   -0.2513 H   0  0  0  0  0  0  0  0  0  0  0  0
    7.1741   -1.3370    1.4433 H   0  0  0  0  0  0  0  0  0  0  0  0
    9.0687   -2.3550    0.2780 H   0  0  0  0  0  0  0  0  0  0  0  0
    8.0321   -3.5630   -0.4715 H   0  0  0  0  0  0  0  0  0  0  0  0
    8.2934   -3.5936    1.2686 H   0  0  0  0  0  0  0  0  0  0  0  0
    5.7190   -3.3887   -1.0407 H   0  0  0  0  0  0  0  0  0  0  0  0
    4.6449   -5.7494   -0.5117 H   0  0  0  0  0  0  0  0  0  0  0  0
    6.3184   -5.4425   -0.2997 H   0  0  0  0  0  0  0  0  0  0  0  0
    6.9322   -7.0925    1.3580 H   0  0  0  0  0  0  0  0  0  0  0  0
    7.4822   -7.0909    3.7647 H   0  0  0  0  0  0  0  0  0  0  0  0
    6.2048   -4.6107    5.9481 H   0  0  0  0  0  0  0  0  0  0  0  0
    4.3470   -1.4821    4.2469 H   0  0  0  0  0  0  0  0  0  0  0  0
    2.0459   -1.9522    4.8710 H   0  0  0  0  0  0  0  0  0  0  0  0
    3.0293   -2.9669    5.8789 H   0  0  0  0  0  0  0  0  0  0  0  0
    2.2007   -1.6238    1.4695 H   0  0  0  0  0  0  0  0  0  0  0  0
  1  2  2  0
  1 33  1  0
  1 34  1  0
  2  3  1  0
  2  4  1  0
  3 35  1  0
  3 36  1  0
  3 37  1  0
  4  9  2  0
  4  5  1  0
  5  6  2  0
  5 38  1  0
  6  7  1  0
  6 39  1  0
  7 30  1  0
  7  8  2  0
  8  9  1  0
 10  8  1  1
  9 40  1  0
 10 27  1  0
 10 31  1  0
 10 11  1  0
 11 12  1  0
 11 41  1  0
 11 42  1  0
 12 19  1  0
 12 13  1  6
 12 14  1  0
 13 43  1  0
 14 15  1  0
 14 44  1  0
 14 45  1  0
 15 31  1  0
 15 16  1  0
 15 46  1  1
 16 17  1  0
 16 19  1  0
 17 18  1  0
 17 47  1  0
 17 48  1  0
 18 49  1  0
 18 50  1  0
 18 51  1  0
 19 20  1  0
 19 52  1  6
 20 21  1  0
 20 53  1  0
 20 54  1  0
 21 27  2  0
 21 22  1  0
 22 23  2  0
 22 55  1  0
 23 24  1  0
 23 56  1  0
 24 25  1  0
 24 26  2  0
 25 57  1  0
 26 27  1  0
 26 28  1  0
 28 29  1  0
 29 30  1  0
 29 31  1  0
 29 58  1  1
 30 59  1  0
 30 60  1  0
 31 32  1  1
 32 61  1  0
M  END
>  <i_m_ct_stereo_status>  (97) 
1

>  <s_m_source_file>  (97) 
/var/tmp/pbs.5076255.sched01/tmpjtt61wjg/4457_394l_.sdf

>  <i_m_source_file_index>  (97) 
4

>  <i_lp_mmshare_version>  (97) 
48012

>  <i_f3d_flags>  (97) 
0

>  <s_epik_input>  (97) 
W0NIMl09QyhbQ0gzXSljKFtjSF0xKVtjSF1bY0hdYyhjMVtDQF0yMzQpW0NIMl1bQ0BASF01W0NAQF00KFtPSF0pW0NAQEhdNltDSDJdW0NAQF0oW0NIMl0yKShbT0hdKVtDQEBIXShONltDSDJdW0NIM10pW0NIMl1jN2MzYyhPNSljKFtPSF0pW2NIXVtjSF03

>  <s_epik_cmdline>  (97) 
J2VwaWtfcHl0aG9uJywgJy1waHQnLCAnMi4wJywgJy1waCcsICc3LjAnLCAnLXRuJywgJzgnLCAnLW1hJywgJzIwMCcsICctaW1hZScsICc8aW5maWxlLm1hZT4nLCAnLW9tYWUnLCAnPG91dGZpbGUubWFlPic=

>  <r_lp_tautomer_probability>  (97) 
1

>  <r_epik_Ionization_Penalty>  (97) 
1.34775

>  <r_epik_Ionization_Penalty_Charging>  (97) 
0

>  <r_epik_Ionization_Penalty_Neutral>  (97) 
1.34775

>  <r_epik_State_Penalty>  (97) 
1.42545

>  <r_epik_Charging_Adjusted_Penalty>  (97) 
1.42545

>  <i_epik_Tot_Q>  (97) 
0

>  <i_epik_Tot_abs_Q>  (97) 
0

>  <s_lp_Force_Field>  (97) 
OPLS3e

>  <r_lp_Energy>  (97) 
106.366

>  <b_lp_Chiralities_Consistent>  (97) 
1

>  <s_lp_Variant>  (97) 
35:0-2

>  <s_i_glide_gridfile>  (97) 
pfpi4k_grid

>  <i_i_glide_lignum>  (97) 
4

>  <i_i_glide_rotatable_bonds>  (97) 
5

>  <r_i_docking_score>  (97) 
-3.02689

>  <r_i_glide_ligand_efficiency>  (97) 
-0.0945903

>  <r_i_glide_ligand_efficiency_sa>  (97) 
-0.300305

>  <r_i_glide_ligand_efficiency_ln>  (97) 
-0.677803

>  <r_i_glide_gscore>  (97) 
-3.02689

>  <r_i_glide_lipo>  (97) 
-0.547266

>  <r_i_glide_hbond>  (97) 
-0.32

>  <r_i_glide_metal>  (97) 
-0

>  <r_i_glide_rewards>  (97) 
-0.466885

>  <r_i_glide_evdw>  (97) 
-24.6044

>  <r_i_glide_ecoul>  (97) 
-3.79555

>  <r_i_glide_erotb>  (97) 
0.106817

>  <r_i_glide_esite>  (97) 
0

>  <r_i_glide_emodel>  (97) 
-34.1699

>  <r_i_glide_energy>  (97) 
-28.4

>  <r_i_glide_einternal>  (97) 
0.125423

>  <r_i_glide_intrahb_reward>  (97) 
-0

>  <i_i_glide_confnum>  (97) 
3

>  <i_i_glide_posenum>  (97) 
7

>  <r_i_glide_eff_state_penalty>  (97) 
0

>  <ligand_id>  (97) 
35

>  <original_smiles>  (97) 
C=C(C)c1ccc2c(c1)C13CC4(O)CC5N(CC)C4Cc4ccc(O)c(c41)OC(C2)C53O

>  <smiles>  (97) 
[H]Oc1c([H])c([H])c2c3c1OC1([H])C([H])([H])c4c([H])c([H])c(C(=C([H])[H])C([H])([H])[H])c([H])c4C34C([H])([H])C3(O[H])C([H])([H])C([H])(N(C([H])([H])C([H])([H])[H])C3([H])C2([H])[H])C14O[H]

$$$$
35:1:1
     RDKit          3D

 61 67  0  0  1  0  0  0  0  0999 V2000
   -1.4732   -7.7551    3.8440 C   0  0  0  0  0  0  0  0  0  0  0  0
   -0.3803   -7.3458    3.1706 C   0  0  0  0  0  0  0  0  0  0  0  0
    0.0637   -8.1164    1.9398 C   0  0  0  0  0  0  0  0  0  0  0  0
    0.4389   -6.1694    3.5788 C   0  0  0  0  0  0  0  0  0  0  0  0
    0.2521   -5.5544    4.8366 C   0  0  0  0  0  0  0  0  0  0  0  0
    1.0239   -4.4474    5.2202 C   0  0  0  0  0  0  0  0  0  0  0  0
    2.0064   -3.9212    4.3596 C   0  0  0  0  0  0  0  0  0  0  0  0
    2.2223   -4.5088    3.0805 C   0  0  0  0  0  0  0  0  0  0  0  0
    1.4310   -5.6306    2.7180 C   0  0  0  0  0  0  0  0  0  0  0  0
    3.3414   -3.9869    2.1295 C   0  0  2  0  0  0  0  0  0  0  0  0
    2.8571   -4.0275    0.6351 C   0  0  0  0  0  0  0  0  0  0  0  0
    3.7827   -3.2594   -0.3425 C   0  0  1  0  0  0  0  0  0  0  0  0
    3.3546   -3.4517   -1.6807 O   0  0  0  0  0  0  0  0  0  0  0  0
    3.8782   -1.7761    0.0036 C   0  0  0  0  0  0  0  0  0  0  0  0
    4.6570   -1.8966    1.3367 C   0  0  2  0  0  0  0  0  0  0  0  0
    5.7731   -2.7862    0.9491 N   0  0  0  0  0  0  0  0  0  0  0  0
    6.9997   -2.0796    0.5869 C   0  0  0  0  0  0  0  0  0  0  0  0
    8.1989   -3.0177    0.3888 C   0  0  0  0  0  0  0  0  0  0  0  0
    5.2327   -3.6689   -0.1245 C   0  0  1  0  0  0  0  0  0  0  0  0
    5.3350   -5.2002    0.0998 C   0  0  0  0  0  0  0  0  0  0  0  0
    5.3184   -5.6597    1.5547 C   0  0  0  0  0  0  0  0  0  0  0  0
    6.3160   -6.5237    2.0489 C   0  0  0  0  0  0  0  0  0  0  0  0
    6.6749   -6.4808    3.4035 C   0  0  0  0  0  0  0  0  0  0  0  0
    6.1610   -5.4608    4.2204 C   0  0  0  0  0  0  0  0  0  0  0  0
    6.6564   -5.3135    5.4823 O   0  0  0  0  0  0  0  0  0  0  0  0
    5.1799   -4.5603    3.7506 C   0  0  0  0  0  0  0  0  0  0  0  0
    4.6260   -4.8180    2.4729 C   0  0  0  0  0  0  0  0  0  0  0  0
    4.9612   -3.4079    4.4683 O   0  0  0  0  0  0  0  0  0  0  0  0
    4.0481   -2.4279    3.9669 C   0  0  2  0  0  0  0  0  0  0  0  0
    2.8068   -2.7193    4.8387 C   0  0  0  0  0  0  0  0  0  0  0  0
    3.6838   -2.4996    2.4443 C   0  0  2  0  0  0  0  0  0  0  0  0
    2.5246   -1.6658    2.3631 O   0  0  0  0  0  0  0  0  0  0  0  0
   -2.0252   -8.6282    3.5256 H   0  0  0  0  0  0  0  0  0  0  0  0
   -1.8530   -7.2554    4.7185 H   0  0  0  0  0  0  0  0  0  0  0  0
    1.1162   -8.3901    2.0127 H   0  0  0  0  0  0  0  0  0  0  0  0
   -0.0832   -7.5268    1.0352 H   0  0  0  0  0  0  0  0  0  0  0  0
   -0.5038   -9.0403    1.8284 H   0  0  0  0  0  0  0  0  0  0  0  0
   -0.4715   -5.9213    5.5450 H   0  0  0  0  0  0  0  0  0  0  0  0
    0.8672   -4.0118    6.1957 H   0  0  0  0  0  0  0  0  0  0  0  0
    1.5988   -6.0905    1.7577 H   0  0  0  0  0  0  0  0  0  0  0  0
    2.7070   -5.0494    0.2914 H   0  0  0  0  0  0  0  0  0  0  0  0
    1.8789   -3.5597    0.5716 H   0  0  0  0  0  0  0  0  0  0  0  0
    3.2845   -4.3820   -1.8711 H   0  0  0  0  0  0  0  0  0  0  0  0
    4.4755   -1.2414   -0.7384 H   0  0  0  0  0  0  0  0  0  0  0  0
    2.9206   -1.2556    0.0310 H   0  0  0  0  0  0  0  0  0  0  0  0
    5.0199   -0.9179    1.6637 H   0  0  0  0  0  0  0  0  0  0  0  0
    6.8448   -1.4697   -0.3058 H   0  0  0  0  0  0  0  0  0  0  0  0
    7.2514   -1.3788    1.3860 H   0  0  0  0  0  0  0  0  0  0  0  0
    9.1226   -2.4569    0.2435 H   0  0  0  0  0  0  0  0  0  0  0  0
    8.0627   -3.6613   -0.4800 H   0  0  0  0  0  0  0  0  0  0  0  0
    8.3259   -3.6600    1.2606 H   0  0  0  0  0  0  0  0  0  0  0  0
    5.7412   -3.4347   -1.0577 H   0  0  0  0  0  0  0  0  0  0  0  0
    4.6189   -5.7654   -0.4981 H   0  0  0  0  0  0  0  0  0  0  0  0
    6.2998   -5.4932   -0.3000 H   0  0  0  0  0  0  0  0  0  0  0  0
    6.8901   -7.1383    1.3712 H   0  0  0  0  0  0  0  0  0  0  0  0
    7.4562   -7.1233    3.7739 H   0  0  0  0  0  0  0  0  0  0  0  0
    6.2422   -4.5980    5.9412 H   0  0  0  0  0  0  0  0  0  0  0  0
    4.4450   -1.4430    4.2165 H   0  0  0  0  0  0  0  0  0  0  0  0
    2.1391   -1.8576    4.8610 H   0  0  0  0  0  0  0  0  0  0  0  0
    3.1073   -2.8832    5.8721 H   0  0  0  0  0  0  0  0  0  0  0  0
    2.2536   -1.5980    1.4586 H   0  0  0  0  0  0  0  0  0  0  0  0
  1  2  2  0
  1 33  1  0
  1 34  1  0
  2  3  1  0
  2  4  1  0
  3 35  1  0
  3 36  1  0
  3 37  1  0
  4  9  2  0
  4  5  1  0
  5  6  2  0
  5 38  1  0
  6  7  1  0
  6 39  1  0
  7 30  1  0
  7  8  2  0
  8  9  1  0
 10  8  1  1
  9 40  1  0
 10 27  1  0
 10 31  1  0
 10 11  1  0
 11 12  1  0
 11 41  1  0
 11 42  1  0
 12 19  1  0
 12 13  1  6
 12 14  1  0
 13 43  1  0
 14 15  1  0
 14 44  1  0
 14 45  1  0
 15 31  1  0
 15 16  1  0
 15 46  1  1
 16 17  1  0
 16 19  1  0
 17 18  1  0
 17 47  1  0
 17 48  1  0
 18 49  1  0
 18 50  1  0
 18 51  1  0
 19 20  1  0
 19 52  1  6
 20 21  1  0
 20 53  1  0
 20 54  1  0
 21 27  2  0
 21 22  1  0
 22 23  2  0
 22 55  1  0
 23 24  1  0
 23 56  1  0
 24 25  1  0
 24 26  2  0
 25 57  1  0
 26 27  1  0
 26 28  1  0
 28 29  1  0
 29 30  1  0
 29 31  1  0
 29 58  1  1
 30 59  1  0
 30 60  1  0
 31 32  1  1
 32 61  1  0
M  END
>  <i_m_ct_stereo_status>  (98) 
1

>  <s_m_source_file>  (98) 
/var/tmp/pbs.5076255.sched01/tmpjtt61wjg/4457_394l_.sdf

>  <i_m_source_file_index>  (98) 
4

>  <i_lp_mmshare_version>  (98) 
48012

>  <i_f3d_flags>  (98) 
0

>  <s_epik_input>  (98) 
W0NIMl09QyhbQ0gzXSljKFtjSF0xKVtjSF1bY0hdYyhjMVtDQF0yMzQpW0NIMl1bQ0BASF01W0NAQF00KFtPSF0pW0NAQEhdNltDSDJdW0NAQF0oW0NIMl0yKShbT0hdKVtDQEBIXShONltDSDJdW0NIM10pW0NIMl1jN2MzYyhPNSljKFtPSF0pW2NIXVtjSF03

>  <s_epik_cmdline>  (98) 
J2VwaWtfcHl0aG9uJywgJy1waHQnLCAnMi4wJywgJy1waCcsICc3LjAnLCAnLXRuJywgJzgnLCAnLW1hJywgJzIwMCcsICctaW1hZScsICc8aW5maWxlLm1hZT4nLCAnLW9tYWUnLCAnPG91dGZpbGUubWFlPic=

>  <r_lp_tautomer_probability>  (98) 
1

>  <r_epik_Ionization_Penalty>  (98) 
1.34775

>  <r_epik_Ionization_Penalty_Charging>  (98) 
0

>  <r_epik_Ionization_Penalty_Neutral>  (98) 
1.34775

>  <r_epik_State_Penalty>  (98) 
1.42545

>  <r_epik_Charging_Adjusted_Penalty>  (98) 
1.42545

>  <i_epik_Tot_Q>  (98) 
0

>  <i_epik_Tot_abs_Q>  (98) 
0

>  <s_lp_Force_Field>  (98) 
OPLS3e

>  <r_lp_Energy>  (98) 
106.366

>  <b_lp_Chiralities_Consistent>  (98) 
1

>  <s_lp_Variant>  (98) 
35:0-2

>  <s_i_glide_gridfile>  (98) 
pfpi4k_grid

>  <i_i_glide_lignum>  (98) 
4

>  <i_i_glide_rotatable_bonds>  (98) 
5

>  <r_i_docking_score>  (98) 
-2.94658

>  <r_i_glide_ligand_efficiency>  (98) 
-0.0920806

>  <r_i_glide_ligand_efficiency_sa>  (98) 
-0.292338

>  <r_i_glide_ligand_efficiency_ln>  (98) 
-0.65982

>  <r_i_glide_gscore>  (98) 
-2.94658

>  <r_i_glide_lipo>  (98) 
-0.558383

>  <r_i_glide_hbond>  (98) 
-0.32

>  <r_i_glide_metal>  (98) 
-0

>  <r_i_glide_rewards>  (98) 
-0.466885

>  <r_i_glide_evdw>  (98) 
-24.1958

>  <r_i_glide_ecoul>  (98) 
-3.32226

>  <r_i_glide_erotb>  (98) 
0.106817

>  <r_i_glide_esite>  (98) 
0

>  <r_i_glide_emodel>  (98) 
-33.0803

>  <r_i_glide_energy>  (98) 
-27.518

>  <r_i_glide_einternal>  (98) 
0.179466

>  <r_i_glide_intrahb_reward>  (98) 
-0

>  <i_i_glide_confnum>  (98) 
4

>  <i_i_glide_posenum>  (98) 
5

>  <r_i_glide_eff_state_penalty>  (98) 
0

>  <ligand_id>  (98) 
35

>  <original_smiles>  (98) 
C=C(C)c1ccc2c(c1)C13CC4(O)CC5N(CC)C4Cc4ccc(O)c(c41)OC(C2)C53O

>  <smiles>  (98) 
[H]Oc1c([H])c([H])c2c3c1OC1([H])C([H])([H])c4c([H])c([H])c(C(=C([H])[H])C([H])([H])[H])c([H])c4C34C([H])([H])C3(O[H])C([H])([H])C([H])(N(C([H])([H])C([H])([H])[H])C3([H])C2([H])[H])C14O[H]

$$$$
35:1:2
     RDKit          3D

 61 67  0  0  1  0  0  0  0  0999 V2000
   -0.1461   -7.5845    1.7133 C   0  0  0  0  0  0  0  0  0  0  0  0
   -0.2937   -7.0822    2.9542 C   0  0  0  0  0  0  0  0  0  0  0  0
   -1.4474   -7.5681    3.8219 C   0  0  0  0  0  0  0  0  0  0  0  0
    0.6325   -6.0615    3.5258 C   0  0  0  0  0  0  0  0  0  0  0  0
    0.6121   -5.7666    4.9078 C   0  0  0  0  0  0  0  0  0  0  0  0
    1.4792   -4.8022    5.4518 C   0  0  0  0  0  0  0  0  0  0  0  0
    2.3864   -4.1019    4.6285 C   0  0  0  0  0  0  0  0  0  0  0  0
    2.4327   -4.3696    3.2307 C   0  0  0  0  0  0  0  0  0  0  0  0
    1.5575   -5.3568    2.7120 C   0  0  0  0  0  0  0  0  0  0  0  0
    3.4594   -3.6572    2.2984 C   0  0  2  0  0  0  0  0  0  0  0  0
    2.8030   -3.3275    0.9101 C   0  0  0  0  0  0  0  0  0  0  0  0
    3.6342   -2.3623    0.0349 C   0  0  1  0  0  0  0  0  0  0  0  0
    3.0141   -2.2247   -1.2314 O   0  0  0  0  0  0  0  0  0  0  0  0
    3.8489   -1.0086    0.7008 C   0  0  0  0  0  0  0  0  0  0  0  0
    4.7723   -1.4648    1.8590 C   0  0  2  0  0  0  0  0  0  0  0  0
    5.7900   -2.2570    1.1393 N   0  0  0  0  0  0  0  0  0  0  0  0
    7.0005   -1.5110    0.8032 C   0  0  0  0  0  0  0  0  0  0  0  0
    8.1147   -2.3895    0.2167 C   0  0  0  0  0  0  0  0  0  0  0  0
    5.0824   -2.8441   -0.0343 C   0  0  1  0  0  0  0  0  0  0  0  0
    5.1440   -4.3869   -0.1860 C   0  0  0  0  0  0  0  0  0  0  0  0
    5.2726   -5.1827    1.1115 C   0  0  0  0  0  0  0  0  0  0  0  0
    6.2776   -6.1550    1.2735 C   0  0  0  0  0  0  0  0  0  0  0  0
    6.7845   -6.4538    2.5458 C   0  0  0  0  0  0  0  0  0  0  0  0
    6.3989   -5.6590    3.6378 C   0  0  0  0  0  0  0  0  0  0  0  0
    7.0382   -5.8392    4.8286 O   0  0  0  0  0  0  0  0  0  0  0  0
    5.4204   -4.6498    3.5131 C   0  0  0  0  0  0  0  0  0  0  0  0
    4.7272   -4.5700    2.2792 C   0  0  0  0  0  0  0  0  0  0  0  0
    5.3436   -3.6886    4.4998 O   0  0  0  0  0  0  0  0  0  0  0  0
    4.4367   -2.5954    4.3512 C   0  0  2  0  0  0  0  0  0  0  0  0
    3.2888   -3.0610    5.2731 C   0  0  0  0  0  0  0  0  0  0  0  0
    3.9058   -2.2973    2.9057 C   0  0  2  0  0  0  0  0  0  0  0  0
    2.7796   -1.4545    3.1433 O   0  0  0  0  0  0  0  0  0  0  0  0
   -0.8354   -8.3238    1.3319 H   0  0  0  0  0  0  0  0  0  0  0  0
    0.6549   -7.3065    1.0478 H   0  0  0  0  0  0  0  0  0  0  0  0
   -2.0333   -6.7355    4.2088 H   0  0  0  0  0  0  0  0  0  0  0  0
   -1.0732   -8.1503    4.6645 H   0  0  0  0  0  0  0  0  0  0  0  0
   -2.1238   -8.2170    3.2649 H   0  0  0  0  0  0  0  0  0  0  0  0
   -0.0552   -6.2815    5.5814 H   0  0  0  0  0  0  0  0  0  0  0  0
    1.4517   -4.6062    6.5132 H   0  0  0  0  0  0  0  0  0  0  0  0
    1.5992   -5.5637    1.6577 H   0  0  0  0  0  0  0  0  0  0  0  0
    2.5705   -4.2298    0.3502 H   0  0  0  0  0  0  0  0  0  0  0  0
    1.8490   -2.8364    1.0823 H   0  0  0  0  0  0  0  0  0  0  0  0
    2.1536   -1.7986   -1.1178 H   0  0  0  0  0  0  0  0  0  0  0  0
    4.3841   -0.3258    0.0365 H   0  0  0  0  0  0  0  0  0  0  0  0
    2.9189   -0.5026    0.9654 H   0  0  0  0  0  0  0  0  0  0  0  0
    5.2216   -0.6014    2.3584 H   0  0  0  0  0  0  0  0  0  0  0  0
    6.7713   -0.6799    0.1326 H   0  0  0  0  0  0  0  0  0  0  0  0
    7.3927   -1.0560    1.7124 H   0  0  0  0  0  0  0  0  0  0  0  0
    9.0461   -1.8336    0.1008 H   0  0  0  0  0  0  0  0  0  0  0  0
    7.8411   -2.7857   -0.7606 H   0  0  0  0  0  0  0  0  0  0  0  0
    8.3114   -3.2378    0.8744 H   0  0  0  0  0  0  0  0  0  0  0  0
    5.4956   -2.4075   -0.9442 H   0  0  0  0  0  0  0  0  0  0  0  0
    4.3422   -4.7821   -0.8088 H   0  0  0  0  0  0  0  0  0  0  0  0
    6.0483   -4.5962   -0.7496 H   0  0  0  0  0  0  0  0  0  0  0  0
    6.7563   -6.6016    0.4195 H   0  0  0  0  0  0  0  0  0  0  0  0
    7.5771   -7.1764    2.6545 H   0  0  0  0  0  0  0  0  0  0  0  0
    6.6826   -5.2818    5.5034 H   0  0  0  0  0  0  0  0  0  0  0  0
    4.9119   -1.7089    4.7766 H   0  0  0  0  0  0  0  0  0  0  0  0
    2.6685   -2.2184    5.5760 H   0  0  0  0  0  0  0  0  0  0  0  0
    3.6963   -3.4744    6.1961 H   0  0  0  0  0  0  0  0  0  0  0  0
    3.0935   -0.5900    3.3625 H   0  0  0  0  0  0  0  0  0  0  0  0
  1  2  2  0
  1 33  1  0
  1 34  1  0
  2  3  1  0
  2  4  1  0
  3 35  1  0
  3 36  1  0
  3 37  1  0
  4  9  2  0
  4  5  1  0
  5  6  2  0
  5 38  1  0
  6  7  1  0
  6 39  1  0
  7 30  1  0
  7  8  2  0
  8  9  1  0
 10  8  1  1
  9 40  1  0
 10 27  1  0
 10 31  1  0
 10 11  1  0
 11 12  1  0
 11 41  1  0
 11 42  1  0
 12 19  1  0
 12 13  1  6
 12 14  1  0
 13 43  1  0
 14 15  1  0
 14 44  1  0
 14 45  1  0
 15 31  1  0
 15 16  1  0
 15 46  1  1
 16 17  1  0
 16 19  1  0
 17 18  1  0
 17 47  1  0
 17 48  1  0
 18 49  1  0
 18 50  1  0
 18 51  1  0
 19 20  1  0
 19 52  1  6
 20 21  1  0
 20 53  1  0
 20 54  1  0
 21 27  2  0
 21 22  1  0
 22 23  2  0
 22 55  1  0
 23 24  1  0
 23 56  1  0
 24 25  1  0
 24 26  2  0
 25 57  1  0
 26 27  1  0
 26 28  1  0
 28 29  1  0
 29 30  1  0
 29 31  1  0
 29 58  1  1
 30 59  1  0
 30 60  1  0
 31 32  1  1
 32 61  1  0
M  END
>  <i_m_ct_stereo_status>  (99) 
1

>  <s_m_source_file>  (99) 
/var/tmp/pbs.5076255.sched01/tmpjtt61wjg/4457_394l_.sdf

>  <i_m_source_file_index>  (99) 
4

>  <i_lp_mmshare_version>  (99) 
48012

>  <i_f3d_flags>  (99) 
0

>  <s_epik_input>  (99) 
W0NIMl09QyhbQ0gzXSljKFtjSF0xKVtjSF1bY0hdYyhjMVtDQF0yMzQpW0NIMl1bQ0BASF01W0NAQF00KFtPSF0pW0NAQEhdNltDSDJdW0NAQF0oW0NIMl0yKShbT0hdKVtDQEBIXShONltDSDJdW0NIM10pW0NIMl1jN2MzYyhPNSljKFtPSF0pW2NIXVtjSF03

>  <s_epik_cmdline>  (99) 
J2VwaWtfcHl0aG9uJywgJy1waHQnLCAnMi4wJywgJy1waCcsICc3LjAnLCAnLXRuJywgJzgnLCAnLW1hJywgJzIwMCcsICctaW1hZScsICc8aW5maWxlLm1hZT4nLCAnLW9tYWUnLCAnPG91dGZpbGUubWFlPic=

>  <r_lp_tautomer_probability>  (99) 
1

>  <r_epik_Ionization_Penalty>  (99) 
1.34775

>  <r_epik_Ionization_Penalty_Charging>  (99) 
0

>  <r_epik_Ionization_Penalty_Neutral>  (99) 
1.34775

>  <r_epik_State_Penalty>  (99) 
1.42545

>  <r_epik_Charging_Adjusted_Penalty>  (99) 
1.42545

>  <i_epik_Tot_Q>  (99) 
0

>  <i_epik_Tot_abs_Q>  (99) 
0

>  <s_lp_Force_Field>  (99) 
OPLS3e

>  <r_lp_Energy>  (99) 
106.366

>  <b_lp_Chiralities_Consistent>  (99) 
1

>  <s_lp_Variant>  (99) 
35:0-2

>  <s_i_glide_gridfile>  (99) 
pfpi4k_grid

>  <i_i_glide_lignum>  (99) 
4

>  <i_i_glide_rotatable_bonds>  (99) 
5

>  <r_i_docking_score>  (99) 
-2.82578

>  <r_i_glide_ligand_efficiency>  (99) 
-0.0883055

>  <r_i_glide_ligand_efficiency_sa>  (99) 
-0.280352

>  <r_i_glide_ligand_efficiency_ln>  (99) 
-0.632768

>  <r_i_glide_gscore>  (99) 
-2.82578

>  <r_i_glide_lipo>  (99) 
-0.520637

>  <r_i_glide_hbond>  (99) 
-0.16

>  <r_i_glide_metal>  (99) 
-0

>  <r_i_glide_rewards>  (99) 
-0.466885

>  <r_i_glide_evdw>  (99) 
-24.0781

>  <r_i_glide_ecoul>  (99) 
-3.87442

>  <r_i_glide_erotb>  (99) 
0.106817

>  <r_i_glide_esite>  (99) 
0

>  <r_i_glide_emodel>  (99) 
-33.1627

>  <r_i_glide_energy>  (99) 
-27.9526

>  <r_i_glide_einternal>  (99) 
0.319218

>  <r_i_glide_intrahb_reward>  (99) 
-0

>  <i_i_glide_confnum>  (99) 
3

>  <i_i_glide_posenum>  (99) 
35

>  <r_i_glide_eff_state_penalty>  (99) 
0

>  <ligand_id>  (99) 
35

>  <original_smiles>  (99) 
C=C(C)c1ccc2c(c1)C13CC4(O)CC5N(CC)C4Cc4ccc(O)c(c41)OC(C2)C53O

>  <smiles>  (99) 
[H]Oc1c([H])c([H])c2c3c1OC1([H])C([H])([H])c4c([H])c([H])c(C(=C([H])[H])C([H])([H])[H])c([H])c4C34C([H])([H])C3(O[H])C([H])([H])C([H])(N(C([H])([H])C([H])([H])[H])C3([H])C2([H])[H])C14O[H]

$$$$
36:0:0
     RDKit          3D

 24 26  0  0  1  0  0  0  0  0999 V2000
    0.0887   -6.2552    0.8902 O   0  0  0  0  0  0  0  0  0  0  0  0
    0.7847   -6.2920    1.9306 C   0  0  0  0  0  0  0  0  0  0  0  0
    0.3110   -6.2473    3.0862 O   0  0  0  0  0  0  0  0  0  0  0  0
    2.3135   -6.2941    1.7434 C   0  0  2  0  0  0  0  0  0  0  0  0
    3.1147   -6.2474    3.0843 C   0  0  0  0  0  0  0  0  0  0  0  0
    3.6169   -4.7854    3.2719 C   0  0  0  0  0  0  0  0  0  0  0  0
    3.5007   -4.2259    1.9150 C   0  0  0  0  0  0  0  0  0  0  0  0
    3.8727   -3.1624    1.1443 C   0  0  0  0  0  0  0  0  0  0  0  0
    3.3131   -3.4769   -0.1344 C   0  0  0  0  0  0  0  0  0  0  0  0
    3.4386   -2.6690   -1.3597 C   0  0  0  0  0  0  0  0  0  0  0  0
    4.1728   -1.5520   -1.4438 N   0  0  0  0  0  0  0  0  0  0  0  0
    4.1083   -0.9353   -2.6945 C   0  0  0  0  0  0  0  0  0  0  0  0
    3.3262   -1.6179   -3.5944 C   0  0  0  0  0  0  0  0  0  0  0  0
    2.6238   -3.0478   -2.8840 S   0  0  0  0  0  0  0  0  0  0  0  0
    2.6291   -4.6282   -0.1173 N   0  0  0  0  0  0  0  0  0  0  0  0
    2.7797   -5.0627    1.1444 N   0  0  0  0  0  0  0  0  0  0  0  0
    2.6053   -7.1363    1.1135 H   0  0  0  0  0  0  0  0  0  0  0  0
    2.6036   -6.6435    3.9663 H   0  0  0  0  0  0  0  0  0  0  0  0
    3.9918   -6.8713    2.9334 H   0  0  0  0  0  0  0  0  0  0  0  0
    2.9567   -4.2350    3.9419 H   0  0  0  0  0  0  0  0  0  0  0  0
    4.6409   -4.7296    3.6485 H   0  0  0  0  0  0  0  0  0  0  0  0
    4.4600   -2.3006    1.4254 H   0  0  0  0  0  0  0  0  0  0  0  0
    4.6330   -0.0033   -2.8571 H   0  0  0  0  0  0  0  0  0  0  0  0
    3.0828   -1.3590   -4.6103 H   0  0  0  0  0  0  0  0  0  0  0  0
  1  2  2  0
  2  3  1  0
  2  4  1  0
  4 16  1  0
  4  5  1  0
  4 17  1  6
  5  6  1  0
  5 18  1  0
  5 19  1  0
  6  7  1  0
  6 20  1  0
  6 21  1  0
  7 16  1  0
  7  8  2  0
  8  9  1  0
  8 22  1  0
  9 10  1  0
  9 15  2  0
 10 14  1  0
 10 11  2  0
 11 12  1  0
 12 13  2  0
 12 23  1  0
 13 14  1  0
 13 24  1  0
 15 16  1  0
M  CHG  1   3  -1
M  END
>  <i_m_ct_stereo_status>  (100) 
1

>  <s_m_source_file>  (100) 
/var/tmp/pbs.5076255.sched01/tmpjtt61wjg/4457_394l_.sdf

>  <i_m_source_file_index>  (100) 
5

>  <i_lp_mmshare_version>  (100) 
48012

>  <i_f3d_flags>  (100) 
0

>  <s_epik_input>  (100) 
Tz1DKFtPSF0pW0NASF0oW0NIMl1bQ0gyXTEpbihjMTIpbmMoW2NIXTIpLWMzbltjSF1bY0hdczM=

>  <s_epik_cmdline>  (100) 
J2VwaWtfcHl0aG9uJywgJy1waHQnLCAnMi4wJywgJy1waCcsICc3LjAnLCAnLXRuJywgJzgnLCAnLW1hJywgJzIwMCcsICctaW1hZScsICc8aW5maWxlLm1hZT4nLCAnLW9tYWUnLCAnPG91dGZpbGUubWFlPic=

>  <r_lp_tautomer_probability>  (100) 
1

>  <r_epik_Ionization_Penalty>  (100) 
0.000149439

>  <r_epik_Ionization_Penalty_Charging>  (100) 
9.87704e-05

>  <r_epik_Ionization_Penalty_Neutral>  (100) 
5.06688e-05

>  <r_epik_State_Penalty>  (100) 
-0

>  <r_epik_Charging_Adjusted_Penalty>  (100) 
9.87704e-05

>  <i_epik_Tot_Q>  (100) 
-1

>  <i_epik_Tot_abs_Q>  (100) 
1

>  <s_lp_Force_Field>  (100) 
OPLS3e

>  <r_lp_Energy>  (100) 
3.73617

>  <b_lp_Chiralities_Consistent>  (100) 
1

>  <s_lp_Variant>  (100) 
36:0-1

>  <s_i_glide_gridfile>  (100) 
pfpi4k_grid

>  <i_i_glide_lignum>  (100) 
5

>  <i_i_glide_rotatable_bonds>  (100) 
2

>  <r_i_docking_score>  (100) 
-3.67503

>  <r_i_glide_ligand_efficiency>  (100) 
-0.229689

>  <r_i_glide_ligand_efficiency_sa>  (100) 
-0.578781

>  <r_i_glide_ligand_efficiency_ln>  (100) 
-0.974139

>  <r_i_glide_gscore>  (100) 
-3.67503

>  <r_i_glide_lipo>  (100) 
-0.341688

>  <r_i_glide_hbond>  (100) 
-0.309586

>  <r_i_glide_metal>  (100) 
-0

>  <r_i_glide_rewards>  (100) 
-1.81189

>  <r_i_glide_evdw>  (100) 
-20.2597

>  <r_i_glide_ecoul>  (100) 
-2.71284

>  <r_i_glide_erotb>  (100) 
0.312895

>  <r_i_glide_esite>  (100) 
-0.104842

>  <r_i_glide_emodel>  (100) 
-31.9639

>  <r_i_glide_energy>  (100) 
-22.9726

>  <r_i_glide_einternal>  (100) 
0.0954127

>  <r_i_glide_intrahb_reward>  (100) 
-0

>  <i_i_glide_confnum>  (100) 
1

>  <i_i_glide_posenum>  (100) 
35

>  <r_i_glide_eff_state_penalty>  (100) 
0

>  <ligand_id>  (100) 
36

>  <original_smiles>  (100) 
O=C(O)C1CCc2cc(-c3nccs3)nn21

>  <smiles>  (100) 
[H]c1nc(-c2nn3c(c2[H])C([H])([H])C([H])([H])C3([H])C(=O)[O-])sc1[H]

$$$$
36:0:1
     RDKit          3D

 24 26  0  0  1  0  0  0  0  0999 V2000
    0.9896   -5.8660    0.6325 O   0  0  0  0  0  0  0  0  0  0  0  0
    1.8204   -5.8623    1.5723 C   0  0  0  0  0  0  0  0  0  0  0  0
    1.5159   -5.9136    2.7801 O   0  0  0  0  0  0  0  0  0  0  0  0
    3.3159   -5.7458    1.1972 C   0  0  2  0  0  0  0  0  0  0  0  0
    4.2694   -5.6375    2.4397 C   0  0  0  0  0  0  0  0  0  0  0  0
    4.6655   -4.1395    2.5837 C   0  0  0  0  0  0  0  0  0  0  0  0
    4.3409   -3.5890    1.2574 C   0  0  0  0  0  0  0  0  0  0  0  0
    4.5241   -2.4927    0.4632 C   0  0  0  0  0  0  0  0  0  0  0  0
    3.8449   -2.8538   -0.7470 C   0  0  0  0  0  0  0  0  0  0  0  0
    3.7475   -2.0547   -1.9697 C   0  0  0  0  0  0  0  0  0  0  0  0
    4.2766   -0.8307   -2.0843 N   0  0  0  0  0  0  0  0  0  0  0  0
    4.0020   -0.2322   -3.3152 C   0  0  0  0  0  0  0  0  0  0  0  0
    3.3322   -1.0552   -4.1806 C   0  0  0  0  0  0  0  0  0  0  0  0
    2.9554   -2.5944   -3.4508 S   0  0  0  0  0  0  0  0  0  0  0  0
    3.2902   -4.0648   -0.6715 N   0  0  0  0  0  0  0  0  0  0  0  0
    3.6124   -4.4868    0.5635 N   0  0  0  0  0  0  0  0  0  0  0  0
    3.6002   -6.5626    0.5329 H   0  0  0  0  0  0  0  0  0  0  0  0
    3.9055   -6.0713    3.3693 H   0  0  0  0  0  0  0  0  0  0  0  0
    5.1725   -6.1867    2.1804 H   0  0  0  0  0  0  0  0  0  0  0  0
    4.0475   -3.6455    3.3347 H   0  0  0  0  0  0  0  0  0  0  0  0
    5.7192   -3.9960    2.8360 H   0  0  0  0  0  0  0  0  0  0  0  0
    5.0653   -1.5865    0.6814 H   0  0  0  0  0  0  0  0  0  0  0  0
    4.3124    0.7848   -3.4847 H   0  0  0  0  0  0  0  0  0  0  0  0
    3.0048   -0.8228   -5.1800 H   0  0  0  0  0  0  0  0  0  0  0  0
  1  2  2  0
  2  3  1  0
  2  4  1  0
  4 16  1  0
  4  5  1  0
  4 17  1  6
  5  6  1  0
  5 18  1  0
  5 19  1  0
  6  7  1  0
  6 20  1  0
  6 21  1  0
  7 16  1  0
  7  8  2  0
  8  9  1  0
  8 22  1  0
  9 10  1  0
  9 15  2  0
 10 14  1  0
 10 11  2  0
 11 12  1  0
 12 13  2  0
 12 23  1  0
 13 14  1  0
 13 24  1  0
 15 16  1  0
M  CHG  1   3  -1
M  END
>  <i_m_ct_stereo_status>  (101) 
1

>  <s_m_source_file>  (101) 
/var/tmp/pbs.5076255.sched01/tmpjtt61wjg/4457_394l_.sdf

>  <i_m_source_file_index>  (101) 
5

>  <i_lp_mmshare_version>  (101) 
48012

>  <i_f3d_flags>  (101) 
0

>  <s_epik_input>  (101) 
Tz1DKFtPSF0pW0NASF0oW0NIMl1bQ0gyXTEpbihjMTIpbmMoW2NIXTIpLWMzbltjSF1bY0hdczM=

>  <s_epik_cmdline>  (101) 
J2VwaWtfcHl0aG9uJywgJy1waHQnLCAnMi4wJywgJy1waCcsICc3LjAnLCAnLXRuJywgJzgnLCAnLW1hJywgJzIwMCcsICctaW1hZScsICc8aW5maWxlLm1hZT4nLCAnLW9tYWUnLCAnPG91dGZpbGUubWFlPic=

>  <r_lp_tautomer_probability>  (101) 
1

>  <r_epik_Ionization_Penalty>  (101) 
0.000149439

>  <r_epik_Ionization_Penalty_Charging>  (101) 
9.87704e-05

>  <r_epik_Ionization_Penalty_Neutral>  (101) 
5.06688e-05

>  <r_epik_State_Penalty>  (101) 
-0

>  <r_epik_Charging_Adjusted_Penalty>  (101) 
9.87704e-05

>  <i_epik_Tot_Q>  (101) 
-1

>  <i_epik_Tot_abs_Q>  (101) 
1

>  <s_lp_Force_Field>  (101) 
OPLS3e

>  <r_lp_Energy>  (101) 
3.73617

>  <b_lp_Chiralities_Consistent>  (101) 
1

>  <s_lp_Variant>  (101) 
36:0-1

>  <s_i_glide_gridfile>  (101) 
pfpi4k_grid

>  <i_i_glide_lignum>  (101) 
5

>  <i_i_glide_rotatable_bonds>  (101) 
2

>  <r_i_docking_score>  (101) 
-3.62234

>  <r_i_glide_ligand_efficiency>  (101) 
-0.226396

>  <r_i_glide_ligand_efficiency_sa>  (101) 
-0.570483

>  <r_i_glide_ligand_efficiency_ln>  (101) 
-0.960174

>  <r_i_glide_gscore>  (101) 
-3.62234

>  <r_i_glide_lipo>  (101) 
-0.513241

>  <r_i_glide_hbond>  (101) 
-0.2

>  <r_i_glide_metal>  (101) 
-0

>  <r_i_glide_rewards>  (101) 
-1.81189

>  <r_i_glide_evdw>  (101) 
-21.1807

>  <r_i_glide_ecoul>  (101) 
-1.98827

>  <r_i_glide_erotb>  (101) 
0.312895

>  <r_i_glide_esite>  (101) 
-0.0528253

>  <r_i_glide_emodel>  (101) 
-32.0882

>  <r_i_glide_energy>  (101) 
-23.1689

>  <r_i_glide_einternal>  (101) 
0.0233558

>  <r_i_glide_intrahb_reward>  (101) 
-0

>  <i_i_glide_confnum>  (101) 
3

>  <i_i_glide_posenum>  (101) 
36

>  <r_i_glide_eff_state_penalty>  (101) 
0

>  <ligand_id>  (101) 
36

>  <original_smiles>  (101) 
O=C(O)C1CCc2cc(-c3nccs3)nn21

>  <smiles>  (101) 
[H]c1nc(-c2nn3c(c2[H])C([H])([H])C([H])([H])C3([H])C(=O)[O-])sc1[H]

$$$$
36:0:2
     RDKit          3D

 24 26  0  0  1  0  0  0  0  0999 V2000
   -0.1854   -6.2560    2.4376 O   0  0  0  0  0  0  0  0  0  0  0  0
    0.6090   -7.1491    2.8063 C   0  0  0  0  0  0  0  0  0  0  0  0
    0.7612   -7.5354    3.9842 O   0  0  0  0  0  0  0  0  0  0  0  0
    1.4608   -7.7969    1.7097 C   0  0  2  0  0  0  0  0  0  0  0  0
    2.2493   -9.0695    2.1701 C   0  0  0  0  0  0  0  0  0  0  0  0
    3.7201   -8.6305    2.4031 C   0  0  0  0  0  0  0  0  0  0  0  0
    3.7965   -7.3544    1.6619 C   0  0  0  0  0  0  0  0  0  0  0  0
    4.6777   -6.4339    1.1777 C   0  0  0  0  0  0  0  0  0  0  0  0
    3.8276   -5.4846    0.5165 C   0  0  0  0  0  0  0  0  0  0  0  0
    4.2723   -4.2795   -0.1890 C   0  0  0  0  0  0  0  0  0  0  0  0
    5.5522   -3.8958   -0.2618 N   0  0  0  0  0  0  0  0  0  0  0  0
    5.7349   -2.7072   -0.9779 C   0  0  0  0  0  0  0  0  0  0  0  0
    4.5616   -2.1888   -1.4578 C   0  0  0  0  0  0  0  0  0  0  0  0
    3.1864   -3.1736   -1.0232 S   0  0  0  0  0  0  0  0  0  0  0  0
    2.5311   -5.8116    0.6041 N   0  0  0  0  0  0  0  0  0  0  0  0
    2.5574   -6.9520    1.3221 N   0  0  0  0  0  0  0  0  0  0  0  0
    0.8377   -7.9941    0.8431 H   0  0  0  0  0  0  0  0  0  0  0  0
    1.8241   -9.6171    3.0098 H   0  0  0  0  0  0  0  0  0  0  0  0
    2.2479   -9.7536    1.3248 H   0  0  0  0  0  0  0  0  0  0  0  0
    3.8996   -8.4447    3.4617 H   0  0  0  0  0  0  0  0  0  0  0  0
    4.4460   -9.3629    2.0414 H   0  0  0  0  0  0  0  0  0  0  0  0
    5.7538   -6.4302    1.2570 H   0  0  0  0  0  0  0  0  0  0  0  0
    6.7321   -2.3070   -1.0887 H   0  0  0  0  0  0  0  0  0  0  0  0
    4.4046   -1.2876   -2.0344 H   0  0  0  0  0  0  0  0  0  0  0  0
  1  2  2  0
  2  3  1  0
  2  4  1  0
  4 16  1  0
  4  5  1  0
  4 17  1  6
  5  6  1  0
  5 18  1  0
  5 19  1  0
  6  7  1  0
  6 20  1  0
  6 21  1  0
  7 16  1  0
  7  8  2  0
  8  9  1  0
  8 22  1  0
  9 10  1  0
  9 15  2  0
 10 14  1  0
 10 11  2  0
 11 12  1  0
 12 13  2  0
 12 23  1  0
 13 14  1  0
 13 24  1  0
 15 16  1  0
M  CHG  1   3  -1
M  END
>  <i_m_ct_stereo_status>  (102) 
1

>  <s_m_source_file>  (102) 
/var/tmp/pbs.5076255.sched01/tmpjtt61wjg/4457_394l_.sdf

>  <i_m_source_file_index>  (102) 
5

>  <i_lp_mmshare_version>  (102) 
48012

>  <i_f3d_flags>  (102) 
0

>  <s_epik_input>  (102) 
Tz1DKFtPSF0pW0NASF0oW0NIMl1bQ0gyXTEpbihjMTIpbmMoW2NIXTIpLWMzbltjSF1bY0hdczM=

>  <s_epik_cmdline>  (102) 
J2VwaWtfcHl0aG9uJywgJy1waHQnLCAnMi4wJywgJy1waCcsICc3LjAnLCAnLXRuJywgJzgnLCAnLW1hJywgJzIwMCcsICctaW1hZScsICc8aW5maWxlLm1hZT4nLCAnLW9tYWUnLCAnPG91dGZpbGUubWFlPic=

>  <r_lp_tautomer_probability>  (102) 
1

>  <r_epik_Ionization_Penalty>  (102) 
0.000149439

>  <r_epik_Ionization_Penalty_Charging>  (102) 
9.87704e-05

>  <r_epik_Ionization_Penalty_Neutral>  (102) 
5.06688e-05

>  <r_epik_State_Penalty>  (102) 
-0

>  <r_epik_Charging_Adjusted_Penalty>  (102) 
9.87704e-05

>  <i_epik_Tot_Q>  (102) 
-1

>  <i_epik_Tot_abs_Q>  (102) 
1

>  <s_lp_Force_Field>  (102) 
OPLS3e

>  <r_lp_Energy>  (102) 
3.73617

>  <b_lp_Chiralities_Consistent>  (102) 
1

>  <s_lp_Variant>  (102) 
36:0-1

>  <s_i_glide_gridfile>  (102) 
pfpi4k_grid

>  <i_i_glide_lignum>  (102) 
5

>  <i_i_glide_rotatable_bonds>  (102) 
2

>  <r_i_docking_score>  (102) 
-3.47756

>  <r_i_glide_ligand_efficiency>  (102) 
-0.217348

>  <r_i_glide_ligand_efficiency_sa>  (102) 
-0.547682

>  <r_i_glide_ligand_efficiency_ln>  (102) 
-0.921797

>  <r_i_glide_gscore>  (102) 
-3.47756

>  <r_i_glide_lipo>  (102) 
-0.229137

>  <r_i_glide_hbond>  (102) 
-0.229665

>  <r_i_glide_metal>  (102) 
-0

>  <r_i_glide_rewards>  (102) 
-1.81189

>  <r_i_glide_evdw>  (102) 
-19.4059

>  <r_i_glide_ecoul>  (102) 
-3.34206

>  <r_i_glide_erotb>  (102) 
0.312895

>  <r_i_glide_esite>  (102) 
-0.0481585

>  <r_i_glide_emodel>  (102) 
-31.2728

>  <r_i_glide_energy>  (102) 
-22.7479

>  <r_i_glide_einternal>  (102) 
0.128007

>  <r_i_glide_intrahb_reward>  (102) 
-0

>  <i_i_glide_confnum>  (102) 
3

>  <i_i_glide_posenum>  (102) 
40

>  <r_i_glide_eff_state_penalty>  (102) 
0

>  <ligand_id>  (102) 
36

>  <original_smiles>  (102) 
O=C(O)C1CCc2cc(-c3nccs3)nn21

>  <smiles>  (102) 
[H]c1nc(-c2nn3c(c2[H])C([H])([H])C([H])([H])C3([H])C(=O)[O-])sc1[H]

$$$$
37:0:0
     RDKit          3D

 43 47  0  0  1  0  0  0  0  0999 V2000
    7.8908   -3.9755    0.6373 C   0  0  0  0  0  0  0  0  0  0  0  0
    6.4073   -3.8915    0.9909 C   0  0  0  0  0  0  0  0  0  0  0  0
    5.7340   -2.7571    1.1914 C   0  0  0  0  0  0  0  0  0  0  0  0
    5.8151   -1.8647   -0.0311 C   0  0  0  0  0  0  0  0  0  0  0  0
    5.9253   -0.6563    0.0798 O   0  0  0  0  0  0  0  0  0  0  0  0
    5.6754   -2.6135   -1.4079 C   0  0  2  0  0  0  0  0  0  0  0  0
    4.8695   -1.9112   -2.5160 C   0  0  0  0  0  0  0  0  0  0  0  0
    3.8180   -3.0331   -2.5374 C   0  0  0  0  0  0  0  0  0  0  0  0
    4.6743   -3.8379   -1.5268 C   0  0  2  0  0  0  0  0  0  0  0  0
    4.2452   -4.5487   -0.1923 C   0  0  1  0  0  0  0  0  0  0  0  0
    3.6128   -3.2279   -0.0353 O   0  0  0  0  0  0  0  0  0  0  0  0
    3.1377   -3.5491    1.2023 C   0  0  2  0  0  0  0  0  0  0  0  0
    4.3482   -2.8331    1.9270 C   0  0  1  0  0  0  0  0  0  0  0  0
    4.5144   -3.3872    3.2230 O   0  0  0  0  0  0  0  0  0  0  0  0
    2.9523   -4.9704    0.5646 C   0  0  1  0  0  0  0  0  0  0  0  0
    1.8438   -5.1559   -0.2988 O   0  0  0  0  0  0  0  0  0  0  0  0
    2.9713   -6.1332    1.5767 C   0  0  1  0  0  0  0  0  0  0  0  0
    1.6642   -6.9329    1.7409 C   0  0  0  0  0  0  0  0  0  0  0  0
    4.1776   -7.0344    1.3611 C   0  0  0  0  0  0  0  0  0  0  0  0
    5.4413   -6.1889    1.5390 C   0  0  0  0  0  0  0  0  0  0  0  0
    5.5587   -5.0470    0.5154 C   0  0  2  0  0  0  0  0  0  0  0  0
    8.3905   -4.5740    1.4001 H   0  0  0  0  0  0  0  0  0  0  0  0
    8.3497   -2.9874    0.6646 H   0  0  0  0  0  0  0  0  0  0  0  0
    8.0898   -4.4240   -0.3360 H   0  0  0  0  0  0  0  0  0  0  0  0
    6.6486   -2.8998   -1.8090 H   0  0  0  0  0  0  0  0  0  0  0  0
    4.4440   -0.9422   -2.2522 H   0  0  0  0  0  0  0  0  0  0  0  0
    5.4112   -1.8882   -3.4602 H   0  0  0  0  0  0  0  0  0  0  0  0
    2.8293   -2.7162   -2.1911 H   0  0  0  0  0  0  0  0  0  0  0  0
    3.7471   -3.5312   -3.5083 H   0  0  0  0  0  0  0  0  0  0  0  0
    5.1652   -4.5937   -2.1339 H   0  0  0  0  0  0  0  0  0  0  0  0
    2.1763   -3.0992    1.4094 H   0  0  0  0  0  0  0  0  0  0  0  0
    4.0861   -1.7886    2.1035 H   0  0  0  0  0  0  0  0  0  0  0  0
    3.7946   -3.1239    3.7656 H   0  0  0  0  0  0  0  0  0  0  0  0
    2.2143   -5.2661   -1.1646 H   0  0  0  0  0  0  0  0  0  0  0  0
    3.1180   -5.6879    2.5587 H   0  0  0  0  0  0  0  0  0  0  0  0
    1.4255   -7.5245    0.8582 H   0  0  0  0  0  0  0  0  0  0  0  0
    0.8207   -6.2810    1.9749 H   0  0  0  0  0  0  0  0  0  0  0  0
    1.7740   -7.6286    2.5723 H   0  0  0  0  0  0  0  0  0  0  0  0
    4.1703   -7.8517    2.0857 H   0  0  0  0  0  0  0  0  0  0  0  0
    4.1536   -7.4774    0.3647 H   0  0  0  0  0  0  0  0  0  0  0  0
    5.4692   -5.7980    2.5557 H   0  0  0  0  0  0  0  0  0  0  0  0
    6.3074   -6.8404    1.4343 H   0  0  0  0  0  0  0  0  0  0  0  0
    6.1474   -5.4980   -0.2795 H   0  0  0  0  0  0  0  0  0  0  0  0
  1  2  1  0
  1 22  1  0
  1 23  1  0
  1 24  1  0
  2 21  1  0
  2  3  2  0
  3 13  1  0
  3  4  1  0
  4  5  2  0
  4  6  1  0
  6  9  1  0
  6  7  1  0
  6 25  1  6
  7  8  1  0
  7 26  1  0
  7 27  1  0
  8  9  1  0
  8 28  1  0
  8 29  1  0
  9 10  1  0
  9 30  1  6
 10 15  1  0
 10 21  1  0
 10 11  1  1
 11 12  1  0
 12 13  1  0
 12 15  1  0
 12 31  1  1
 13 14  1  0
 13 32  1  1
 14 33  1  0
 15 16  1  6
 15 17  1  0
 16 34  1  0
 17 18  1  0
 17 19  1  0
 17 35  1  1
 18 36  1  0
 18 37  1  0
 18 38  1  0
 19 20  1  0
 19 39  1  0
 19 40  1  0
 20 21  1  0
 20 41  1  0
 20 42  1  0
 21 43  1  6
M  END
>  <i_m_ct_stereo_status>  (103) 
1

>  <s_m_source_file>  (103) 
/var/tmp/pbs.5076255.sched01/tmpjtt61wjg/4457_394l_.sdf

>  <i_m_source_file_index>  (103) 
6

>  <i_lp_mmshare_version>  (103) 
48012

>  <i_f3d_flags>  (103) 
0

>  <s_epik_input>  (103) 
W0NIMl0xW0NIMl1bQ0BIXShbQ0BIXTFbQ0BAXTIzNClDKD1PKUM1PUMoW0NIM10pW0NASF00W0NIMl1bQ0gyXVtDQEhdKFtDSDNdKVtDQEBdMyhbT0hdKVtDQEhdKE8yKVtDQEhdNVtPSF0=

>  <s_epik_cmdline>  (103) 
J2VwaWtfcHl0aG9uJywgJy1waHQnLCAnMi4wJywgJy1waCcsICc3LjAnLCAnLXRuJywgJzgnLCAnLW1hJywgJzIwMCcsICctaW1hZScsICc8aW5maWxlLm1hZT4nLCAnLW9tYWUnLCAnPG91dGZpbGUubWFlPic=

>  <r_lp_tautomer_probability>  (103) 
1

>  <r_epik_Ionization_Penalty>  (103) 
9.32807e-07

>  <r_epik_Ionization_Penalty_Charging>  (103) 
0

>  <r_epik_Ionization_Penalty_Neutral>  (103) 
9.32807e-07

>  <r_epik_State_Penalty>  (103) 
-0

>  <r_epik_Charging_Adjusted_Penalty>  (103) 
0

>  <i_epik_Tot_Q>  (103) 
0

>  <i_epik_Tot_abs_Q>  (103) 
0

>  <s_lp_Force_Field>  (103) 
OPLS3e

>  <r_lp_Energy>  (103) 
178.934

>  <b_lp_Chiralities_Consistent>  (103) 
1

>  <s_lp_Variant>  (103) 
37:0-1

>  <s_i_glide_gridfile>  (103) 
pfpi4k_grid

>  <i_i_glide_lignum>  (103) 
6

>  <i_i_glide_rotatable_bonds>  (103) 
2

>  <r_i_docking_score>  (103) 
-3.97266

>  <r_i_glide_ligand_efficiency>  (103) 
-0.189174

>  <r_i_glide_ligand_efficiency_sa>  (103) 
-0.521918

>  <r_i_glide_ligand_efficiency_ln>  (103) 
-0.982233

>  <r_i_glide_gscore>  (103) 
-3.97266

>  <r_i_glide_lipo>  (103) 
-0.63341

>  <r_i_glide_hbond>  (103) 
0

>  <r_i_glide_metal>  (103) 
-0

>  <r_i_glide_rewards>  (103) 
-1.4294

>  <r_i_glide_evdw>  (103) 
-24.74

>  <r_i_glide_ecoul>  (103) 
-4.45958

>  <r_i_glide_erotb>  (103) 
0

>  <r_i_glide_esite>  (103) 
-0.00391301

>  <r_i_glide_emodel>  (103) 
-35.2655

>  <r_i_glide_energy>  (103) 
-29.1996

>  <r_i_glide_einternal>  (103) 
1.49626

>  <r_i_glide_intrahb_reward>  (103) 
-0

>  <i_i_glide_confnum>  (103) 
2

>  <i_i_glide_posenum>  (103) 
1

>  <r_i_glide_eff_state_penalty>  (103) 
0

>  <ligand_id>  (103) 
37

>  <original_smiles>  (103) 
CC1=C2C(=O)C3CCC3C34OC(C2O)C3(O)C(C)CCC14

>  <smiles>  (103) 
[H]OC1([H])C2=C(C([H])([H])[H])C3([H])C([H])([H])C([H])([H])C([H])(C([H])([H])[H])C4(O[H])C1([H])OC34C1([H])C([H])([H])C([H])([H])C1([H])C2=O

$$$$
37:0:1
     RDKit          3D

 43 47  0  0  1  0  0  0  0  0999 V2000
    3.4278    3.2893    6.4842 C   0  0  0  0  0  0  0  0  0  0  0  0
    2.5888    2.9384    5.2565 C   0  0  0  0  0  0  0  0  0  0  0  0
    3.0621    2.3084    4.1681 C   0  0  0  0  0  0  0  0  0  0  0  0
    3.6600    0.9636    4.5263 C   0  0  0  0  0  0  0  0  0  0  0  0
    4.6586    0.5271    3.9515 O   0  0  0  0  0  0  0  0  0  0  0  0
    2.8431    0.1481    5.5980 C   0  0  2  0  0  0  0  0  0  0  0  0
    2.7460   -1.3778    5.4050 C   0  0  0  0  0  0  0  0  0  0  0  0
    1.2164   -1.3063    5.2397 C   0  0  0  0  0  0  0  0  0  0  0  0
    1.2551    0.2058    5.5751 C   0  0  2  0  0  0  0  0  0  0  0  0
    0.5863    1.4176    4.8211 C   0  0  1  0  0  0  0  0  0  0  0  0
    1.2175    0.6969    3.6979 O   0  0  0  0  0  0  0  0  0  0  0  0
    0.8074    1.6506    2.8010 C   0  0  2  0  0  0  0  0  0  0  0  0
    2.2063    2.3972    2.8465 C   0  0  1  0  0  0  0  0  0  0  0  0
    2.0141    3.7583    2.4903 O   0  0  0  0  0  0  0  0  0  0  0  0
   -0.4516    1.7023    3.7218 C   0  0  1  0  0  0  0  0  0  0  0  0
   -1.3893    0.6517    3.5614 O   0  0  0  0  0  0  0  0  0  0  0  0
   -1.2287    3.0352    3.6656 C   0  0  1  0  0  0  0  0  0  0  0  0
   -2.6496    2.9998    3.0827 C   0  0  0  0  0  0  0  0  0  0  0  0
   -1.1867    3.7416    5.0095 C   0  0  0  0  0  0  0  0  0  0  0  0
    0.2762    4.0149    5.3577 C   0  0  0  0  0  0  0  0  0  0  0  0
    1.1168    2.7303    5.5077 C   0  0  2  0  0  0  0  0  0  0  0  0
    3.3753    4.3663    6.6451 H   0  0  0  0  0  0  0  0  0  0  0  0
    4.4743    3.0502    6.3167 H   0  0  0  0  0  0  0  0  0  0  0  0
    3.0958    2.7944    7.3953 H   0  0  0  0  0  0  0  0  0  0  0  0
    3.1992    0.3511    6.6129 H   0  0  0  0  0  0  0  0  0  0  0  0
    3.2388   -1.7580    4.5105 H   0  0  0  0  0  0  0  0  0  0  0  0
    3.0405   -1.9297    6.2989 H   0  0  0  0  0  0  0  0  0  0  0  0
    0.8704   -1.5587    4.2347 H   0  0  0  0  0  0  0  0  0  0  0  0
    0.6803   -1.8966    5.9870 H   0  0  0  0  0  0  0  0  0  0  0  0
    0.9241    0.2645    6.6074 H   0  0  0  0  0  0  0  0  0  0  0  0
    0.5737    1.2335    1.8268 H   0  0  0  0  0  0  0  0  0  0  0  0
    2.8569    1.9739    2.0774 H   0  0  0  0  0  0  0  0  0  0  0  0
    1.3393    3.8445    1.8205 H   0  0  0  0  0  0  0  0  0  0  0  0
   -2.0192    0.9350    2.9254 H   0  0  0  0  0  0  0  0  0  0  0  0
   -0.6893    3.6854    2.9762 H   0  0  0  0  0  0  0  0  0  0  0  0
   -3.3507    2.4640    3.7246 H   0  0  0  0  0  0  0  0  0  0  0  0
   -2.6701    2.5574    2.0840 H   0  0  0  0  0  0  0  0  0  0  0  0
   -3.0208    4.0179    2.9781 H   0  0  0  0  0  0  0  0  0  0  0  0
   -1.7351    4.6819    4.9514 H   0  0  0  0  0  0  0  0  0  0  0  0
   -1.6574    3.1305    5.7793 H   0  0  0  0  0  0  0  0  0  0  0  0
    0.7107    4.6682    4.5958 H   0  0  0  0  0  0  0  0  0  0  0  0
    0.3150    4.5746    6.2967 H   0  0  0  0  0  0  0  0  0  0  0  0
    1.0537    2.5389    6.5761 H   0  0  0  0  0  0  0  0  0  0  0  0
  1  2  1  0
  1 22  1  0
  1 23  1  0
  1 24  1  0
  2 21  1  0
  2  3  2  0
  3 13  1  0
  3  4  1  0
  4  5  2  0
  4  6  1  0
  6  9  1  0
  6  7  1  0
  6 25  1  1
  7  8  1  0
  7 26  1  0
  7 27  1  0
  8  9  1  0
  8 28  1  0
  8 29  1  0
  9 10  1  0
  9 30  1  1
 10 15  1  0
 10 21  1  0
 10 11  1  6
 11 12  1  0
 12 13  1  0
 12 15  1  0
 12 31  1  6
 13 14  1  0
 13 32  1  6
 14 33  1  0
 15 16  1  6
 15 17  1  0
 16 34  1  0
 17 18  1  0
 17 19  1  0
 17 35  1  6
 18 36  1  0
 18 37  1  0
 18 38  1  0
 19 20  1  0
 19 39  1  0
 19 40  1  0
 20 21  1  0
 20 41  1  0
 20 42  1  0
 21 43  1  1
M  END
>  <i_m_ct_stereo_status>  (104) 
1

>  <s_m_source_file>  (104) 
/var/tmp/pbs.5076255.sched01/tmpjtt61wjg/4457_394l_.sdf

>  <i_m_source_file_index>  (104) 
6

>  <i_lp_mmshare_version>  (104) 
48012

>  <i_f3d_flags>  (104) 
0

>  <s_epik_input>  (104) 
W0NIMl0xW0NIMl1bQ0BIXShbQ0BIXTFbQ0BAXTIzNClDKD1PKUM1PUMoW0NIM10pW0NASF00W0NIMl1bQ0gyXVtDQEhdKFtDSDNdKVtDQEBdMyhbT0hdKVtDQEhdKE8yKVtDQEhdNVtPSF0=

>  <s_epik_cmdline>  (104) 
J2VwaWtfcHl0aG9uJywgJy1waHQnLCAnMi4wJywgJy1waCcsICc3LjAnLCAnLXRuJywgJzgnLCAnLW1hJywgJzIwMCcsICctaW1hZScsICc8aW5maWxlLm1hZT4nLCAnLW9tYWUnLCAnPG91dGZpbGUubWFlPic=

>  <r_lp_tautomer_probability>  (104) 
1

>  <r_epik_Ionization_Penalty>  (104) 
9.32807e-07

>  <r_epik_Ionization_Penalty_Charging>  (104) 
0

>  <r_epik_Ionization_Penalty_Neutral>  (104) 
9.32807e-07

>  <r_epik_State_Penalty>  (104) 
-0

>  <r_epik_Charging_Adjusted_Penalty>  (104) 
0

>  <i_epik_Tot_Q>  (104) 
0

>  <i_epik_Tot_abs_Q>  (104) 
0

>  <s_lp_Force_Field>  (104) 
OPLS3e

>  <r_lp_Energy>  (104) 
178.934

>  <b_lp_Chiralities_Consistent>  (104) 
1

>  <s_lp_Variant>  (104) 
37:0-1

>  <s_i_glide_gridfile>  (104) 
pfpi4k_grid

>  <i_i_glide_lignum>  (104) 
6

>  <i_i_glide_rotatable_bonds>  (104) 
2

>  <r_i_docking_score>  (104) 
-3.03435

>  <r_i_glide_ligand_efficiency>  (104) 
-0.144493

>  <r_i_glide_ligand_efficiency_sa>  (104) 
-0.398644

>  <r_i_glide_ligand_efficiency_ln>  (104) 
-0.750236

>  <r_i_glide_gscore>  (104) 
-3.03435

>  <r_i_glide_lipo>  (104) 
0

>  <r_i_glide_hbond>  (104) 
0

>  <r_i_glide_metal>  (104) 
-0

>  <r_i_glide_rewards>  (104) 
-1.4294

>  <r_i_glide_evdw>  (104) 
-17.3823

>  <r_i_glide_ecoul>  (104) 
-4.89341

>  <r_i_glide_erotb>  (104) 
0

>  <r_i_glide_esite>  (104) 
-0.00181606

>  <r_i_glide_emodel>  (104) 
-26.3798

>  <r_i_glide_energy>  (104) 
-22.2757

>  <r_i_glide_einternal>  (104) 
1.65438

>  <r_i_glide_intrahb_reward>  (104) 
-0

>  <i_i_glide_confnum>  (104) 
2

>  <i_i_glide_posenum>  (104) 
6

>  <r_i_glide_eff_state_penalty>  (104) 
0

>  <ligand_id>  (104) 
37

>  <original_smiles>  (104) 
CC1=C2C(=O)C3CCC3C34OC(C2O)C3(O)C(C)CCC14

>  <smiles>  (104) 
[H]OC1([H])C2=C(C([H])([H])[H])C3([H])C([H])([H])C([H])([H])C([H])(C([H])([H])[H])C4(O[H])C1([H])OC34C1([H])C([H])([H])C([H])([H])C1([H])C2=O

$$$$
37:0:2
     RDKit          3D

 43 47  0  0  1  0  0  0  0  0999 V2000
    7.2331   -2.8917   -1.5189 C   0  0  0  0  0  0  0  0  0  0  0  0
    6.2056   -2.4271   -0.4906 C   0  0  0  0  0  0  0  0  0  0  0  0
    5.4258   -1.3517   -0.6276 C   0  0  0  0  0  0  0  0  0  0  0  0
    4.5881   -1.4300   -1.8829 C   0  0  0  0  0  0  0  0  0  0  0  0
    4.3871   -0.4445   -2.5958 O   0  0  0  0  0  0  0  0  0  0  0  0
    3.9813   -2.8510   -2.1592 C   0  0  2  0  0  0  0  0  0  0  0  0
    2.5565   -2.9004   -2.7318 C   0  0  0  0  0  0  0  0  0  0  0  0
    2.0439   -3.6382   -1.4847 C   0  0  0  0  0  0  0  0  0  0  0  0
    3.4822   -3.7280   -0.9320 C   0  0  2  0  0  0  0  0  0  0  0  0
    4.0536   -3.4060    0.4924 C   0  0  1  0  0  0  0  0  0  0  0  0
    3.2451   -2.2077    0.2094 O   0  0  0  0  0  0  0  0  0  0  0  0
    3.6286   -1.6124    1.3855 C   0  0  2  0  0  0  0  0  0  0  0  0
    4.7471   -0.7643    0.6686 C   0  0  1  0  0  0  0  0  0  0  0  0
    5.7408   -0.4476    1.6192 O   0  0  0  0  0  0  0  0  0  0  0  0
    3.5606   -3.0759    1.9260 C   0  0  1  0  0  0  0  0  0  0  0  0
    2.2640   -3.5320    2.2452 O   0  0  0  0  0  0  0  0  0  0  0  0
    4.4590   -3.3629    3.1422 C   0  0  1  0  0  0  0  0  0  0  0  0
    3.7450   -3.7230    4.4573 C   0  0  0  0  0  0  0  0  0  0  0  0
    5.5483   -4.3666    2.7951 C   0  0  0  0  0  0  0  0  0  0  0  0
    6.3945   -3.7688    1.6727 C   0  0  0  0  0  0  0  0  0  0  0  0
    5.6158   -3.5192    0.3731 C   0  0  2  0  0  0  0  0  0  0  0  0
    8.2128   -2.9676   -1.0494 H   0  0  0  0  0  0  0  0  0  0  0  0
    7.3260   -2.1643   -2.3120 H   0  0  0  0  0  0  0  0  0  0  0  0
    6.9727   -3.8188   -1.9783 H   0  0  0  0  0  0  0  0  0  0  0  0
    4.6283   -3.4534   -2.8061 H   0  0  0  0  0  0  0  0  0  0  0  0
    2.0775   -1.9279   -2.8471 H   0  0  0  0  0  0  0  0  0  0  0  0
    2.4689   -3.5124   -3.6336 H   0  0  0  0  0  0  0  0  0  0  0  0
    1.3662   -3.0667   -0.8759 H   0  0  0  0  0  0  0  0  0  0  0  0
    1.5787   -4.5977   -1.6984 H   0  0  0  0  0  0  0  0  0  0  0  0
    3.8023   -4.7424   -1.1195 H   0  0  0  0  0  0  0  0  0  0  0  0
    2.8385   -1.0140    1.8162 H   0  0  0  0  0  0  0  0  0  0  0  0
    4.3249    0.1899    0.3509 H   0  0  0  0  0  0  0  0  0  0  0  0
    5.4173   -0.6555    2.4835 H   0  0  0  0  0  0  0  0  0  0  0  0
    1.7096   -3.0873    1.6202 H   0  0  0  0  0  0  0  0  0  0  0  0
    4.9721   -2.4351    3.3789 H   0  0  0  0  0  0  0  0  0  0  0  0
    3.2562   -4.6989    4.4014 H   0  0  0  0  0  0  0  0  0  0  0  0
    3.0022   -2.9657    4.7293 H   0  0  0  0  0  0  0  0  0  0  0  0
    4.4766   -3.7617    5.2624 H   0  0  0  0  0  0  0  0  0  0  0  0
    6.1737   -4.5536    3.6720 H   0  0  0  0  0  0  0  0  0  0  0  0
    5.1222   -5.3199    2.4874 H   0  0  0  0  0  0  0  0  0  0  0  0
    6.8274   -2.8292    2.0079 H   0  0  0  0  0  0  0  0  0  0  0  0
    7.2301   -4.4392    1.4636 H   0  0  0  0  0  0  0  0  0  0  0  0
    5.8053   -4.4309   -0.1862 H   0  0  0  0  0  0  0  0  0  0  0  0
  1  2  1  0
  1 22  1  0
  1 23  1  0
  1 24  1  0
  2 21  1  0
  2  3  2  0
  3 13  1  0
  3  4  1  0
  4  5  2  0
  4  6  1  0
  6  9  1  0
  6  7  1  0
  6 25  1  6
  7  8  1  0
  7 26  1  0
  7 27  1  0
  8  9  1  0
  8 28  1  0
  8 29  1  0
  9 10  1  0
  9 30  1  6
 10 15  1  0
 10 21  1  0
 10 11  1  6
 11 12  1  0
 12 13  1  0
 12 15  1  0
 12 31  1  1
 13 14  1  0
 13 32  1  6
 14 33  1  0
 15 16  1  1
 15 17  1  0
 16 34  1  0
 17 18  1  0
 17 19  1  0
 17 35  1  1
 18 36  1  0
 18 37  1  0
 18 38  1  0
 19 20  1  0
 19 39  1  0
 19 40  1  0
 20 21  1  0
 20 41  1  0
 20 42  1  0
 21 43  1  6
M  END
>  <i_m_ct_stereo_status>  (105) 
1

>  <s_m_source_file>  (105) 
/var/tmp/pbs.5076255.sched01/tmpjtt61wjg/4457_394l_.sdf

>  <i_m_source_file_index>  (105) 
6

>  <i_lp_mmshare_version>  (105) 
48012

>  <i_f3d_flags>  (105) 
0

>  <s_epik_input>  (105) 
W0NIMl0xW0NIMl1bQ0BIXShbQ0BIXTFbQ0BAXTIzNClDKD1PKUM1PUMoW0NIM10pW0NASF00W0NIMl1bQ0gyXVtDQEhdKFtDSDNdKVtDQEBdMyhbT0hdKVtDQEhdKE8yKVtDQEhdNVtPSF0=

>  <s_epik_cmdline>  (105) 
J2VwaWtfcHl0aG9uJywgJy1waHQnLCAnMi4wJywgJy1waCcsICc3LjAnLCAnLXRuJywgJzgnLCAnLW1hJywgJzIwMCcsICctaW1hZScsICc8aW5maWxlLm1hZT4nLCAnLW9tYWUnLCAnPG91dGZpbGUubWFlPic=

>  <r_lp_tautomer_probability>  (105) 
1

>  <r_epik_Ionization_Penalty>  (105) 
9.32807e-07

>  <r_epik_Ionization_Penalty_Charging>  (105) 
0

>  <r_epik_Ionization_Penalty_Neutral>  (105) 
9.32807e-07

>  <r_epik_State_Penalty>  (105) 
-0

>  <r_epik_Charging_Adjusted_Penalty>  (105) 
0

>  <i_epik_Tot_Q>  (105) 
0

>  <i_epik_Tot_abs_Q>  (105) 
0

>  <s_lp_Force_Field>  (105) 
OPLS3e

>  <r_lp_Energy>  (105) 
178.934

>  <b_lp_Chiralities_Consistent>  (105) 
1

>  <s_lp_Variant>  (105) 
37:0-1

>  <s_i_glide_gridfile>  (105) 
pfpi4k_grid

>  <i_i_glide_lignum>  (105) 
6

>  <i_i_glide_rotatable_bonds>  (105) 
2

>  <r_i_docking_score>  (105) 
-2.90375

>  <r_i_glide_ligand_efficiency>  (105) 
-0.138274

>  <r_i_glide_ligand_efficiency_sa>  (105) 
-0.381486

>  <r_i_glide_ligand_efficiency_ln>  (105) 
-0.717945

>  <r_i_glide_gscore>  (105) 
-2.90375

>  <r_i_glide_lipo>  (105) 
-0.285498

>  <r_i_glide_hbond>  (105) 
0

>  <r_i_glide_metal>  (105) 
-0

>  <r_i_glide_rewards>  (105) 
-1.4294

>  <r_i_glide_evdw>  (105) 
-21.4161

>  <r_i_glide_ecoul>  (105) 
-0.496981

>  <r_i_glide_erotb>  (105) 
0

>  <r_i_glide_esite>  (105) 
-0.0434896

>  <r_i_glide_emodel>  (105) 
-25.7609

>  <r_i_glide_energy>  (105) 
-21.9131

>  <r_i_glide_einternal>  (105) 
1.40666

>  <r_i_glide_intrahb_reward>  (105) 
-0

>  <i_i_glide_confnum>  (105) 
2

>  <i_i_glide_posenum>  (105) 
8

>  <r_i_glide_eff_state_penalty>  (105) 
0

>  <ligand_id>  (105) 
37

>  <original_smiles>  (105) 
CC1=C2C(=O)C3CCC3C34OC(C2O)C3(O)C(C)CCC14

>  <smiles>  (105) 
[H]OC1([H])C2=C(C([H])([H])[H])C3([H])C([H])([H])C([H])([H])C([H])(C([H])([H])[H])C4(O[H])C1([H])OC34C1([H])C([H])([H])C([H])([H])C1([H])C2=O

$$$$
39:0:0
     RDKit          3D

 53 56  0  0  1  0  0  0  0  0999 V2000
    7.3973   -2.4888    0.2111 C   0  0  0  0  0  0  0  0  0  0  0  0
    6.1546   -3.1760    0.8129 C   0  0  0  0  0  0  0  0  0  0  0  0
    5.6305   -4.2822   -0.1155 C   0  0  0  0  0  0  0  0  0  0  0  0
    5.0440   -2.1981    1.1935 C   0  0  0  0  0  0  0  0  0  0  0  0
    4.9686   -0.9065    0.6324 C   0  0  0  0  0  0  0  0  0  0  0  0
    3.9552   -0.0224    1.0207 C   0  0  0  0  0  0  0  0  0  0  0  0
    2.9813   -0.3862    1.9672 C   0  0  0  0  0  0  0  0  0  0  0  0
    3.0206   -1.6953    2.5078 C   0  0  0  0  0  0  0  0  0  0  0  0
    4.0529   -2.5818    2.1283 C   0  0  0  0  0  0  0  0  0  0  0  0
    1.9425   -2.1825    3.4612 C   0  0  0  0  0  0  0  0  0  0  0  0
    1.2040   -1.0364    4.1564 C   0  0  0  0  0  0  0  0  0  0  0  0
    0.7321    0.0076    3.1281 C   0  0  2  0  0  0  0  0  0  0  0  0
    1.9128    0.6394    2.3553 C   0  0  1  0  0  0  0  0  0  0  0  0
    2.5333    1.8297    3.1184 C   0  0  0  0  0  0  0  0  0  0  0  0
    1.4848    2.8637    3.5762 C   0  0  0  0  0  0  0  0  0  0  0  0
    0.3522    2.2536    4.4434 C   0  0  1  0  0  0  0  0  0  0  0  0
    0.9117    1.8205    5.8225 C   0  0  0  0  0  0  0  0  0  0  0  0
   -0.7105    3.3372    4.7863 C   0  0  0  0  0  0  0  0  0  0  0  0
   -1.5938    3.7268    3.6083 C   0  0  0  0  0  0  0  0  0  0  0  0
   -1.7871    4.8968    3.2811 O   0  0  0  0  0  0  0  0  0  0  0  0
   -2.2597    2.5622    2.9016 C   0  0  0  0  0  0  0  0  0  0  0  0
   -1.1929    1.5389    2.4848 C   0  0  0  0  0  0  0  0  0  0  0  0
   -0.2954    1.0523    3.6617 C   0  0  1  0  0  0  0  0  0  0  0  0
    7.7633   -1.7004    0.8686 H   0  0  0  0  0  0  0  0  0  0  0  0
    7.1747   -2.0478   -0.7582 H   0  0  0  0  0  0  0  0  0  0  0  0
    8.2151   -3.1904    0.0557 H   0  0  0  0  0  0  0  0  0  0  0  0
    6.4743   -3.6474    1.7434 H   0  0  0  0  0  0  0  0  0  0  0  0
    4.7865   -4.8073    0.3302 H   0  0  0  0  0  0  0  0  0  0  0  0
    6.4020   -5.0239   -0.3155 H   0  0  0  0  0  0  0  0  0  0  0  0
    5.3000   -3.8764   -1.0707 H   0  0  0  0  0  0  0  0  0  0  0  0
    5.6765   -0.5542   -0.0997 H   0  0  0  0  0  0  0  0  0  0  0  0
    3.9360    0.9523    0.5699 H   0  0  0  0  0  0  0  0  0  0  0  0
    4.0816   -3.5754    2.5469 H   0  0  0  0  0  0  0  0  0  0  0  0
    1.2327   -2.7691    2.8755 H   0  0  0  0  0  0  0  0  0  0  0  0
    2.3804   -2.8516    4.2025 H   0  0  0  0  0  0  0  0  0  0  0  0
    0.3634   -1.4278    4.7287 H   0  0  0  0  0  0  0  0  0  0  0  0
    1.8944   -0.5926    4.8685 H   0  0  0  0  0  0  0  0  0  0  0  0
    0.2016   -0.5853    2.3848 H   0  0  0  0  0  0  0  0  0  0  0  0
    1.5151    1.0313    1.4170 H   0  0  0  0  0  0  0  0  0  0  0  0
    3.1063    1.4660    3.9698 H   0  0  0  0  0  0  0  0  0  0  0  0
    3.2487    2.3399    2.4750 H   0  0  0  0  0  0  0  0  0  0  0  0
    1.9760    3.6726    4.1197 H   0  0  0  0  0  0  0  0  0  0  0  0
    1.0594    3.3294    2.6855 H   0  0  0  0  0  0  0  0  0  0  0  0
    0.2224    1.1501    6.3388 H   0  0  0  0  0  0  0  0  0  0  0  0
    1.0680    2.6845    6.4716 H   0  0  0  0  0  0  0  0  0  0  0  0
    1.8755    1.3220    5.7629 H   0  0  0  0  0  0  0  0  0  0  0  0
   -1.3718    2.9605    5.5661 H   0  0  0  0  0  0  0  0  0  0  0  0
   -0.2315    4.2297    5.1884 H   0  0  0  0  0  0  0  0  0  0  0  0
   -2.9741    2.1171    3.5931 H   0  0  0  0  0  0  0  0  0  0  0  0
   -2.8271    2.9220    2.0445 H   0  0  0  0  0  0  0  0  0  0  0  0
   -1.6953    0.6910    2.0196 H   0  0  0  0  0  0  0  0  0  0  0  0
   -0.5820    1.9816    1.6960 H   0  0  0  0  0  0  0  0  0  0  0  0
   -0.9701    0.5341    4.3451 H   0  0  0  0  0  0  0  0  0  0  0  0
  1  2  1  0
  1 24  1  0
  1 25  1  0
  1 26  1  0
  2  3  1  0
  2  4  1  0
  2 27  1  0
  3 28  1  0
  3 29  1  0
  3 30  1  0
  4  9  2  0
  4  5  1  0
  5  6  2  0
  5 31  1  0
  6  7  1  0
  6 32  1  0
  7 13  1  0
  7  8  2  0
  8  9  1  0
  8 10  1  0
  9 33  1  0
 10 11  1  0
 10 34  1  0
 10 35  1  0
 11 12  1  0
 11 36  1  0
 11 37  1  0
 12 23  1  0
 12 13  1  0
 12 38  1  6
 13 14  1  0
 13 39  1  6
 14 15  1  0
 14 40  1  0
 14 41  1  0
 15 16  1  0
 15 42  1  0
 15 43  1  0
 16 23  1  0
 16 17  1  1
 16 18  1  0
 17 44  1  0
 17 45  1  0
 17 46  1  0
 18 19  1  0
 18 47  1  0
 18 48  1  0
 19 20  2  0
 19 21  1  0
 21 22  1  0
 21 49  1  0
 21 50  1  0
 22 23  1  0
 22 51  1  0
 22 52  1  0
 23 53  1  1
M  END
>  <i_m_ct_stereo_status>  (106) 
1

>  <s_m_source_file>  (106) 
/var/tmp/pbs.5076255.sched01/tmpjtt61wjg/4457_394l_.sdf

>  <i_m_source_file_index>  (106) 
8

>  <i_lp_mmshare_version>  (106) 
48012

>  <i_f3d_flags>  (106) 
0

>  <s_epik_input>  (106) 
W0NIM11bQ0hdKFtDSDNdKWMoW2NIXVtjSF0xKVtjSF1jKFtDSDJdW0NIMl0yKWMxW0NASF0oW0NIMl1bQ0gyXTMpW0NAQEhdMltDQEBIXShbQ0BAXTM0W0NIM10pW0NIMl1bQ0gyXUMoPU8pW0NIMl00

>  <s_epik_cmdline>  (106) 
J2VwaWtfcHl0aG9uJywgJy1waHQnLCAnMi4wJywgJy1waCcsICc3LjAnLCAnLXRuJywgJzgnLCAnLW1hJywgJzIwMCcsICctaW1hZScsICc8aW5maWxlLm1hZT4nLCAnLW9tYWUnLCAnPG91dGZpbGUubWFlPic=

>  <r_lp_tautomer_probability>  (106) 
1

>  <r_epik_Ionization_Penalty>  (106) 
1.05904e-13

>  <r_epik_Ionization_Penalty_Charging>  (106) 
0

>  <r_epik_Ionization_Penalty_Neutral>  (106) 
1.05904e-13

>  <r_epik_State_Penalty>  (106) 
-0

>  <r_epik_Charging_Adjusted_Penalty>  (106) 
0

>  <i_epik_Tot_Q>  (106) 
0

>  <i_epik_Tot_abs_Q>  (106) 
0

>  <s_lp_Force_Field>  (106) 
OPLS3e

>  <r_lp_Energy>  (106) 
36.2796

>  <b_lp_Chiralities_Consistent>  (106) 
1

>  <s_lp_Variant>  (106) 
39:0-1

>  <s_i_glide_gridfile>  (106) 
pfpi4k_grid

>  <i_i_glide_lignum>  (106) 
8

>  <i_i_glide_rotatable_bonds>  (106) 
1

>  <r_i_docking_score>  (106) 
-3.60759

>  <r_i_glide_ligand_efficiency>  (106) 
-0.156852

>  <r_i_glide_ligand_efficiency_sa>  (106) 
-0.446065

>  <r_i_glide_ligand_efficiency_ln>  (106) 
-0.872347

>  <r_i_glide_gscore>  (106) 
-3.60759

>  <r_i_glide_lipo>  (106) 
-0.459998

>  <r_i_glide_hbond>  (106) 
-0.16

>  <r_i_glide_metal>  (106) 
-0

>  <r_i_glide_rewards>  (106) 
-1.29223

>  <r_i_glide_evdw>  (106) 
-20.566

>  <r_i_glide_ecoul>  (106) 
-3.92402

>  <r_i_glide_erotb>  (106) 
0

>  <r_i_glide_esite>  (106) 
-0.0784582

>  <r_i_glide_emodel>  (106) 
-29.3761

>  <r_i_glide_energy>  (106) 
-24.49

>  <r_i_glide_einternal>  (106) 
1.12694

>  <r_i_glide_intrahb_reward>  (106) 
-0

>  <i_i_glide_confnum>  (106) 
1

>  <i_i_glide_posenum>  (106) 
22

>  <r_i_glide_eff_state_penalty>  (106) 
0

>  <ligand_id>  (106) 
39

>  <original_smiles>  (106) 
CC(C)c1ccc2c(c1)CCC1C2CCC2(C)CC(=O)CCC12

>  <smiles>  (106) 
[H]c1c([H])c2c(c([H])c1C([H])(C([H])([H])[H])C([H])([H])[H])C([H])([H])C([H])([H])C1([H])C2([H])C([H])([H])C([H])([H])C2(C([H])([H])[H])C([H])([H])C(=O)C([H])([H])C([H])([H])C12[H]

$$$$
39:0:1
     RDKit          3D

 53 56  0  0  1  0  0  0  0  0999 V2000
    6.4125   -3.1889   -1.0906 C   0  0  0  0  0  0  0  0  0  0  0  0
    6.4589   -2.9557    0.4284 C   0  0  0  0  0  0  0  0  0  0  0  0
    6.5658   -4.2964    1.1824 C   0  0  0  0  0  0  0  0  0  0  0  0
    5.2959   -2.0802    0.9027 C   0  0  0  0  0  0  0  0  0  0  0  0
    5.2634   -0.7130    0.5571 C   0  0  0  0  0  0  0  0  0  0  0  0
    4.2153    0.1151    1.0023 C   0  0  0  0  0  0  0  0  0  0  0  0
    3.1802   -0.3953    1.8138 C   0  0  0  0  0  0  0  0  0  0  0  0
    3.1956   -1.7701    2.1407 C   0  0  0  0  0  0  0  0  0  0  0  0
    4.2415   -2.5947    1.6933 C   0  0  0  0  0  0  0  0  0  0  0  0
    2.0783   -2.4174    2.9372 C   0  0  0  0  0  0  0  0  0  0  0  0
    1.2786   -1.4132    3.7606 C   0  0  0  0  0  0  0  0  0  0  0  0
    0.8594   -0.2171    2.8866 C   0  0  2  0  0  0  0  0  0  0  0  0
    2.0746    0.5453    2.2987 C   0  0  1  0  0  0  0  0  0  0  0  0
    2.6326    1.5918    3.2881 C   0  0  0  0  0  0  0  0  0  0  0  0
    1.5399    2.5280    3.8415 C   0  0  0  0  0  0  0  0  0  0  0  0
    0.3672    1.7746    4.5254 C   0  0  1  0  0  0  0  0  0  0  0  0
    0.8500    1.1249    5.8488 C   0  0  0  0  0  0  0  0  0  0  0  0
   -0.7319    2.7791    4.9746 C   0  0  0  0  0  0  0  0  0  0  0  0
   -1.5619    3.3452    3.8329 C   0  0  0  0  0  0  0  0  0  0  0  0
   -1.7965    4.5454    3.7150 O   0  0  0  0  0  0  0  0  0  0  0  0
   -2.1496    2.3131    2.8989 C   0  0  0  0  0  0  0  0  0  0  0  0
   -1.0469    1.3789    2.3851 C   0  0  0  0  0  0  0  0  0  0  0  0
   -0.2146    0.7144    3.5207 C   0  0  1  0  0  0  0  0  0  0  0  0
    6.3828   -2.2536   -1.6462 H   0  0  0  0  0  0  0  0  0  0  0  0
    5.5341   -3.7676   -1.3704 H   0  0  0  0  0  0  0  0  0  0  0  0
    7.2949   -3.7343   -1.4271 H   0  0  0  0  0  0  0  0  0  0  0  0
    7.3686   -2.3939    0.6492 H   0  0  0  0  0  0  0  0  0  0  0  0
    6.6145   -4.1298    2.2568 H   0  0  0  0  0  0  0  0  0  0  0  0
    7.4521   -4.8636    0.9016 H   0  0  0  0  0  0  0  0  0  0  0  0
    5.7045   -4.9320    0.9807 H   0  0  0  0  0  0  0  0  0  0  0  0
    6.0447   -0.2858   -0.0497 H   0  0  0  0  0  0  0  0  0  0  0  0
    4.2122    1.1558    0.7272 H   0  0  0  0  0  0  0  0  0  0  0  0
    4.2015   -3.6334    1.9714 H   0  0  0  0  0  0  0  0  0  0  0  0
    1.4203   -2.9122    2.2210 H   0  0  0  0  0  0  0  0  0  0  0  0
    2.4895   -3.1915    3.5858 H   0  0  0  0  0  0  0  0  0  0  0  0
    0.4149   -1.9030    4.2076 H   0  0  0  0  0  0  0  0  0  0  0  0
    1.9208   -1.0895    4.5772 H   0  0  0  0  0  0  0  0  0  0  0  0
    0.3724   -0.6774    2.0254 H   0  0  0  0  0  0  0  0  0  0  0  0
    1.7250    1.0817    1.4141 H   0  0  0  0  0  0  0  0  0  0  0  0
    3.1509    1.0889    4.1032 H   0  0  0  0  0  0  0  0  0  0  0  0
    3.3866    2.2007    2.7887 H   0  0  0  0  0  0  0  0  0  0  0  0
    1.9827    3.2382    4.5400 H   0  0  0  0  0  0  0  0  0  0  0  0
    1.1588    3.1298    3.0123 H   0  0  0  0  0  0  0  0  0  0  0  0
    0.1409    0.3749    6.2039 H   0  0  0  0  0  0  0  0  0  0  0  0
    0.9522    1.8725    6.6379 H   0  0  0  0  0  0  0  0  0  0  0  0
    1.8235    0.6484    5.7679 H   0  0  0  0  0  0  0  0  0  0  0  0
   -1.4302    2.2753    5.6402 H   0  0  0  0  0  0  0  0  0  0  0  0
   -0.2938    3.5967    5.5438 H   0  0  0  0  0  0  0  0  0  0  0  0
   -2.8786    1.7533    3.4786 H   0  0  0  0  0  0  0  0  0  0  0  0
   -2.6664    2.8083    2.0804 H   0  0  0  0  0  0  0  0  0  0  0  0
   -1.5099    0.6143    1.7604 H   0  0  0  0  0  0  0  0  0  0  0  0
   -0.3967    1.9463    1.7150 H   0  0  0  0  0  0  0  0  0  0  0  0
   -0.9194    0.0855    4.0684 H   0  0  0  0  0  0  0  0  0  0  0  0
  1  2  1  0
  1 24  1  0
  1 25  1  0
  1 26  1  0
  2  3  1  0
  2  4  1  0
  2 27  1  0
  3 28  1  0
  3 29  1  0
  3 30  1  0
  4  9  2  0
  4  5  1  0
  5  6  2  0
  5 31  1  0
  6  7  1  0
  6 32  1  0
  7 13  1  0
  7  8  2  0
  8  9  1  0
  8 10  1  0
  9 33  1  0
 10 11  1  0
 10 34  1  0
 10 35  1  0
 11 12  1  0
 11 36  1  0
 11 37  1  0
 12 23  1  0
 12 13  1  0
 12 38  1  6
 13 14  1  0
 13 39  1  6
 14 15  1  0
 14 40  1  0
 14 41  1  0
 15 16  1  0
 15 42  1  0
 15 43  1  0
 16 23  1  0
 16 17  1  1
 16 18  1  0
 17 44  1  0
 17 45  1  0
 17 46  1  0
 18 19  1  0
 18 47  1  0
 18 48  1  0
 19 20  2  0
 19 21  1  0
 21 22  1  0
 21 49  1  0
 21 50  1  0
 22 23  1  0
 22 51  1  0
 22 52  1  0
 23 53  1  1
M  END
>  <i_m_ct_stereo_status>  (107) 
1

>  <s_m_source_file>  (107) 
/var/tmp/pbs.5076255.sched01/tmpjtt61wjg/4457_394l_.sdf

>  <i_m_source_file_index>  (107) 
8

>  <i_lp_mmshare_version>  (107) 
48012

>  <i_f3d_flags>  (107) 
0

>  <s_epik_input>  (107) 
W0NIM11bQ0hdKFtDSDNdKWMoW2NIXVtjSF0xKVtjSF1jKFtDSDJdW0NIMl0yKWMxW0NASF0oW0NIMl1bQ0gyXTMpW0NAQEhdMltDQEBIXShbQ0BAXTM0W0NIM10pW0NIMl1bQ0gyXUMoPU8pW0NIMl00

>  <s_epik_cmdline>  (107) 
J2VwaWtfcHl0aG9uJywgJy1waHQnLCAnMi4wJywgJy1waCcsICc3LjAnLCAnLXRuJywgJzgnLCAnLW1hJywgJzIwMCcsICctaW1hZScsICc8aW5maWxlLm1hZT4nLCAnLW9tYWUnLCAnPG91dGZpbGUubWFlPic=

>  <r_lp_tautomer_probability>  (107) 
1

>  <r_epik_Ionization_Penalty>  (107) 
1.05904e-13

>  <r_epik_Ionization_Penalty_Charging>  (107) 
0

>  <r_epik_Ionization_Penalty_Neutral>  (107) 
1.05904e-13

>  <r_epik_State_Penalty>  (107) 
-0

>  <r_epik_Charging_Adjusted_Penalty>  (107) 
0

>  <i_epik_Tot_Q>  (107) 
0

>  <i_epik_Tot_abs_Q>  (107) 
0

>  <s_lp_Force_Field>  (107) 
OPLS3e

>  <r_lp_Energy>  (107) 
36.2796

>  <b_lp_Chiralities_Consistent>  (107) 
1

>  <s_lp_Variant>  (107) 
39:0-1

>  <s_i_glide_gridfile>  (107) 
pfpi4k_grid

>  <i_i_glide_lignum>  (107) 
8

>  <i_i_glide_rotatable_bonds>  (107) 
1

>  <r_i_docking_score>  (107) 
-3.58856

>  <r_i_glide_ligand_efficiency>  (107) 
-0.156024

>  <r_i_glide_ligand_efficiency_sa>  (107) 
-0.443712

>  <r_i_glide_ligand_efficiency_ln>  (107) 
-0.867746

>  <r_i_glide_gscore>  (107) 
-3.58856

>  <r_i_glide_lipo>  (107) 
-0.538953

>  <r_i_glide_hbond>  (107) 
-0.16

>  <r_i_glide_metal>  (107) 
-0

>  <r_i_glide_rewards>  (107) 
-1.29223

>  <r_i_glide_evdw>  (107) 
-20.07

>  <r_i_glide_ecoul>  (107) 
-3.58965

>  <r_i_glide_erotb>  (107) 
0

>  <r_i_glide_esite>  (107) 
-0.0554283

>  <r_i_glide_emodel>  (107) 
-28.174

>  <r_i_glide_energy>  (107) 
-23.6597

>  <r_i_glide_einternal>  (107) 
1.76926

>  <r_i_glide_intrahb_reward>  (107) 
-0

>  <i_i_glide_confnum>  (107) 
1

>  <i_i_glide_posenum>  (107) 
26

>  <r_i_glide_eff_state_penalty>  (107) 
0

>  <ligand_id>  (107) 
39

>  <original_smiles>  (107) 
CC(C)c1ccc2c(c1)CCC1C2CCC2(C)CC(=O)CCC12

>  <smiles>  (107) 
[H]c1c([H])c2c(c([H])c1C([H])(C([H])([H])[H])C([H])([H])[H])C([H])([H])C([H])([H])C1([H])C2([H])C([H])([H])C([H])([H])C2(C([H])([H])[H])C([H])([H])C(=O)C([H])([H])C([H])([H])C12[H]

$$$$
39:0:2
     RDKit          3D

 53 56  0  0  1  0  0  0  0  0999 V2000
    6.6934   -3.8054    0.5113 C   0  0  0  0  0  0  0  0  0  0  0  0
    5.3593   -4.3731    1.0194 C   0  0  0  0  0  0  0  0  0  0  0  0
    4.7250   -5.3272   -0.0051 C   0  0  0  0  0  0  0  0  0  0  0  0
    4.3975   -3.2594    1.4362 C   0  0  0  0  0  0  0  0  0  0  0  0
    3.9064   -2.3395    0.4885 C   0  0  0  0  0  0  0  0  0  0  0  0
    3.0322   -1.3096    0.8834 C   0  0  0  0  0  0  0  0  0  0  0  0
    2.6218   -1.1794    2.2257 C   0  0  0  0  0  0  0  0  0  0  0  0
    3.0923   -2.1206    3.1775 C   0  0  0  0  0  0  0  0  0  0  0  0
    3.9792   -3.1441    2.7770 C   0  0  0  0  0  0  0  0  0  0  0  0
    2.6181   -2.0891    4.6212 C   0  0  0  0  0  0  0  0  0  0  0  0
    2.0795   -0.7211    5.0401 C   0  0  0  0  0  0  0  0  0  0  0  0
    1.0542   -0.2033    4.0162 C   0  0  2  0  0  0  0  0  0  0  0  0
    1.6745   -0.0368    2.6049 C   0  0  1  0  0  0  0  0  0  0  0  0
    2.3719    1.3293    2.4368 C   0  0  0  0  0  0  0  0  0  0  0  0
    1.4753    2.5116    2.8530 C   0  0  0  0  0  0  0  0  0  0  0  0
    0.9411    2.4079    4.3056 C   0  0  1  0  0  0  0  0  0  0  0  0
    2.1010    2.5897    5.3171 C   0  0  0  0  0  0  0  0  0  0  0  0
   -0.0206    3.5918    4.6182 C   0  0  0  0  0  0  0  0  0  0  0  0
   -1.3873    3.4879    3.9572 C   0  0  0  0  0  0  0  0  0  0  0  0
   -1.9206    4.4394    3.3831 O   0  0  0  0  0  0  0  0  0  0  0  0
   -2.0957    2.1596    4.1542 C   0  0  0  0  0  0  0  0  0  0  0  0
   -1.1680    0.9997    3.7644 C   0  0  0  0  0  0  0  0  0  0  0  0
    0.2148    1.0257    4.4810 C   0  0  1  0  0  0  0  0  0  0  0  0
    7.1387   -3.1366    1.2460 H   0  0  0  0  0  0  0  0  0  0  0  0
    6.5667   -3.2468   -0.4144 H   0  0  0  0  0  0  0  0  0  0  0  0
    7.4090   -4.6035    0.3180 H   0  0  0  0  0  0  0  0  0  0  0  0
    5.5811   -4.9616    1.9105 H   0  0  0  0  0  0  0  0  0  0  0  0
    3.7923   -5.7421    0.3732 H   0  0  0  0  0  0  0  0  0  0  0  0
    5.3892   -6.1620   -0.2277 H   0  0  0  0  0  0  0  0  0  0  0  0
    4.5072   -4.8243   -0.9462 H   0  0  0  0  0  0  0  0  0  0  0  0
    4.1888   -2.4217   -0.5486 H   0  0  0  0  0  0  0  0  0  0  0  0
    2.6570   -0.6209    0.1423 H   0  0  0  0  0  0  0  0  0  0  0  0
    4.3275   -3.8581    3.5059 H   0  0  0  0  0  0  0  0  0  0  0  0
    1.8306   -2.8376    4.7233 H   0  0  0  0  0  0  0  0  0  0  0  0
    3.4341   -2.3874    5.2796 H   0  0  0  0  0  0  0  0  0  0  0  0
    1.6459   -0.7743    6.0407 H   0  0  0  0  0  0  0  0  0  0  0  0
    2.9334   -0.0518    5.0979 H   0  0  0  0  0  0  0  0  0  0  0  0
    0.3419   -1.0205    3.9285 H   0  0  0  0  0  0  0  0  0  0  0  0
    0.8585   -0.0692    1.8793 H   0  0  0  0  0  0  0  0  0  0  0  0
    3.3036    1.3429    2.9988 H   0  0  0  0  0  0  0  0  0  0  0  0
    2.6497    1.4580    1.3901 H   0  0  0  0  0  0  0  0  0  0  0  0
    2.0117    3.4536    2.7184 H   0  0  0  0  0  0  0  0  0  0  0  0
    0.6369    2.5453    2.1557 H   0  0  0  0  0  0  0  0  0  0  0  0
    1.8159    2.2500    6.3155 H   0  0  0  0  0  0  0  0  0  0  0  0
    2.3846    3.6408    5.4028 H   0  0  0  0  0  0  0  0  0  0  0  0
    3.0076    2.0616    5.0336 H   0  0  0  0  0  0  0  0  0  0  0  0
   -0.2067    3.6283    5.6900 H   0  0  0  0  0  0  0  0  0  0  0  0
    0.4401    4.5412    4.3498 H   0  0  0  0  0  0  0  0  0  0  0  0
   -2.3644    2.0817    5.2062 H   0  0  0  0  0  0  0  0  0  0  0  0
   -3.0210    2.1460    3.5773 H   0  0  0  0  0  0  0  0  0  0  0  0
   -1.6846    0.0640    3.9863 H   0  0  0  0  0  0  0  0  0  0  0  0
   -1.0410    1.0204    2.6808 H   0  0  0  0  0  0  0  0  0  0  0  0
   -0.0032    0.8944    5.5422 H   0  0  0  0  0  0  0  0  0  0  0  0
  1  2  1  0
  1 24  1  0
  1 25  1  0
  1 26  1  0
  2  3  1  0
  2  4  1  0
  2 27  1  0
  3 28  1  0
  3 29  1  0
  3 30  1  0
  4  9  2  0
  4  5  1  0
  5  6  2  0
  5 31  1  0
  6  7  1  0
  6 32  1  0
  7 13  1  0
  7  8  2  0
  8  9  1  0
  8 10  1  0
  9 33  1  0
 10 11  1  0
 10 34  1  0
 10 35  1  0
 11 12  1  0
 11 36  1  0
 11 37  1  0
 12 23  1  0
 12 13  1  0
 12 38  1  6
 13 14  1  0
 13 39  1  6
 14 15  1  0
 14 40  1  0
 14 41  1  0
 15 16  1  0
 15 42  1  0
 15 43  1  0
 16 23  1  0
 16 17  1  1
 16 18  1  0
 17 44  1  0
 17 45  1  0
 17 46  1  0
 18 19  1  0
 18 47  1  0
 18 48  1  0
 19 20  2  0
 19 21  1  0
 21 22  1  0
 21 49  1  0
 21 50  1  0
 22 23  1  0
 22 51  1  0
 22 52  1  0
 23 53  1  1
M  END
>  <i_m_ct_stereo_status>  (108) 
1

>  <s_m_source_file>  (108) 
/var/tmp/pbs.5076255.sched01/tmpjtt61wjg/4457_394l_.sdf

>  <i_m_source_file_index>  (108) 
8

>  <i_lp_mmshare_version>  (108) 
48012

>  <i_f3d_flags>  (108) 
0

>  <s_epik_input>  (108) 
W0NIM11bQ0hdKFtDSDNdKWMoW2NIXVtjSF0xKVtjSF1jKFtDSDJdW0NIMl0yKWMxW0NASF0oW0NIMl1bQ0gyXTMpW0NAQEhdMltDQEBIXShbQ0BAXTM0W0NIM10pW0NIMl1bQ0gyXUMoPU8pW0NIMl00

>  <s_epik_cmdline>  (108) 
J2VwaWtfcHl0aG9uJywgJy1waHQnLCAnMi4wJywgJy1waCcsICc3LjAnLCAnLXRuJywgJzgnLCAnLW1hJywgJzIwMCcsICctaW1hZScsICc8aW5maWxlLm1hZT4nLCAnLW9tYWUnLCAnPG91dGZpbGUubWFlPic=

>  <r_lp_tautomer_probability>  (108) 
1

>  <r_epik_Ionization_Penalty>  (108) 
1.05904e-13

>  <r_epik_Ionization_Penalty_Charging>  (108) 
0

>  <r_epik_Ionization_Penalty_Neutral>  (108) 
1.05904e-13

>  <r_epik_State_Penalty>  (108) 
-0

>  <r_epik_Charging_Adjusted_Penalty>  (108) 
0

>  <i_epik_Tot_Q>  (108) 
0

>  <i_epik_Tot_abs_Q>  (108) 
0

>  <s_lp_Force_Field>  (108) 
OPLS3e

>  <r_lp_Energy>  (108) 
36.2796

>  <b_lp_Chiralities_Consistent>  (108) 
1

>  <s_lp_Variant>  (108) 
39:0-1

>  <s_i_glide_gridfile>  (108) 
pfpi4k_grid

>  <i_i_glide_lignum>  (108) 
8

>  <i_i_glide_rotatable_bonds>  (108) 
1

>  <r_i_docking_score>  (108) 
-3.01993

>  <r_i_glide_ligand_efficiency>  (108) 
-0.131301

>  <r_i_glide_ligand_efficiency_sa>  (108) 
-0.373403

>  <r_i_glide_ligand_efficiency_ln>  (108) 
-0.730245

>  <r_i_glide_gscore>  (108) 
-3.01993

>  <r_i_glide_lipo>  (108) 
-0.210856

>  <r_i_glide_hbond>  (108) 
-0.16

>  <r_i_glide_metal>  (108) 
-0

>  <r_i_glide_rewards>  (108) 
-1.29223

>  <r_i_glide_evdw>  (108) 
-18.7627

>  <r_i_glide_ecoul>  (108) 
-2.40982

>  <r_i_glide_erotb>  (108) 
0

>  <r_i_glide_esite>  (108) 
-0.0572328

>  <r_i_glide_emodel>  (108) 
-25.7521

>  <r_i_glide_energy>  (108) 
-21.1725

>  <r_i_glide_einternal>  (108) 
0.00579178

>  <r_i_glide_intrahb_reward>  (108) 
-0

>  <i_i_glide_confnum>  (108) 
1

>  <i_i_glide_posenum>  (108) 
31

>  <r_i_glide_eff_state_penalty>  (108) 
0

>  <ligand_id>  (108) 
39

>  <original_smiles>  (108) 
CC(C)c1ccc2c(c1)CCC1C2CCC2(C)CC(=O)CCC12

>  <smiles>  (108) 
[H]c1c([H])c2c(c([H])c1C([H])(C([H])([H])[H])C([H])([H])[H])C([H])([H])C([H])([H])C1([H])C2([H])C([H])([H])C([H])([H])C2(C([H])([H])[H])C([H])([H])C(=O)C([H])([H])C([H])([H])C12[H]

$$$$
41:0:0
     RDKit          3D

 43 46  0  0  1  0  0  0  0  0999 V2000
    3.0994   -1.8293   -3.6878 C   0  0  0  0  0  0  0  0  0  0  0  0
    3.5445   -3.1867   -3.1388 C   0  0  0  0  0  0  0  0  0  0  0  0
    4.0793   -3.0406   -1.7036 C   0  0  0  0  0  0  0  0  0  0  0  0
    4.6096   -4.3432   -1.1919 N   0  0  0  0  0  0  0  0  0  0  0  0
    4.3804   -4.7114    0.1961 C   0  0  1  0  0  0  0  0  0  0  0  0
    2.8612   -4.8527    0.5470 C   0  0  0  0  0  0  0  0  0  0  0  0
    2.6769   -5.2817    1.9995 C   0  0  2  0  0  0  0  0  0  0  0  0
    3.3216   -4.2300    2.9339 C   0  0  0  0  0  0  0  0  0  0  0  0
    4.8319   -4.1315    2.6364 C   0  0  1  0  0  0  0  0  0  0  0  0
    5.4971   -5.5043    2.8631 C   0  0  0  0  0  0  0  0  0  0  0  0
    4.8502   -6.5443    1.9196 C   0  0  1  0  0  0  0  0  0  0  0  0
    3.3440   -6.6541    2.2276 C   0  0  0  0  0  0  0  0  0  0  0  0
    5.0414   -6.0972    0.4635 C   0  0  0  0  0  0  0  0  0  0  0  0
    5.0276   -3.6916    1.1789 C   0  0  0  0  0  0  0  0  0  0  0  0
    5.1733   -1.9613   -1.6951 C   0  0  0  0  0  0  0  0  0  0  0  0
    4.6225   -0.6716   -2.3131 C   0  0  0  0  0  0  0  0  0  0  0  0
    4.1919   -0.9173   -3.6439 O   0  0  0  0  0  0  0  0  0  0  0  0
    2.2508   -1.4492   -3.1085 H   0  0  0  0  0  0  0  0  0  0  0  0
    2.7718   -1.9345   -4.7202 H   0  0  0  0  0  0  0  0  0  0  0  0
    2.6812   -3.8537   -3.1578 H   0  0  0  0  0  0  0  0  0  0  0  0
    4.3032   -3.6172   -3.7959 H   0  0  0  0  0  0  0  0  0  0  0  0
    3.2469   -2.6928   -1.0982 H   0  0  0  0  0  0  0  0  0  0  0  0
    4.1594   -5.0687   -1.7613 H   0  0  0  0  0  0  0  0  0  0  0  0
    2.3245   -3.9120    0.4055 H   0  0  0  0  0  0  0  0  0  0  0  0
    2.3971   -5.5842   -0.1244 H   0  0  0  0  0  0  0  0  0  0  0  0
    1.6132   -5.3568    2.2323 H   0  0  0  0  0  0  0  0  0  0  0  0
    2.8502   -3.2557    2.7829 H   0  0  0  0  0  0  0  0  0  0  0  0
    3.1586   -4.4968    3.9804 H   0  0  0  0  0  0  0  0  0  0  0  0
    5.2894   -3.3936    3.2975 H   0  0  0  0  0  0  0  0  0  0  0  0
    6.5730   -5.4381    2.6733 H   0  0  0  0  0  0  0  0  0  0  0  0
    5.3806   -5.8119    3.9066 H   0  0  0  0  0  0  0  0  0  0  0  0
    5.3226   -7.5145    2.0816 H   0  0  0  0  0  0  0  0  0  0  0  0
    3.1901   -6.9907    3.2572 H   0  0  0  0  0  0  0  0  0  0  0  0
    2.8839   -7.4028    1.5778 H   0  0  0  0  0  0  0  0  0  0  0  0
    4.6129   -6.8492   -0.2074 H   0  0  0  0  0  0  0  0  0  0  0  0
    6.1097   -6.0609    0.2309 H   0  0  0  0  0  0  0  0  0  0  0  0
    6.0932   -3.5805    0.9622 H   0  0  0  0  0  0  0  0  0  0  0  0
    4.5688   -2.7092    1.0641 H   0  0  0  0  0  0  0  0  0  0  0  0
    5.5162   -1.7387   -0.6882 H   0  0  0  0  0  0  0  0  0  0  0  0
    6.0429   -2.2998   -2.2619 H   0  0  0  0  0  0  0  0  0  0  0  0
    3.8141   -0.2760   -1.7085 H   0  0  0  0  0  0  0  0  0  0  0  0
    5.4041    0.0859   -2.3280 H   0  0  0  0  0  0  0  0  0  0  0  0
    5.5950   -4.3808   -1.3994 H   0  0  0  0  0  0  0  0  0  0  0  0
  1 17  1  0
  1  2  1  0
  1 18  1  0
  1 19  1  0
  2  3  1  0
  2 20  1  0
  2 21  1  0
  3  4  1  0
  3 15  1  0
  3 22  1  0
  5  4  1  6
  4 23  1  0
  4 43  1  0
  5 13  1  0
  5 14  1  0
  5  6  1  0
  6  7  1  0
  6 24  1  0
  6 25  1  0
  7 12  1  0
  7  8  1  0
  7 26  1  1
  8  9  1  0
  8 27  1  0
  8 28  1  0
  9 10  1  0
  9 14  1  0
  9 29  1  1
 10 11  1  0
 10 30  1  0
 10 31  1  0
 11 12  1  0
 11 13  1  0
 11 32  1  6
 12 33  1  0
 12 34  1  0
 13 35  1  0
 13 36  1  0
 14 37  1  0
 14 38  1  0
 15 16  1  0
 15 39  1  0
 15 40  1  0
 16 17  1  0
 16 41  1  0
 16 42  1  0
M  CHG  1   4   1
M  END
>  <i_m_ct_stereo_status>  (109) 
1

>  <s_m_source_file>  (109) 
/var/tmp/pbs.5076255.sched01/tmpjtt61wjg/4457_394l_.sdf

>  <i_m_source_file_index>  (109) 
10

>  <i_lp_mmshare_version>  (109) 
48012

>  <i_f3d_flags>  (109) 
0

>  <s_epik_input>  (109) 
W0NIMl0xW0NIMl1PW0NIMl1bQ0gyXVtDSF0xW05IXUMyM1tDSDJdW0NASF00W0NIMl1bQ0BASF0oW0NIMl0zKVtDSDJdW0NASF0oW0NIMl00KVtDSDJdMg==

>  <s_epik_cmdline>  (109) 
J2VwaWtfcHl0aG9uJywgJy1waHQnLCAnMi4wJywgJy1waCcsICc3LjAnLCAnLXRuJywgJzgnLCAnLW1hJywgJzIwMCcsICctaW1hZScsICc8aW5maWxlLm1hZT4nLCAnLW9tYWUnLCAnPG91dGZpbGUubWFlPic=

>  <r_lp_tautomer_probability>  (109) 
1

>  <r_epik_Ionization_Penalty>  (109) 
0.000130264

>  <r_epik_Ionization_Penalty_Charging>  (109) 
0.000130264

>  <r_epik_Ionization_Penalty_Neutral>  (109) 
1.51239e-12

>  <r_epik_State_Penalty>  (109) 
-0

>  <r_epik_Charging_Adjusted_Penalty>  (109) 
0.000130264

>  <i_epik_Tot_Q>  (109) 
1

>  <i_epik_Tot_abs_Q>  (109) 
1

>  <s_lp_Force_Field>  (109) 
OPLS3e

>  <r_lp_Energy>  (109) 
17.2035

>  <b_lp_Chiralities_Consistent>  (109) 
1

>  <s_lp_Variant>  (109) 
41:0-1

>  <s_i_glide_gridfile>  (109) 
pfpi4k_grid

>  <i_i_glide_lignum>  (109) 
10

>  <i_i_glide_rotatable_bonds>  (109) 
2

>  <r_i_docking_score>  (109) 
-3.70635

>  <r_i_glide_ligand_efficiency>  (109) 
-0.218021

>  <r_i_glide_ligand_efficiency_sa>  (109) 
-0.560593

>  <r_i_glide_ligand_efficiency_ln>  (109) 
-0.966905

>  <r_i_glide_gscore>  (109) 
-3.70635

>  <r_i_glide_lipo>  (109) 
-0.542364

>  <r_i_glide_hbond>  (109) 
0

>  <r_i_glide_metal>  (109) 
-0

>  <r_i_glide_rewards>  (109) 
-1.79746

>  <r_i_glide_evdw>  (109) 
-20.3723

>  <r_i_glide_ecoul>  (109) 
-6.21255

>  <r_i_glide_erotb>  (109) 
0.616278

>  <r_i_glide_esite>  (109) 
-0.0323117

>  <r_i_glide_emodel>  (109) 
-32.6832

>  <r_i_glide_energy>  (109) 
-26.5849

>  <r_i_glide_einternal>  (109) 
0.0517502

>  <r_i_glide_intrahb_reward>  (109) 
-0

>  <i_i_glide_confnum>  (109) 
5

>  <i_i_glide_posenum>  (109) 
13

>  <r_i_glide_eff_state_penalty>  (109) 
0

>  <ligand_id>  (109) 
41

>  <original_smiles>  (109) 
C1CC(NC23CC4CC(CC(C4)C2)C3)CCO1

>  <smiles>  (109) 
[H]C1([H])OC([H])([H])C([H])([H])C([H])([N+]([H])([H])C23C([H])([H])C4([H])C([H])([H])C([H])(C([H])([H])C([H])(C4([H])[H])C2([H])[H])C3([H])[H])C1([H])[H]

$$$$
41:0:1
     RDKit          3D

 43 46  0  0  1  0  0  0  0  0999 V2000
    8.5039   -3.3439    0.3193 C   0  0  0  0  0  0  0  0  0  0  0  0
    7.0575   -2.9671    0.1534 C   0  0  0  0  0  0  0  0  0  0  0  0
    6.0367   -3.8380    0.9146 C   0  0  0  0  0  0  0  0  0  0  0  0
    4.6070   -3.5313    0.5908 N   0  0  0  0  0  0  0  0  0  0  0  0
    4.2725   -3.0330   -0.7841 C   0  0  1  0  0  0  0  0  0  0  0  0
    4.8357   -1.5956   -1.0889 C   0  0  0  0  0  0  0  0  0  0  0  0
    4.5170   -1.1955   -2.5113 C   0  0  2  0  0  0  0  0  0  0  0  0
    3.0174   -1.0508   -2.6676 C   0  0  0  0  0  0  0  0  0  0  0  0
    2.3904   -2.4005   -2.3427 C   0  0  1  0  0  0  0  0  0  0  0  0
    2.7781   -3.3751   -3.4160 C   0  0  0  0  0  0  0  0  0  0  0  0
    4.2768   -3.6337   -3.2553 C   0  0  1  0  0  0  0  0  0  0  0  0
    4.9528   -2.2902   -3.4967 C   0  0  0  0  0  0  0  0  0  0  0  0
    4.6709   -4.0796   -1.8353 C   0  0  0  0  0  0  0  0  0  0  0  0
    2.7344   -2.9276   -0.9050 C   0  0  0  0  0  0  0  0  0  0  0  0
    6.3739   -5.3313    0.7160 C   0  0  0  0  0  0  0  0  0  0  0  0
    7.8894   -5.5576    0.8827 C   0  0  0  0  0  0  0  0  0  0  0  0
    8.6463   -4.7243    0.0076 O   0  0  0  0  0  0  0  0  0  0  0  0
    8.8466   -3.0905    1.3040 H   0  0  0  0  0  0  0  0  0  0  0  0
    9.0492   -2.7395   -0.4099 H   0  0  0  0  0  0  0  0  0  0  0  0
    6.9311   -1.9173    0.4564 H   0  0  0  0  0  0  0  0  0  0  0  0
    6.9498   -3.0866   -0.9288 H   0  0  0  0  0  0  0  0  0  0  0  0
    6.1485   -3.6197    1.9836 H   0  0  0  0  0  0  0  0  0  0  0  0
    4.0864   -4.3876    0.7330 H   0  0  0  0  0  0  0  0  0  0  0  0
    4.4907   -0.8677   -0.3528 H   0  0  0  0  0  0  0  0  0  0  0  0
    5.8915   -1.4764   -1.2110 H   0  0  0  0  0  0  0  0  0  0  0  0
    4.9629   -0.2366   -2.7411 H   0  0  0  0  0  0  0  0  0  0  0  0
    2.6447   -0.3352   -1.9547 H   0  0  0  0  0  0  0  0  0  0  0  0
    2.7133   -0.6631   -3.6468 H   0  0  0  0  0  0  0  0  0  0  0  0
    1.3124   -2.3313   -2.4045 H   0  0  0  0  0  0  0  0  0  0  0  0
    2.1597   -4.2371   -3.2099 H   0  0  0  0  0  0  0  0  0  0  0  0
    2.5244   -3.0422   -4.4218 H   0  0  0  0  0  0  0  0  0  0  0  0
    4.6340   -4.3608   -3.9802 H   0  0  0  0  0  0  0  0  0  0  0  0
    4.7546   -1.9142   -4.5056 H   0  0  0  0  0  0  0  0  0  0  0  0
    6.0213   -2.4817   -3.3769 H   0  0  0  0  0  0  0  0  0  0  0  0
    5.7191   -4.3151   -1.8991 H   0  0  0  0  0  0  0  0  0  0  0  0
    4.2676   -5.0392   -1.4996 H   0  0  0  0  0  0  0  0  0  0  0  0
    2.1886   -3.8591   -0.6830 H   0  0  0  0  0  0  0  0  0  0  0  0
    2.3751   -2.2297   -0.1458 H   0  0  0  0  0  0  0  0  0  0  0  0
    5.8054   -5.9500    1.4164 H   0  0  0  0  0  0  0  0  0  0  0  0
    6.0884   -5.6813   -0.2729 H   0  0  0  0  0  0  0  0  0  0  0  0
    8.1939   -5.3554    1.9092 H   0  0  0  0  0  0  0  0  0  0  0  0
    8.1272   -6.5936    0.6424 H   0  0  0  0  0  0  0  0  0  0  0  0
    4.2392   -2.8734    1.2587 H   0  0  0  0  0  0  0  0  0  0  0  0
  1 17  1  0
  1  2  1  0
  1 18  1  0
  1 19  1  0
  2  3  1  0
  2 20  1  0
  2 21  1  0
  3  4  1  0
  3 15  1  0
  3 22  1  0
  5  4  1  1
  4 23  1  0
  4 43  1  0
  5 13  1  0
  5 14  1  0
  5  6  1  0
  6  7  1  0
  6 24  1  0
  6 25  1  0
  7 12  1  0
  7  8  1  0
  7 26  1  6
  8  9  1  0
  8 27  1  0
  8 28  1  0
  9 10  1  0
  9 14  1  0
  9 29  1  1
 10 11  1  0
 10 30  1  0
 10 31  1  0
 11 12  1  0
 11 13  1  0
 11 32  1  6
 12 33  1  0
 12 34  1  0
 13 35  1  0
 13 36  1  0
 14 37  1  0
 14 38  1  0
 15 16  1  0
 15 39  1  0
 15 40  1  0
 16 17  1  0
 16 41  1  0
 16 42  1  0
M  CHG  1   4   1
M  END
>  <i_m_ct_stereo_status>  (110) 
1

>  <s_m_source_file>  (110) 
/var/tmp/pbs.5076255.sched01/tmpjtt61wjg/4457_394l_.sdf

>  <i_m_source_file_index>  (110) 
10

>  <i_lp_mmshare_version>  (110) 
48012

>  <i_f3d_flags>  (110) 
0

>  <s_epik_input>  (110) 
W0NIMl0xW0NIMl1PW0NIMl1bQ0gyXVtDSF0xW05IXUMyM1tDSDJdW0NASF00W0NIMl1bQ0BASF0oW0NIMl0zKVtDSDJdW0NASF0oW0NIMl00KVtDSDJdMg==

>  <s_epik_cmdline>  (110) 
J2VwaWtfcHl0aG9uJywgJy1waHQnLCAnMi4wJywgJy1waCcsICc3LjAnLCAnLXRuJywgJzgnLCAnLW1hJywgJzIwMCcsICctaW1hZScsICc8aW5maWxlLm1hZT4nLCAnLW9tYWUnLCAnPG91dGZpbGUubWFlPic=

>  <r_lp_tautomer_probability>  (110) 
1

>  <r_epik_Ionization_Penalty>  (110) 
0.000130264

>  <r_epik_Ionization_Penalty_Charging>  (110) 
0.000130264

>  <r_epik_Ionization_Penalty_Neutral>  (110) 
1.51239e-12

>  <r_epik_State_Penalty>  (110) 
-0

>  <r_epik_Charging_Adjusted_Penalty>  (110) 
0.000130264

>  <i_epik_Tot_Q>  (110) 
1

>  <i_epik_Tot_abs_Q>  (110) 
1

>  <s_lp_Force_Field>  (110) 
OPLS3e

>  <r_lp_Energy>  (110) 
17.2035

>  <b_lp_Chiralities_Consistent>  (110) 
1

>  <s_lp_Variant>  (110) 
41:0-1

>  <s_i_glide_gridfile>  (110) 
pfpi4k_grid

>  <i_i_glide_lignum>  (110) 
10

>  <i_i_glide_rotatable_bonds>  (110) 
2

>  <r_i_docking_score>  (110) 
-2.32272

>  <r_i_glide_ligand_efficiency>  (110) 
-0.136631

>  <r_i_glide_ligand_efficiency_sa>  (110) 
-0.351316

>  <r_i_glide_ligand_efficiency_ln>  (110) 
-0.605947

>  <r_i_glide_gscore>  (110) 
-2.32272

>  <r_i_glide_lipo>  (110) 
-0.810589

>  <r_i_glide_hbond>  (110) 
0

>  <r_i_glide_metal>  (110) 
-0

>  <r_i_glide_rewards>  (110) 
-1.79746

>  <r_i_glide_evdw>  (110) 
-6.82651

>  <r_i_glide_ecoul>  (110) 
-3.04153

>  <r_i_glide_erotb>  (110) 
0.616278

>  <r_i_glide_esite>  (110) 
0

>  <r_i_glide_emodel>  (110) 
-2.68032

>  <r_i_glide_energy>  (110) 
-9.86804

>  <r_i_glide_einternal>  (110) 
12.0281

>  <r_i_glide_intrahb_reward>  (110) 
-0

>  <i_i_glide_confnum>  (110) 
5

>  <i_i_glide_posenum>  (110) 
7

>  <r_i_glide_eff_state_penalty>  (110) 
0

>  <ligand_id>  (110) 
41

>  <original_smiles>  (110) 
C1CC(NC23CC4CC(CC(C4)C2)C3)CCO1

>  <smiles>  (110) 
[H]C1([H])OC([H])([H])C([H])([H])C([H])([N+]([H])([H])C23C([H])([H])C4([H])C([H])([H])C([H])(C([H])([H])C([H])(C4([H])[H])C2([H])[H])C3([H])[H])C1([H])[H]

$$$$
41:0:2
     RDKit          3D

 43 46  0  0  1  0  0  0  0  0999 V2000
    5.0875   -0.9969    3.0456 C   0  0  0  0  0  0  0  0  0  0  0  0
    5.4220   -1.6984    1.7292 C   0  0  0  0  0  0  0  0  0  0  0  0
    4.3538   -2.7607    1.4194 C   0  0  0  0  0  0  0  0  0  0  0  0
    4.6901   -3.5318    0.1962 N   0  0  0  0  0  0  0  0  0  0  0  0
    4.1992   -3.0558   -1.1283 C   0  0  1  0  0  0  0  0  0  0  0  0
    4.6586   -1.6098   -1.4413 C   0  0  0  0  0  0  0  0  0  0  0  0
    4.1716   -1.1964   -2.8342 C   0  0  2  0  0  0  0  0  0  0  0  0
    2.6612   -1.2204   -2.8873 C   0  0  0  0  0  0  0  0  0  0  0  0
    2.1623   -2.6515   -2.5931 C   0  0  1  0  0  0  0  0  0  0  0  0
    2.6500   -3.5523   -3.7057 C   0  0  0  0  0  0  0  0  0  0  0  0
    4.1902   -3.6047   -3.6157 C   0  0  1  0  0  0  0  0  0  0  0  0
    4.6278   -2.1686   -3.8993 C   0  0  0  0  0  0  0  0  0  0  0  0
    4.7762   -3.9896   -2.2091 C   0  0  0  0  0  0  0  0  0  0  0  0
    2.6600   -3.1373   -1.2106 C   0  0  0  0  0  0  0  0  0  0  0  0
    4.2303   -3.7128    2.6197 C   0  0  0  0  0  0  0  0  0  0  0  0
    3.9737   -2.9136    3.9084 C   0  0  0  0  0  0  0  0  0  0  0  0
    5.0152   -1.9565    4.0974 O   0  0  0  0  0  0  0  0  0  0  0  0
    4.1431   -0.4586    2.9627 H   0  0  0  0  0  0  0  0  0  0  0  0
    5.8587   -0.2634    3.2803 H   0  0  0  0  0  0  0  0  0  0  0  0
    5.4904   -0.9368    0.9502 H   0  0  0  0  0  0  0  0  0  0  0  0
    6.4007   -2.1737    1.8199 H   0  0  0  0  0  0  0  0  0  0  0  0
    3.3858   -2.2731    1.3238 H   0  0  0  0  0  0  0  0  0  0  0  0
    5.6915   -3.6384    0.1429 H   0  0  0  0  0  0  0  0  0  0  0  0
    4.2696   -0.8797   -0.7249 H   0  0  0  0  0  0  0  0  0  0  0  0
    5.7477   -1.5471   -1.4124 H   0  0  0  0  0  0  0  0  0  0  0  0
    4.5358   -0.2126   -3.0792 H   0  0  0  0  0  0  0  0  0  0  0  0
    2.2789   -0.5000   -2.1694 H   0  0  0  0  0  0  0  0  0  0  0  0
    2.3443   -0.9161   -3.8909 H   0  0  0  0  0  0  0  0  0  0  0  0
    1.0702   -2.6387   -2.5787 H   0  0  0  0  0  0  0  0  0  0  0  0
    2.2049   -4.5289   -3.5503 H   0  0  0  0  0  0  0  0  0  0  0  0
    2.3268   -3.1407   -4.6764 H   0  0  0  0  0  0  0  0  0  0  0  0
    4.5611   -4.2903   -4.3868 H   0  0  0  0  0  0  0  0  0  0  0  0
    4.3046   -1.8288   -4.8957 H   0  0  0  0  0  0  0  0  0  0  0  0
    5.7060   -2.2211   -3.8210 H   0  0  0  0  0  0  0  0  0  0  0  0
    5.8591   -3.8682   -2.2439 H   0  0  0  0  0  0  0  0  0  0  0  0
    4.6594   -5.0499   -1.9213 H   0  0  0  0  0  0  0  0  0  0  0  0
    2.2932   -4.1373   -0.9790 H   0  0  0  0  0  0  0  0  0  0  0  0
    2.2602   -2.4677   -0.4483 H   0  0  0  0  0  0  0  0  0  0  0  0
    3.4173   -4.4265    2.4707 H   0  0  0  0  0  0  0  0  0  0  0  0
    5.1385   -4.3061    2.7382 H   0  0  0  0  0  0  0  0  0  0  0  0
    3.0037   -2.4075    3.8661 H   0  0  0  0  0  0  0  0  0  0  0  0
    3.9552   -3.5813    4.7732 H   0  0  0  0  0  0  0  0  0  0  0  0
    4.3042   -4.4549    0.2828 H   0  0  0  0  0  0  0  0  0  0  0  0
  1 17  1  0
  1  2  1  0
  1 18  1  0
  1 19  1  0
  2  3  1  0
  2 20  1  0
  2 21  1  0
  3  4  1  0
  3 15  1  0
  3 22  1  0
  5  4  1  1
  4 23  1  0
  4 43  1  0
  5 13  1  0
  5 14  1  0
  5  6  1  0
  6  7  1  0
  6 24  1  0
  6 25  1  0
  7 12  1  0
  7  8  1  0
  7 26  1  6
  8  9  1  0
  8 27  1  0
  8 28  1  0
  9 10  1  0
  9 14  1  0
  9 29  1  1
 10 11  1  0
 10 30  1  0
 10 31  1  0
 11 12  1  0
 11 13  1  0
 11 32  1  6
 12 33  1  0
 12 34  1  0
 13 35  1  0
 13 36  1  0
 14 37  1  0
 14 38  1  0
 15 16  1  0
 15 39  1  0
 15 40  1  0
 16 17  1  0
 16 41  1  0
 16 42  1  0
M  CHG  1   4   1
M  END
>  <i_m_ct_stereo_status>  (111) 
1

>  <s_m_source_file>  (111) 
/var/tmp/pbs.5076255.sched01/tmpjtt61wjg/4457_394l_.sdf

>  <i_m_source_file_index>  (111) 
10

>  <i_lp_mmshare_version>  (111) 
48012

>  <i_f3d_flags>  (111) 
0

>  <s_epik_input>  (111) 
W0NIMl0xW0NIMl1PW0NIMl1bQ0gyXVtDSF0xW05IXUMyM1tDSDJdW0NASF00W0NIMl1bQ0BASF0oW0NIMl0zKVtDSDJdW0NASF0oW0NIMl00KVtDSDJdMg==

>  <s_epik_cmdline>  (111) 
J2VwaWtfcHl0aG9uJywgJy1waHQnLCAnMi4wJywgJy1waCcsICc3LjAnLCAnLXRuJywgJzgnLCAnLW1hJywgJzIwMCcsICctaW1hZScsICc8aW5maWxlLm1hZT4nLCAnLW9tYWUnLCAnPG91dGZpbGUubWFlPic=

>  <r_lp_tautomer_probability>  (111) 
1

>  <r_epik_Ionization_Penalty>  (111) 
0.000130264

>  <r_epik_Ionization_Penalty_Charging>  (111) 
0.000130264

>  <r_epik_Ionization_Penalty_Neutral>  (111) 
1.51239e-12

>  <r_epik_State_Penalty>  (111) 
-0

>  <r_epik_Charging_Adjusted_Penalty>  (111) 
0.000130264

>  <i_epik_Tot_Q>  (111) 
1

>  <i_epik_Tot_abs_Q>  (111) 
1

>  <s_lp_Force_Field>  (111) 
OPLS3e

>  <r_lp_Energy>  (111) 
17.2035

>  <b_lp_Chiralities_Consistent>  (111) 
1

>  <s_lp_Variant>  (111) 
41:0-1

>  <s_i_glide_gridfile>  (111) 
pfpi4k_grid

>  <i_i_glide_lignum>  (111) 
10

>  <i_i_glide_rotatable_bonds>  (111) 
2

>  <r_i_docking_score>  (111) 
-2.12049

>  <r_i_glide_ligand_efficiency>  (111) 
-0.124735

>  <r_i_glide_ligand_efficiency_sa>  (111) 
-0.320729

>  <r_i_glide_ligand_efficiency_ln>  (111) 
-0.55319

>  <r_i_glide_gscore>  (111) 
-2.12049

>  <r_i_glide_lipo>  (111) 
-0.476975

>  <r_i_glide_hbond>  (111) 
0

>  <r_i_glide_metal>  (111) 
-0

>  <r_i_glide_rewards>  (111) 
-1.79746

>  <r_i_glide_evdw>  (111) 
-1.6062

>  <r_i_glide_ecoul>  (111) 
-2.54688

>  <r_i_glide_erotb>  (111) 
0.616278

>  <r_i_glide_esite>  (111) 
0

>  <r_i_glide_emodel>  (111) 
-6.16726

>  <r_i_glide_energy>  (111) 
-4.15307

>  <r_i_glide_einternal>  (111) 
0.0478734

>  <r_i_glide_intrahb_reward>  (111) 
-0

>  <i_i_glide_confnum>  (111) 
5

>  <i_i_glide_posenum>  (111) 
1

>  <r_i_glide_eff_state_penalty>  (111) 
0

>  <ligand_id>  (111) 
41

>  <original_smiles>  (111) 
C1CC(NC23CC4CC(CC(C4)C2)C3)CCO1

>  <smiles>  (111) 
[H]C1([H])OC([H])([H])C([H])([H])C([H])([N+]([H])([H])C23C([H])([H])C4([H])C([H])([H])C([H])(C([H])([H])C([H])(C4([H])[H])C2([H])[H])C3([H])[H])C1([H])[H]

$$$$
42:0:0
     RDKit          3D

 96103  0  0  1  0  0  0  0  0999 V2000
    0.3107    0.1367    3.1552 C   0  0  0  0  0  0  0  0  0  0  0  0
    0.2127    1.0270    4.2606 O   0  0  0  0  0  0  0  0  0  0  0  0
    1.2872    1.5553    5.0724 C   0  0  1  0  0  0  0  0  0  0  0  0
    0.4395    2.8313    5.5402 C   0  0  1  0  0  0  0  0  0  0  0  0
   -0.0983    3.6516    4.3024 C   0  0  0  0  0  0  0  0  0  0  0  0
   -1.5668    3.4897    3.8259 C   0  0  1  0  0  0  0  0  0  0  0  0
   -1.6735    2.5361    2.7965 O   0  0  0  0  0  0  0  0  0  0  0  0
   -2.5981    3.1796    4.9104 C   0  0  0  0  0  0  0  0  0  0  0  0
   -2.0370    2.2810    6.0135 C   0  0  0  0  0  0  0  0  0  0  0  0
   -0.7161    2.8246    6.6282 C   0  0  2  0  0  0  0  0  0  0  0  0
   -0.9616    4.3003    7.0890 C   0  0  0  0  0  0  0  0  0  0  0  0
   -0.4898    2.0438    7.9507 C   0  0  0  0  0  0  0  0  0  0  0  0
    0.8126    2.2440    8.7484 C   0  0  0  0  0  0  0  0  0  0  0  0
    2.2415    1.5410    8.5512 C   0  0  2  0  0  0  0  0  0  0  0  0
    2.3045    0.5259    9.7343 C   0  0  0  0  0  0  0  0  0  0  0  0
    3.3068    2.5639    8.8503 C   0  0  2  0  0  0  0  0  0  0  0  0
    3.3065    3.9168    9.4913 C   0  0  1  0  0  0  0  0  0  0  0  0
    4.5428    4.4290   10.2032 C   0  0  0  0  0  0  0  0  0  0  0  0
    3.2038    3.7801    7.9618 C   0  0  1  0  0  0  0  0  0  0  0  0
    4.2170    3.8012    6.8305 C   0  0  1  0  0  0  0  0  0  0  0  0
    5.0774    4.8521    7.2421 O   0  0  0  0  0  0  0  0  0  0  0  0
    4.9785    2.4544    6.6897 C   0  0  0  0  0  0  0  0  0  0  0  0
    6.3396    2.4923    6.7174 C   0  0  0  0  0  0  0  0  0  0  0  0
    7.2975    1.3499    6.4858 C   0  0  0  0  0  0  0  0  0  0  0  0
    6.5796    0.0970    6.0095 C   0  0  0  0  0  0  0  0  0  0  0  0
    5.2336   -0.1216    6.7467 C   0  0  0  0  0  0  0  0  0  0  0  0
    4.8010   -1.5679    6.3631 C   0  0  0  0  0  0  0  0  0  0  0  0
    5.5982   -0.2486    8.2506 C   0  0  0  0  0  0  0  0  0  0  0  0
    4.1894    1.0988    6.4261 C   0  0  1  0  0  0  0  0  0  0  0  0
    2.7195    0.8222    7.1634 C   0  0  2  0  0  0  0  0  0  0  0  0
    1.5990    0.4016    6.1326 C   0  0  1  0  0  0  0  0  0  0  0  0
    0.4455   -0.4841    6.7046 C   0  0  0  0  0  0  0  0  0  0  0  0
    2.1201   -0.7046    5.4277 O   0  0  0  0  0  0  0  0  0  0  0  0
    3.9799    1.2413    4.8708 C   0  0  1  0  0  0  0  0  0  0  0  0
    4.0342    0.0872    4.0739 O   0  0  0  0  0  0  0  0  0  0  0  0
    3.4821    0.4325    2.8603 C   0  0  0  0  0  0  0  0  0  0  0  0
    2.6991    1.5706    3.0192 O   0  0  0  0  0  0  0  0  0  0  0  0
    2.7116    2.0166    4.3703 C   0  0  1  0  0  0  0  0  0  0  0  0
    3.2117    3.5306    4.2371 C   0  0  1  0  0  0  0  0  0  0  0  0
    2.7085    4.3990    3.0480 C   0  0  0  0  0  0  0  0  0  0  0  0
    3.6711    4.3922    5.4674 C   0  0  1  0  0  0  0  0  0  0  0  0
    2.7556    5.4479    5.7014 O   0  0  0  0  0  0  0  0  0  0  0  0
    0.8478   -0.7867    3.3580 H   0  0  0  0  0  0  0  0  0  0  0  0
    0.6991    0.6144    2.2550 H   0  0  0  0  0  0  0  0  0  0  0  0
   -0.7059   -0.1563    2.9021 H   0  0  0  0  0  0  0  0  0  0  0  0
    1.1989    3.4500    5.9896 H   0  0  0  0  0  0  0  0  0  0  0  0
    0.0612    4.7097    4.5031 H   0  0  0  0  0  0  0  0  0  0  0  0
    0.4906    3.4254    3.4227 H   0  0  0  0  0  0  0  0  0  0  0  0
   -1.8706    4.4211    3.3491 H   0  0  0  0  0  0  0  0  0  0  0  0
   -1.1187    2.8114    2.0779 H   0  0  0  0  0  0  0  0  0  0  0  0
   -2.9636    4.1002    5.3553 H   0  0  0  0  0  0  0  0  0  0  0  0
   -3.4729    2.7243    4.4531 H   0  0  0  0  0  0  0  0  0  0  0  0
   -2.7973    2.1666    6.7895 H   0  0  0  0  0  0  0  0  0  0  0  0
   -1.8861    1.2883    5.5971 H   0  0  0  0  0  0  0  0  0  0  0  0
   -1.8146    4.3813    7.7691 H   0  0  0  0  0  0  0  0  0  0  0  0
   -1.1791    4.9725    6.2637 H   0  0  0  0  0  0  0  0  0  0  0  0
   -0.0977    4.7398    7.5887 H   0  0  0  0  0  0  0  0  0  0  0  0
   -1.2430    2.4558    8.6263 H   0  0  0  0  0  0  0  0  0  0  0  0
   -0.8934    1.0468    7.9528 H   0  0  0  0  0  0  0  0  0  0  0  0
    0.8739    3.3133    8.8747 H   0  0  0  0  0  0  0  0  0  0  0  0
    0.4828    1.9973    9.7571 H   0  0  0  0  0  0  0  0  0  0  0  0
    3.2787    0.0748    9.8565 H   0  0  0  0  0  0  0  0  0  0  0  0
    1.5819   -0.2839    9.6408 H   0  0  0  0  0  0  0  0  0  0  0  0
    2.1154    1.0077   10.6939 H   0  0  0  0  0  0  0  0  0  0  0  0
    4.2584    2.0914    9.0531 H   0  0  0  0  0  0  0  0  0  0  0  0
    2.4023    4.2286   10.0032 H   0  0  0  0  0  0  0  0  0  0  0  0
    5.4500    3.9783    9.8027 H   0  0  0  0  0  0  0  0  0  0  0  0
    4.4795    4.1957   11.2664 H   0  0  0  0  0  0  0  0  0  0  0  0
    4.6113    5.5112   10.0947 H   0  0  0  0  0  0  0  0  0  0  0  0
    2.2463    4.1586    7.6441 H   0  0  0  0  0  0  0  0  0  0  0  0
    4.5462    5.6315    7.2917 H   0  0  0  0  0  0  0  0  0  0  0  0
    6.8701    3.4141    6.8833 H   0  0  0  0  0  0  0  0  0  0  0  0
    8.0471    1.6495    5.7520 H   0  0  0  0  0  0  0  0  0  0  0  0
    7.8249    1.1593    7.4202 H   0  0  0  0  0  0  0  0  0  0  0  0
    6.4393    0.1505    4.9312 H   0  0  0  0  0  0  0  0  0  0  0  0
    7.2514   -0.7515    6.1587 H   0  0  0  0  0  0  0  0  0  0  0  0
    3.8952   -1.8996    6.8681 H   0  0  0  0  0  0  0  0  0  0  0  0
    5.5722   -2.2828    6.6587 H   0  0  0  0  0  0  0  0  0  0  0  0
    4.6775   -1.7330    5.2977 H   0  0  0  0  0  0  0  0  0  0  0  0
    4.8289   -0.7635    8.8142 H   0  0  0  0  0  0  0  0  0  0  0  0
    5.8150    0.7035    8.7317 H   0  0  0  0  0  0  0  0  0  0  0  0
    6.4976   -0.8542    8.3836 H   0  0  0  0  0  0  0  0  0  0  0  0
    2.9127   -0.1548    7.5860 H   0  0  0  0  0  0  0  0  0  0  0  0
   -0.5206   -0.2088    6.2949 H   0  0  0  0  0  0  0  0  0  0  0  0
    0.4321   -0.4629    7.7881 H   0  0  0  0  0  0  0  0  0  0  0  0
    0.4991   -1.5626    6.5188 H   0  0  0  0  0  0  0  0  0  0  0  0
    2.8827   -0.4196    4.9216 H   0  0  0  0  0  0  0  0  0  0  0  0
    4.8940    1.6838    4.4785 H   0  0  0  0  0  0  0  0  0  0  0  0
    4.2560    0.6026    2.1121 H   0  0  0  0  0  0  0  0  0  0  0  0
    2.8792   -0.4088    2.5154 H   0  0  0  0  0  0  0  0  0  0  0  0
    4.1825    3.3787    3.7811 H   0  0  0  0  0  0  0  0  0  0  0  0
    1.8885    5.0716    3.2941 H   0  0  0  0  0  0  0  0  0  0  0  0
    2.3988    3.8053    2.1864 H   0  0  0  0  0  0  0  0  0  0  0  0
    3.5083    5.0458    2.6839 H   0  0  0  0  0  0  0  0  0  0  0  0
    4.5186    4.9318    5.0379 H   0  0  0  0  0  0  0  0  0  0  0  0
    2.5819    5.8724    4.8759 H   0  0  0  0  0  0  0  0  0  0  0  0
  1  2  1  0
  1 43  1  0
  1 44  1  0
  1 45  1  0
  3  2  1  6
  3 31  1  0
  3 38  1  0
  3  4  1  0
  4 10  1  0
  4  5  1  0
  4 46  1  1
  5  6  1  0
  5 47  1  0
  5 48  1  0
  6  7  1  0
  6  8  1  0
  6 49  1  6
  7 50  1  0
  8  9  1  0
  8 51  1  0
  8 52  1  0
  9 10  1  0
  9 53  1  0
  9 54  1  0
 10 11  1  1
 10 12  1  0
 11 55  1  0
 11 56  1  0
 11 57  1  0
 12 13  1  0
 12 58  1  0
 12 59  1  0
 13 14  1  0
 13 60  1  0
 13 61  1  0
 14 30  1  0
 14 15  1  1
 14 16  1  0
 15 62  1  0
 15 63  1  0
 15 64  1  0
 16 19  1  0
 16 17  1  0
 16 65  1  6
 17 18  1  0
 17 19  1  0
 17 66  1  1
 18 67  1  0
 18 68  1  0
 18 69  1  0
 19 20  1  0
 19 70  1  6
 20 41  1  0
 20 21  1  1
 20 22  1  0
 21 71  1  0
 22 29  1  0
 22 23  2  0
 23 24  1  0
 23 72  1  0
 24 25  1  0
 24 73  1  0
 24 74  1  0
 25 26  1  0
 25 75  1  0
 25 76  1  0
 26 27  1  0
 26 28  1  0
 29 26  1  6
 27 77  1  0
 27 78  1  0
 27 79  1  0
 28 80  1  0
 28 81  1  0
 28 82  1  0
 29 30  1  0
 29 34  1  0
 30 31  1  0
 30 83  1  1
 31 32  1  0
 31 33  1  6
 32 84  1  0
 32 85  1  0
 32 86  1  0
 33 87  1  0
 34 38  1  0
 34 35  1  0
 34 88  1  6
 35 36  1  0
 36 37  1  0
 36 89  1  0
 36 90  1  0
 38 37  1  6
 38 39  1  0
 39 40  1  0
 39 41  1  0
 39 91  1  6
 40 92  1  0
 40 93  1  0
 40 94  1  0
 41 42  1  0
 41 95  1  6
 42 96  1  0
M  END
>  <i_m_ct_stereo_status>  (112) 
1

>  <s_m_source_file>  (112) 
/var/tmp/pbs.5076255.sched01/tmpjtt61wjg/4457_394l_.sdf

>  <i_m_source_file_index>  (112) 
11

>  <i_lp_mmshare_version>  (112) 
48012

>  <i_f3d_flags>  (112) 
0

>  <s_epik_input>  (112) 
W0NIMl0xW0NAQEhdKFtPSF0pW0NIMl1bQ0gyXVtDQEBdKFtDSDNdKShbQ0gyXVtDSDJdMilbQ0BIXTFbQ0BAXShPW0NIM10pKFtDQF0zKFtDQEBIXTRPW0NIMl1PMylbQ0BASF0oW0NIM10pW0NASF01W09IXSlbQ0BAXShbQ0gzXSkoW09IXSlbQ0hdNltDQEBdMihbQ0gzXSlbQ0BIXShbQ0BIXTdbQ0gzXSlbQ0BASF03W0NAQF01KFtPSF0pQyhbQ0BdNDY4KT1bQ0hdW0NIMl1bQ0gyXUM4KFtDSDNdKVtDSDNd

>  <s_epik_cmdline>  (112) 
J2VwaWtfcHl0aG9uJywgJy1waHQnLCAnMi4wJywgJy1waCcsICc3LjAnLCAnLXRuJywgJzgnLCAnLW1hJywgJzIwMCcsICctaW1hZScsICc8aW5maWxlLm1hZT4nLCAnLW9tYWUnLCAnPG91dGZpbGUubWFlPic=

>  <r_lp_tautomer_probability>  (112) 
1

>  <r_epik_Ionization_Penalty>  (112) 
1.48829e-06

>  <r_epik_Ionization_Penalty_Charging>  (112) 
0

>  <r_epik_Ionization_Penalty_Neutral>  (112) 
1.48829e-06

>  <r_epik_State_Penalty>  (112) 
-0

>  <r_epik_Charging_Adjusted_Penalty>  (112) 
0

>  <i_epik_Tot_Q>  (112) 
0

>  <i_epik_Tot_abs_Q>  (112) 
0

>  <s_epik_Chemistry_Notes>  (112) 
This compound contains an acetal/aminal-like group ( X-CH(R)-Y where X, Y are N, S, or O) that may be acid/base labile, releasing an aldehyde.

>  <s_lp_Force_Field>  (112) 
OPLS3e

>  <r_lp_Energy>  (112) 
240.193

>  <b_lp_Chiralities_Consistent>  (112) 
1

>  <s_lp_Variant>  (112) 
42:0-1

>  <s_i_glide_gridfile>  (112) 
pfpi4k_grid

>  <i_i_glide_lignum>  (112) 
11

>  <i_i_glide_rotatable_bonds>  (112) 
5

>  <r_i_docking_score>  (112) 
-1.33817

>  <r_i_glide_ligand_efficiency>  (112) 
-0.0318613

>  <r_i_glide_ligand_efficiency_sa>  (112) 
-0.110751

>  <r_i_glide_ligand_efficiency_ln>  (112) 
-0.282454

>  <r_i_glide_gscore>  (112) 
-1.33817

>  <r_i_glide_lipo>  (112) 
-0.284837

>  <r_i_glide_hbond>  (112) 
0

>  <r_i_glide_metal>  (112) 
-0

>  <r_i_glide_rewards>  (112) 
-0.017558

>  <r_i_glide_evdw>  (112) 
-21.3555

>  <r_i_glide_ecoul>  (112) 
0.213304

>  <r_i_glide_erotb>  (112) 
0

>  <r_i_glide_esite>  (112) 
0

>  <r_i_glide_emodel>  (112) 
-21.8293

>  <r_i_glide_energy>  (112) 
-21.1422

>  <r_i_glide_einternal>  (112) 
0.878059

>  <r_i_glide_intrahb_reward>  (112) 
-0

>  <i_i_glide_confnum>  (112) 
2

>  <i_i_glide_posenum>  (112) 
37

>  <r_i_glide_eff_state_penalty>  (112) 
0

>  <ligand_id>  (112) 
42

>  <original_smiles>  (112) 
COC12C3CC(O)CCC3(C)CCC3(C)C4C(C)C4C4(O)C5=CCCC(C)(C)C5(C3C1(C)O)C1OCOC12C(C)C4O

>  <smiles>  (112) 
[H]OC1([H])C([H])([H])C([H])([H])C2(C([H])([H])[H])C([H])([H])C([H])([H])C3(C([H])([H])[H])C4([H])C([H])(C([H])([H])[H])C4([H])C4(O[H])C5=C([H])C([H])([H])C([H])([H])C(C([H])([H])[H])(C([H])([H])[H])C56C5([H])OC([H])([H])OC5(C([H])(C([H])([H])[H])C4([H])O[H])C(OC([H])([H])[H])(C2([H])C1([H])[H])C(O[H])(C([H])([H])[H])C63[H]

$$$$
42:0:1
     RDKit          3D

 96103  0  0  1  0  0  0  0  0999 V2000
    0.2027    0.3479    2.9641 C   0  0  0  0  0  0  0  0  0  0  0  0
    0.0974    1.0443    4.2016 O   0  0  0  0  0  0  0  0  0  0  0  0
    1.1693    1.4325    5.0888 C   0  0  1  0  0  0  0  0  0  0  0  0
    0.3661    2.6887    5.6721 C   0  0  1  0  0  0  0  0  0  0  0  0
   -0.0834    3.6668    4.5202 C   0  0  0  0  0  0  0  0  0  0  0  0
   -1.5428    3.6387    3.9860 C   0  0  1  0  0  0  0  0  0  0  0  0
   -1.6602    2.8192    2.8483 O   0  0  0  0  0  0  0  0  0  0  0  0
   -2.6301    3.2606    4.9927 C   0  0  0  0  0  0  0  0  0  0  0  0
   -2.1515    2.2192    6.0043 C   0  0  0  0  0  0  0  0  0  0  0  0
   -0.8292    2.6224    6.7153 C   0  0  2  0  0  0  0  0  0  0  0  0
   -1.0199    4.0499    7.3330 C   0  0  0  0  0  0  0  0  0  0  0  0
   -0.6892    1.6881    7.9462 C   0  0  0  0  0  0  0  0  0  0  0  0
    0.5905    1.7251    8.8033 C   0  0  0  0  0  0  0  0  0  0  0  0
    1.9887    0.9717    8.5732 C   0  0  2  0  0  0  0  0  0  0  0  0
    1.9551   -0.1709    9.6337 C   0  0  0  0  0  0  0  0  0  0  0  0
    3.0891    1.8939    9.0211 C   0  0  2  0  0  0  0  0  0  0  0  0
    3.1338    3.1645    9.8130 C   0  0  1  0  0  0  0  0  0  0  0  0
    4.3634    3.5274   10.6194 C   0  0  0  0  0  0  0  0  0  0  0  0
    3.0816    3.2082    8.2746 C   0  0  1  0  0  0  0  0  0  0  0  0
    4.1373    3.3080    7.1920 C   0  0  1  0  0  0  0  0  0  0  0  0
    5.0433    4.2437    7.7701 O   0  0  0  0  0  0  0  0  0  0  0  0
    4.8342    1.9468    6.9188 C   0  0  0  0  0  0  0  0  0  0  0  0
    6.1946    1.9054    6.9937 C   0  0  0  0  0  0  0  0  0  0  0  0
    7.0996    0.7461    6.6688 C   0  0  0  0  0  0  0  0  0  0  0  0
    6.3408   -0.4118    6.0428 C   0  0  0  0  0  0  0  0  0  0  0  0
    4.9553   -0.6333    6.6961 C   0  0  0  0  0  0  0  0  0  0  0  0
    4.4698   -2.0025    6.1337 C   0  0  0  0  0  0  0  0  0  0  0  0
    5.2570   -0.9492    8.1863 C   0  0  0  0  0  0  0  0  0  0  0  0
    3.9911    0.6714    6.4796 C   0  0  1  0  0  0  0  0  0  0  0  0
    2.4813    0.3905    7.1281 C   0  0  2  0  0  0  0  0  0  0  0  0
    1.3824    0.1496    6.0182 C   0  0  1  0  0  0  0  0  0  0  0  0
    0.1676   -0.7328    6.4505 C   0  0  0  0  0  0  0  0  0  0  0  0
    1.8676   -0.8939    5.1991 O   0  0  0  0  0  0  0  0  0  0  0  0
    3.8521    0.9950    4.9432 C   0  0  1  0  0  0  0  0  0  0  0  0
    3.8798   -0.0652    4.0225 O   0  0  0  0  0  0  0  0  0  0  0  0
    3.4058    0.4463    2.8351 C   0  0  0  0  0  0  0  0  0  0  0  0
    2.6708    1.5976    3.0953 O   0  0  0  0  0  0  0  0  0  0  0  0
    2.6449    1.8880    4.4896 C   0  0  1  0  0  0  0  0  0  0  0  0
    3.2297    3.3758    4.5424 C   0  0  1  0  0  0  0  0  0  0  0  0
    2.8067    4.3977    3.4470 C   0  0  0  0  0  0  0  0  0  0  0  0
    3.6687    4.0724    5.8814 C   0  0  1  0  0  0  0  0  0  0  0  0
    2.7685    5.1231    6.1844 O   0  0  0  0  0  0  0  0  0  0  0  0
    0.7103   -0.6111    3.0335 H   0  0  0  0  0  0  0  0  0  0  0  0
    0.6313    0.9565    2.1671 H   0  0  0  0  0  0  0  0  0  0  0  0
   -0.8145    0.1456    2.6381 H   0  0  0  0  0  0  0  0  0  0  0  0
    1.1385    3.2073    6.2156 H   0  0  0  0  0  0  0  0  0  0  0  0
    0.1224    4.6845    4.8457 H   0  0  0  0  0  0  0  0  0  0  0  0
    0.5248    3.5063    3.6394 H   0  0  0  0  0  0  0  0  0  0  0  0
   -1.7784    4.6326    3.6086 H   0  0  0  0  0  0  0  0  0  0  0  0
   -1.0837    3.1562    2.1727 H   0  0  0  0  0  0  0  0  0  0  0  0
   -2.9650    4.1404    5.5341 H   0  0  0  0  0  0  0  0  0  0  0  0
   -3.5151    2.9115    4.4647 H   0  0  0  0  0  0  0  0  0  0  0  0
   -2.9421    2.0579    6.7394 H   0  0  0  0  0  0  0  0  0  0  0  0
   -2.0330    1.2717    5.4812 H   0  0  0  0  0  0  0  0  0  0  0  0
   -1.8915    4.0920    7.9938 H   0  0  0  0  0  0  0  0  0  0  0  0
   -1.1804    4.8326    6.5917 H   0  0  0  0  0  0  0  0  0  0  0  0
   -0.1537    4.3795    7.9070 H   0  0  0  0  0  0  0  0  0  0  0  0
   -1.4459    2.0602    8.6409 H   0  0  0  0  0  0  0  0  0  0  0  0
   -1.1370    0.7194    7.8194 H   0  0  0  0  0  0  0  0  0  0  0  0
    0.7005    2.7683    9.0530 H   0  0  0  0  0  0  0  0  0  0  0  0
    0.2107    1.3839    9.7658 H   0  0  0  0  0  0  0  0  0  0  0  0
    2.9013   -0.6832    9.7371 H   0  0  0  0  0  0  0  0  0  0  0  0
    1.1986   -0.9263    9.4274 H   0  0  0  0  0  0  0  0  0  0  0  0
    1.7546    0.2106   10.6363 H   0  0  0  0  0  0  0  0  0  0  0  0
    4.0114    1.3518    9.2001 H   0  0  0  0  0  0  0  0  0  0  0  0
    2.2257    3.4674   10.3258 H   0  0  0  0  0  0  0  0  0  0  0  0
    5.2630    3.0787   10.2008 H   0  0  0  0  0  0  0  0  0  0  0  0
    4.2480    3.1830   11.6474 H   0  0  0  0  0  0  0  0  0  0  0  0
    4.4880    4.6104   10.6331 H   0  0  0  0  0  0  0  0  0  0  0  0
    2.1566    3.6747    7.9740 H   0  0  0  0  0  0  0  0  0  0  0  0
    5.6973    4.4687    7.1341 H   0  0  0  0  0  0  0  0  0  0  0  0
    6.7720    2.7663    7.2857 H   0  0  0  0  0  0  0  0  0  0  0  0
    7.8885    1.0821    5.9928 H   0  0  0  0  0  0  0  0  0  0  0  0
    7.5836    0.4302    7.5940 H   0  0  0  0  0  0  0  0  0  0  0  0
    6.2464   -0.2436    4.9711 H   0  0  0  0  0  0  0  0  0  0  0  0
    6.9590   -1.3074    6.1164 H   0  0  0  0  0  0  0  0  0  0  0  0
    3.5292   -2.3423    6.5658 H   0  0  0  0  0  0  0  0  0  0  0  0
    5.1948   -2.7849    6.3704 H   0  0  0  0  0  0  0  0  0  0  0  0
    4.3824   -2.0412    5.0526 H   0  0  0  0  0  0  0  0  0  0  0  0
    4.4427   -1.4836    8.6613 H   0  0  0  0  0  0  0  0  0  0  0  0
    5.5049   -0.0677    8.7775 H   0  0  0  0  0  0  0  0  0  0  0  0
    6.1201   -1.6119    8.2748 H   0  0  0  0  0  0  0  0  0  0  0  0
    2.6083   -0.6373    7.4398 H   0  0  0  0  0  0  0  0  0  0  0  0
   -0.7694   -0.3663    6.0455 H   0  0  0  0  0  0  0  0  0  0  0  0
    0.1175   -0.8326    7.5285 H   0  0  0  0  0  0  0  0  0  0  0  0
    0.1783   -1.7858    6.1462 H   0  0  0  0  0  0  0  0  0  0  0  0
    2.6651   -0.6012    4.7614 H   0  0  0  0  0  0  0  0  0  0  0  0
    4.8020    1.4274    4.6306 H   0  0  0  0  0  0  0  0  0  0  0  0
    4.2232    0.6620    2.1474 H   0  0  0  0  0  0  0  0  0  0  0  0
    2.7766   -0.3158    2.3703 H   0  0  0  0  0  0  0  0  0  0  0  0
    4.2082    3.2268    4.0909 H   0  0  0  0  0  0  0  0  0  0  0  0
    2.0109    5.0758    3.7457 H   0  0  0  0  0  0  0  0  0  0  0  0
    2.5016    3.9218    2.5142 H   0  0  0  0  0  0  0  0  0  0  0  0
    3.6482    5.0426    3.1866 H   0  0  0  0  0  0  0  0  0  0  0  0
    4.5527    4.6207    5.5522 H   0  0  0  0  0  0  0  0  0  0  0  0
    2.6885    5.6732    5.4248 H   0  0  0  0  0  0  0  0  0  0  0  0
  1  2  1  0
  1 43  1  0
  1 44  1  0
  1 45  1  0
  3  2  1  6
  3 31  1  0
  3 38  1  0
  3  4  1  0
  4 10  1  0
  4  5  1  0
  4 46  1  1
  5  6  1  0
  5 47  1  0
  5 48  1  0
  6  7  1  0
  6  8  1  0
  6 49  1  6
  7 50  1  0
  8  9  1  0
  8 51  1  0
  8 52  1  0
  9 10  1  0
  9 53  1  0
  9 54  1  0
 10 11  1  1
 10 12  1  0
 11 55  1  0
 11 56  1  0
 11 57  1  0
 12 13  1  0
 12 58  1  0
 12 59  1  0
 13 14  1  0
 13 60  1  0
 13 61  1  0
 14 30  1  0
 14 15  1  1
 14 16  1  0
 15 62  1  0
 15 63  1  0
 15 64  1  0
 16 19  1  0
 16 17  1  0
 16 65  1  6
 17 18  1  0
 17 19  1  0
 17 66  1  1
 18 67  1  0
 18 68  1  0
 18 69  1  0
 19 20  1  0
 19 70  1  1
 20 41  1  0
 20 21  1  1
 20 22  1  0
 21 71  1  0
 22 29  1  0
 22 23  2  0
 23 24  1  0
 23 72  1  0
 24 25  1  0
 24 73  1  0
 24 74  1  0
 25 26  1  0
 25 75  1  0
 25 76  1  0
 26 27  1  0
 26 28  1  0
 29 26  1  6
 27 77  1  0
 27 78  1  0
 27 79  1  0
 28 80  1  0
 28 81  1  0
 28 82  1  0
 29 30  1  0
 29 34  1  0
 30 31  1  0
 30 83  1  1
 31 32  1  0
 31 33  1  6
 32 84  1  0
 32 85  1  0
 32 86  1  0
 33 87  1  0
 34 38  1  0
 34 35  1  0
 34 88  1  6
 35 36  1  0
 36 37  1  0
 36 89  1  0
 36 90  1  0
 38 37  1  6
 38 39  1  0
 39 40  1  0
 39 41  1  0
 39 91  1  6
 40 92  1  0
 40 93  1  0
 40 94  1  0
 41 42  1  0
 41 95  1  6
 42 96  1  0
M  END
>  <i_m_ct_stereo_status>  (113) 
1

>  <s_m_source_file>  (113) 
/var/tmp/pbs.5076255.sched01/tmpjtt61wjg/4457_394l_.sdf

>  <i_m_source_file_index>  (113) 
11

>  <i_lp_mmshare_version>  (113) 
48012

>  <i_f3d_flags>  (113) 
0

>  <s_epik_input>  (113) 
W0NIMl0xW0NAQEhdKFtPSF0pW0NIMl1bQ0gyXVtDQEBdKFtDSDNdKShbQ0gyXVtDSDJdMilbQ0BIXTFbQ0BAXShPW0NIM10pKFtDQF0zKFtDQEBIXTRPW0NIMl1PMylbQ0BASF0oW0NIM10pW0NASF01W09IXSlbQ0BAXShbQ0gzXSkoW09IXSlbQ0hdNltDQEBdMihbQ0gzXSlbQ0BIXShbQ0BIXTdbQ0gzXSlbQ0BASF03W0NAQF01KFtPSF0pQyhbQ0BdNDY4KT1bQ0hdW0NIMl1bQ0gyXUM4KFtDSDNdKVtDSDNd

>  <s_epik_cmdline>  (113) 
J2VwaWtfcHl0aG9uJywgJy1waHQnLCAnMi4wJywgJy1waCcsICc3LjAnLCAnLXRuJywgJzgnLCAnLW1hJywgJzIwMCcsICctaW1hZScsICc8aW5maWxlLm1hZT4nLCAnLW9tYWUnLCAnPG91dGZpbGUubWFlPic=

>  <r_lp_tautomer_probability>  (113) 
1

>  <r_epik_Ionization_Penalty>  (113) 
1.48829e-06

>  <r_epik_Ionization_Penalty_Charging>  (113) 
0

>  <r_epik_Ionization_Penalty_Neutral>  (113) 
1.48829e-06

>  <r_epik_State_Penalty>  (113) 
-0

>  <r_epik_Charging_Adjusted_Penalty>  (113) 
0

>  <i_epik_Tot_Q>  (113) 
0

>  <i_epik_Tot_abs_Q>  (113) 
0

>  <s_epik_Chemistry_Notes>  (113) 
This compound contains an acetal/aminal-like group ( X-CH(R)-Y where X, Y are N, S, or O) that may be acid/base labile, releasing an aldehyde.

>  <s_lp_Force_Field>  (113) 
OPLS3e

>  <r_lp_Energy>  (113) 
240.193

>  <b_lp_Chiralities_Consistent>  (113) 
1

>  <s_lp_Variant>  (113) 
42:0-1

>  <s_i_glide_gridfile>  (113) 
pfpi4k_grid

>  <i_i_glide_lignum>  (113) 
11

>  <i_i_glide_rotatable_bonds>  (113) 
5

>  <r_i_docking_score>  (113) 
-1.28414

>  <r_i_glide_ligand_efficiency>  (113) 
-0.0305747

>  <r_i_glide_ligand_efficiency_sa>  (113) 
-0.106278

>  <r_i_glide_ligand_efficiency_ln>  (113) 
-0.271048

>  <r_i_glide_gscore>  (113) 
-1.28414

>  <r_i_glide_lipo>  (113) 
-0.231015

>  <r_i_glide_hbond>  (113) 
0

>  <r_i_glide_metal>  (113) 
-0

>  <r_i_glide_rewards>  (113) 
-0.0261303

>  <r_i_glide_evdw>  (113) 
-21.3938

>  <r_i_glide_ecoul>  (113) 
0.284662

>  <r_i_glide_erotb>  (113) 
0

>  <r_i_glide_esite>  (113) 
0

>  <r_i_glide_emodel>  (113) 
-21.5684

>  <r_i_glide_energy>  (113) 
-21.1091

>  <r_i_glide_einternal>  (113) 
0.841454

>  <r_i_glide_intrahb_reward>  (113) 
-0

>  <i_i_glide_confnum>  (113) 
2

>  <i_i_glide_posenum>  (113) 
6

>  <r_i_glide_eff_state_penalty>  (113) 
0

>  <ligand_id>  (113) 
42

>  <original_smiles>  (113) 
COC12C3CC(O)CCC3(C)CCC3(C)C4C(C)C4C4(O)C5=CCCC(C)(C)C5(C3C1(C)O)C1OCOC12C(C)C4O

>  <smiles>  (113) 
[H]OC1([H])C([H])([H])C([H])([H])C2(C([H])([H])[H])C([H])([H])C([H])([H])C3(C([H])([H])[H])C4([H])C([H])(C([H])([H])[H])C4([H])C4(O[H])C5=C([H])C([H])([H])C([H])([H])C(C([H])([H])[H])(C([H])([H])[H])C56C5([H])OC([H])([H])OC5(C([H])(C([H])([H])[H])C4([H])O[H])C(OC([H])([H])[H])(C2([H])C1([H])[H])C(O[H])(C([H])([H])[H])C63[H]

$$$$
42:0:2
     RDKit          3D

 96103  0  0  1  0  0  0  0  0999 V2000
    0.2955    0.2285    3.1721 C   0  0  0  0  0  0  0  0  0  0  0  0
    0.2066    1.0794    4.3089 O   0  0  0  0  0  0  0  0  0  0  0  0
    1.2910    1.5930    5.1182 C   0  0  1  0  0  0  0  0  0  0  0  0
    0.4515    2.8624    5.6174 C   0  0  1  0  0  0  0  0  0  0  0  0
   -0.0944    3.7071    4.3996 C   0  0  0  0  0  0  0  0  0  0  0  0
   -1.5684    3.5608    3.9334 C   0  0  1  0  0  0  0  0  0  0  0  0
   -1.6918    2.6323    2.8761 O   0  0  0  0  0  0  0  0  0  0  0  0
   -2.5914    3.2335    5.0222 C   0  0  0  0  0  0  0  0  0  0  0  0
   -2.0223    2.3118    6.1035 C   0  0  0  0  0  0  0  0  0  0  0  0
   -0.6933    2.8386    6.7165 C   0  0  2  0  0  0  0  0  0  0  0  0
   -0.9293    4.3056    7.2077 C   0  0  0  0  0  0  0  0  0  0  0  0
   -0.4565    2.0307    8.0203 C   0  0  0  0  0  0  0  0  0  0  0  0
    0.8539    2.2117    8.8100 C   0  0  0  0  0  0  0  0  0  0  0  0
    2.2782    1.5075    8.5864 C   0  0  2  0  0  0  0  0  0  0  0  0
    2.3492    0.4702    9.7497 C   0  0  0  0  0  0  0  0  0  0  0  0
    3.3509    2.5200    8.8962 C   0  0  2  0  0  0  0  0  0  0  0  0
    3.3588    3.8609    9.5630 C   0  0  1  0  0  0  0  0  0  0  0  0
    4.6031    4.3562   10.2746 C   0  0  0  0  0  0  0  0  0  0  0  0
    3.2399    3.7550    8.0324 C   0  0  1  0  0  0  0  0  0  0  0  0
    4.2418    3.8038    6.8946 C   0  0  1  0  0  0  0  0  0  0  0  0
    5.1090    4.8470    7.3312 O   0  0  0  0  0  0  0  0  0  0  0  0
    5.0017    2.4569    6.7200 C   0  0  0  0  0  0  0  0  0  0  0  0
    6.3633    2.4869    6.7374 C   0  0  0  0  0  0  0  0  0  0  0  0
    7.3139    1.3445    6.4732 C   0  0  0  0  0  0  0  0  0  0  0  0
    6.5895    0.1015    5.9797 C   0  0  0  0  0  0  0  0  0  0  0  0
    5.2494   -0.1259    6.7247 C   0  0  0  0  0  0  0  0  0  0  0  0
    4.8089   -1.5647    6.3175 C   0  0  0  0  0  0  0  0  0  0  0  0
    5.6273   -0.2844    8.2223 C   0  0  0  0  0  0  0  0  0  0  0  0
    4.2069    1.1047    6.4380 C   0  0  1  0  0  0  0  0  0  0  0  0
    2.7427    0.8164    7.1814 C   0  0  2  0  0  0  0  0  0  0  0  0
    1.6107    0.4183    6.1527 C   0  0  1  0  0  0  0  0  0  0  0  0
    0.4609   -0.4749    6.7178 C   0  0  0  0  0  0  0  0  0  0  0  0
    2.1205   -0.6755    5.4189 O   0  0  0  0  0  0  0  0  0  0  0  0
    3.9828    1.2759    4.8875 C   0  0  1  0  0  0  0  0  0  0  0  0
    4.0268    0.1369    4.0673 O   0  0  0  0  0  0  0  0  0  0  0  0
    3.4688    0.5069    2.8637 C   0  0  0  0  0  0  0  0  0  0  0  0
    2.6894    1.6423    3.0519 O   0  0  0  0  0  0  0  0  0  0  0  0
    2.7115    2.0626    4.4112 C   0  0  1  0  0  0  0  0  0  0  0  0
    3.2183    3.5761    4.3027 C   0  0  1  0  0  0  0  0  0  0  0  0
    2.7064    4.4679    3.1346 C   0  0  0  0  0  0  0  0  0  0  0  0
    3.6799    4.4158    5.5450 C   0  0  1  0  0  0  0  0  0  0  0  0
    2.7674    5.4664    5.8060 O   0  0  0  0  0  0  0  0  0  0  0  0
    0.8430   -0.6959    3.3389 H   0  0  0  0  0  0  0  0  0  0  0  0
    0.6697    0.7407    2.2849 H   0  0  0  0  0  0  0  0  0  0  0  0
   -0.7223   -0.0634    2.9204 H   0  0  0  0  0  0  0  0  0  0  0  0
    1.2183    3.4692    6.0706 H   0  0  0  0  0  0  0  0  0  0  0  0
    0.0751    4.7600    4.6206 H   0  0  0  0  0  0  0  0  0  0  0  0
    0.4872    3.4958    3.5111 H   0  0  0  0  0  0  0  0  0  0  0  0
   -1.8699    4.5039    3.4807 H   0  0  0  0  0  0  0  0  0  0  0  0
   -1.1317    2.9105    2.1665 H   0  0  0  0  0  0  0  0  0  0  0  0
   -2.9521    4.1456    5.4900 H   0  0  0  0  0  0  0  0  0  0  0  0
   -3.4701    2.7911    4.5583 H   0  0  0  0  0  0  0  0  0  0  0  0
   -2.7750    2.1817    6.8849 H   0  0  0  0  0  0  0  0  0  0  0  0
   -1.8772    1.3279    5.6642 H   0  0  0  0  0  0  0  0  0  0  0  0
   -1.7767    4.3741    7.8959 H   0  0  0  0  0  0  0  0  0  0  0  0
   -1.1504    4.9945    6.3972 H   0  0  0  0  0  0  0  0  0  0  0  0
   -0.0590    4.7305    7.7092 H   0  0  0  0  0  0  0  0  0  0  0  0
   -1.2016    2.4324    8.7110 H   0  0  0  0  0  0  0  0  0  0  0  0
   -0.8627    1.0349    8.0071 H   0  0  0  0  0  0  0  0  0  0  0  0
    0.9198    3.2777    8.9575 H   0  0  0  0  0  0  0  0  0  0  0  0
    0.5330    1.9457    9.8166 H   0  0  0  0  0  0  0  0  0  0  0  0
    3.3233    0.0144    9.8548 H   0  0  0  0  0  0  0  0  0  0  0  0
    1.6232   -0.3354    9.6475 H   0  0  0  0  0  0  0  0  0  0  0  0
    2.1701    0.9346   10.7198 H   0  0  0  0  0  0  0  0  0  0  0  0
    4.3043    2.0404    9.0821 H   0  0  0  0  0  0  0  0  0  0  0  0
    2.4605    4.1667   10.0885 H   0  0  0  0  0  0  0  0  0  0  0  0
    5.5060    3.9118    9.8578 H   0  0  0  0  0  0  0  0  0  0  0  0
    4.5483    4.1045   11.3343 H   0  0  0  0  0  0  0  0  0  0  0  0
    4.6727    5.4397   10.1838 H   0  0  0  0  0  0  0  0  0  0  0  0
    2.2793    4.1419    7.7313 H   0  0  0  0  0  0  0  0  0  0  0  0
    5.7464    5.0169    6.6571 H   0  0  0  0  0  0  0  0  0  0  0  0
    6.9029    3.3992    6.9241 H   0  0  0  0  0  0  0  0  0  0  0  0
    8.0583    1.6538    5.7381 H   0  0  0  0  0  0  0  0  0  0  0  0
    7.8494    1.1321    7.3985 H   0  0  0  0  0  0  0  0  0  0  0  0
    6.4399    0.1754    4.9039 H   0  0  0  0  0  0  0  0  0  0  0  0
    7.2601   -0.7516    6.1078 H   0  0  0  0  0  0  0  0  0  0  0  0
    3.9064   -1.9035    6.8242 H   0  0  0  0  0  0  0  0  0  0  0  0
    5.5813   -2.2867    6.5925 H   0  0  0  0  0  0  0  0  0  0  0  0
    4.6762   -1.7099    5.2501 H   0  0  0  0  0  0  0  0  0  0  0  0
    4.8607   -0.8083    8.7822 H   0  0  0  0  0  0  0  0  0  0  0  0
    5.8510    0.6579    8.7194 H   0  0  0  0  0  0  0  0  0  0  0  0
    6.5261   -0.8954    8.3345 H   0  0  0  0  0  0  0  0  0  0  0  0
    2.9357   -0.1701    7.5819 H   0  0  0  0  0  0  0  0  0  0  0  0
   -0.5087   -0.1899    6.3226 H   0  0  0  0  0  0  0  0  0  0  0  0
    0.4576   -0.4747    7.8012 H   0  0  0  0  0  0  0  0  0  0  0  0
    0.5114   -1.5495    6.5106 H   0  0  0  0  0  0  0  0  0  0  0  0
    2.8806   -0.3844    4.9147 H   0  0  0  0  0  0  0  0  0  0  0  0
    4.8943    1.7213    4.4926 H   0  0  0  0  0  0  0  0  0  0  0  0
    4.2363    0.6923    2.1146 H   0  0  0  0  0  0  0  0  0  0  0  0
    2.8601   -0.3256    2.5078 H   0  0  0  0  0  0  0  0  0  0  0  0
    4.1864    3.4320    3.8372 H   0  0  0  0  0  0  0  0  0  0  0  0
    1.8970    5.1412    3.4130 H   0  0  0  0  0  0  0  0  0  0  0  0
    2.3829    3.8951    2.2643 H   0  0  0  0  0  0  0  0  0  0  0  0
    3.5052    5.1211    2.7799 H   0  0  0  0  0  0  0  0  0  0  0  0
    4.5218    4.9634    5.1167 H   0  0  0  0  0  0  0  0  0  0  0  0
    3.2068    6.0904    6.3636 H   0  0  0  0  0  0  0  0  0  0  0  0
  1  2  1  0
  1 43  1  0
  1 44  1  0
  1 45  1  0
  3  2  1  6
  3 31  1  0
  3 38  1  0
  3  4  1  0
  4 10  1  0
  4  5  1  0
  4 46  1  1
  5  6  1  0
  5 47  1  0
  5 48  1  0
  6  7  1  0
  6  8  1  0
  6 49  1  6
  7 50  1  0
  8  9  1  0
  8 51  1  0
  8 52  1  0
  9 10  1  0
  9 53  1  0
  9 54  1  0
 10 11  1  1
 10 12  1  0
 11 55  1  0
 11 56  1  0
 11 57  1  0
 12 13  1  0
 12 58  1  0
 12 59  1  0
 13 14  1  0
 13 60  1  0
 13 61  1  0
 14 30  1  0
 14 15  1  1
 14 16  1  0
 15 62  1  0
 15 63  1  0
 15 64  1  0
 16 19  1  0
 16 17  1  0
 16 65  1  6
 17 18  1  0
 17 19  1  0
 17 66  1  1
 18 67  1  0
 18 68  1  0
 18 69  1  0
 19 20  1  0
 19 70  1  6
 20 41  1  0
 20 21  1  1
 20 22  1  0
 21 71  1  0
 22 29  1  0
 22 23  2  0
 23 24  1  0
 23 72  1  0
 24 25  1  0
 24 73  1  0
 24 74  1  0
 25 26  1  0
 25 75  1  0
 25 76  1  0
 26 27  1  0
 26 28  1  0
 29 26  1  6
 27 77  1  0
 27 78  1  0
 27 79  1  0
 28 80  1  0
 28 81  1  0
 28 82  1  0
 29 30  1  0
 29 34  1  0
 30 31  1  0
 30 83  1  1
 31 32  1  0
 31 33  1  6
 32 84  1  0
 32 85  1  0
 32 86  1  0
 33 87  1  0
 34 38  1  0
 34 35  1  0
 34 88  1  6
 35 36  1  0
 36 37  1  0
 36 89  1  0
 36 90  1  0
 38 37  1  6
 38 39  1  0
 39 40  1  0
 39 41  1  0
 39 91  1  6
 40 92  1  0
 40 93  1  0
 40 94  1  0
 41 42  1  0
 41 95  1  6
 42 96  1  0
M  END
>  <i_m_ct_stereo_status>  (114) 
1

>  <s_m_source_file>  (114) 
/var/tmp/pbs.5076255.sched01/tmpjtt61wjg/4457_394l_.sdf

>  <i_m_source_file_index>  (114) 
11

>  <i_lp_mmshare_version>  (114) 
48012

>  <i_f3d_flags>  (114) 
0

>  <s_epik_input>  (114) 
W0NIMl0xW0NAQEhdKFtPSF0pW0NIMl1bQ0gyXVtDQEBdKFtDSDNdKShbQ0gyXVtDSDJdMilbQ0BIXTFbQ0BAXShPW0NIM10pKFtDQF0zKFtDQEBIXTRPW0NIMl1PMylbQ0BASF0oW0NIM10pW0NASF01W09IXSlbQ0BAXShbQ0gzXSkoW09IXSlbQ0hdNltDQEBdMihbQ0gzXSlbQ0BIXShbQ0BIXTdbQ0gzXSlbQ0BASF03W0NAQF01KFtPSF0pQyhbQ0BdNDY4KT1bQ0hdW0NIMl1bQ0gyXUM4KFtDSDNdKVtDSDNd

>  <s_epik_cmdline>  (114) 
J2VwaWtfcHl0aG9uJywgJy1waHQnLCAnMi4wJywgJy1waCcsICc3LjAnLCAnLXRuJywgJzgnLCAnLW1hJywgJzIwMCcsICctaW1hZScsICc8aW5maWxlLm1hZT4nLCAnLW9tYWUnLCAnPG91dGZpbGUubWFlPic=

>  <r_lp_tautomer_probability>  (114) 
1

>  <r_epik_Ionization_Penalty>  (114) 
1.48829e-06

>  <r_epik_Ionization_Penalty_Charging>  (114) 
0

>  <r_epik_Ionization_Penalty_Neutral>  (114) 
1.48829e-06

>  <r_epik_State_Penalty>  (114) 
-0

>  <r_epik_Charging_Adjusted_Penalty>  (114) 
0

>  <i_epik_Tot_Q>  (114) 
0

>  <i_epik_Tot_abs_Q>  (114) 
0

>  <s_epik_Chemistry_Notes>  (114) 
This compound contains an acetal/aminal-like group ( X-CH(R)-Y where X, Y are N, S, or O) that may be acid/base labile, releasing an aldehyde.

>  <s_lp_Force_Field>  (114) 
OPLS3e

>  <r_lp_Energy>  (114) 
240.193

>  <b_lp_Chiralities_Consistent>  (114) 
1

>  <s_lp_Variant>  (114) 
42:0-1

>  <s_i_glide_gridfile>  (114) 
pfpi4k_grid

>  <i_i_glide_lignum>  (114) 
11

>  <i_i_glide_rotatable_bonds>  (114) 
5

>  <r_i_docking_score>  (114) 
-1.28296

>  <r_i_glide_ligand_efficiency>  (114) 
-0.0305466

>  <r_i_glide_ligand_efficiency_sa>  (114) 
-0.106181

>  <r_i_glide_ligand_efficiency_ln>  (114) 
-0.270799

>  <r_i_glide_gscore>  (114) 
-1.28296

>  <r_i_glide_lipo>  (114) 
-0.294578

>  <r_i_glide_hbond>  (114) 
0

>  <r_i_glide_metal>  (114) 
-0

>  <r_i_glide_rewards>  (114) 
-0.0190406

>  <r_i_glide_evdw>  (114) 
-21.3171

>  <r_i_glide_ecoul>  (114) 
0.643424

>  <r_i_glide_erotb>  (114) 
0

>  <r_i_glide_esite>  (114) 
0

>  <r_i_glide_emodel>  (114) 
-21.1924

>  <r_i_glide_energy>  (114) 
-20.6736

>  <r_i_glide_einternal>  (114) 
0.747814

>  <r_i_glide_intrahb_reward>  (114) 
-0

>  <i_i_glide_confnum>  (114) 
2

>  <i_i_glide_posenum>  (114) 
10

>  <r_i_glide_eff_state_penalty>  (114) 
0

>  <ligand_id>  (114) 
42

>  <original_smiles>  (114) 
COC12C3CC(O)CCC3(C)CCC3(C)C4C(C)C4C4(O)C5=CCCC(C)(C)C5(C3C1(C)O)C1OCOC12C(C)C4O

>  <smiles>  (114) 
[H]OC1([H])C([H])([H])C([H])([H])C2(C([H])([H])[H])C([H])([H])C([H])([H])C3(C([H])([H])[H])C4([H])C([H])(C([H])([H])[H])C4([H])C4(O[H])C5=C([H])C([H])([H])C([H])([H])C(C([H])([H])[H])(C([H])([H])[H])C56C5([H])OC([H])([H])OC5(C([H])(C([H])([H])[H])C4([H])O[H])C(OC([H])([H])[H])(C2([H])C1([H])[H])C(O[H])(C([H])([H])[H])C63[H]

$$$$
43:0:0
     RDKit          3D

 99108  0  0  1  0  0  0  0  0999 V2000
    6.4542  -10.2401    4.5181 C   0  0  0  0  0  0  0  0  0  0  0  0
    5.3951   -9.8840    5.3963 O   0  0  0  0  0  0  0  0  0  0  0  0
    5.1232   -8.4871    5.4692 C   0  0  2  0  0  0  0  0  0  0  0  0
    4.3249   -8.2477    6.7634 C   0  0  0  0  0  0  0  0  0  0  0  0
    2.8625   -8.1413    6.3133 C   0  0  2  0  0  0  0  0  0  0  0  0
    2.7943   -8.5438    4.8415 C   0  0  2  0  0  0  0  0  0  0  0  0
    4.1852   -8.0649    4.2943 C   0  0  1  0  0  0  0  0  0  0  0  0
    4.4142   -6.5401    3.8885 C   0  0  2  0  0  0  0  0  0  0  0  0
    3.7683   -5.5883    4.9949 C   0  0  1  0  0  0  0  0  0  0  0  0
    4.2642   -4.1390    5.3085 C   0  0  0  0  0  0  0  0  0  0  0  0
    4.1379   -3.8367    6.8401 C   0  0  0  0  0  0  0  0  0  0  0  0
    5.7872   -3.9480    5.0988 C   0  0  0  0  0  0  0  0  0  0  0  0
    3.3803   -3.0996    4.5661 C   0  0  1  0  0  0  0  0  0  0  0  0
    3.8215   -2.5559    3.1572 C   0  0  0  0  0  0  0  0  0  0  0  0
    4.5256   -3.4736    2.0953 C   0  0  1  0  0  0  0  0  0  0  0  0
    3.7462   -4.8201    1.8726 C   0  0  1  0  0  0  0  0  0  0  0  0
    2.8626   -4.7879    0.5754 C   0  0  1  0  0  0  0  0  0  0  0  0
    1.6778   -5.5424    0.8327 O   0  0  0  0  0  0  0  0  0  0  0  0
    0.8624   -5.8567   -0.2823 C   0  0  0  0  0  0  0  0  0  0  0  0
    2.4180   -3.3576    0.2134 C   0  0  0  0  0  0  0  0  0  0  0  0
    3.5729   -2.3956   -0.0479 C   0  0  0  0  0  0  0  0  0  0  0  0
    4.8540   -2.6981    0.7624 C   0  0  0  0  0  0  0  0  0  0  0  0
    5.5583   -1.3501    1.0305 C   0  0  0  0  0  0  0  0  0  0  0  0
    5.8340   -3.5127   -0.1201 C   0  0  0  0  0  0  0  0  0  0  0  0
    4.4424   -6.2044    2.2968 C   0  0  0  0  0  0  0  0  0  0  0  0
    5.9250   -6.2458    1.8284 C   0  0  0  0  0  0  0  0  0  0  0  0
    3.8502   -7.3881    1.4596 C   0  0  0  0  0  0  0  0  0  0  0  0
    1.8261   -3.4108    4.7252 C   0  0  1  0  0  0  0  0  0  0  0  0
    1.1084   -2.2584    5.4451 C   0  0  0  0  0  0  0  0  0  0  0  0
    1.1661   -3.5446    3.4910 O   0  0  0  0  0  0  0  0  0  0  0  0
    1.6072   -4.5367    5.5550 O   0  0  0  0  0  0  0  0  0  0  0  0
    2.2408   -5.8059    5.2831 C   0  0  1  0  0  0  0  0  0  0  0  0
    1.5332   -6.5120    4.0610 C   0  0  2  0  0  0  0  0  0  0  0  0
    0.1210   -6.3251    3.9022 O   0  0  0  0  0  0  0  0  0  0  0  0
   -0.4004   -7.6417    4.0834 C   0  0  1  0  0  0  0  0  0  0  0  0
   -1.9056   -7.7006    3.9131 C   0  0  0  0  0  0  0  0  0  0  0  0
    0.5191   -8.6068    3.3160 C   0  0  0  0  0  0  0  0  0  0  0  0
    1.4471   -7.9909    4.3329 C   0  0  1  0  0  0  0  0  0  0  0  0
    0.2882   -8.0807    5.3932 C   0  0  2  0  0  0  0  0  0  0  0  0
   -0.1753   -9.4068    6.0392 C   0  0  0  0  0  0  0  0  0  0  0  0
    0.4943   -6.9725    6.4570 C   0  0  1  0  0  0  0  0  0  0  0  0
    1.2465   -6.8495    7.6536 O   0  0  0  0  0  0  0  0  0  0  0  0
    2.0626   -6.8165    6.4918 C   0  0  2  0  0  0  0  0  0  0  0  0
    6.5718  -11.3239    4.5186 H   0  0  0  0  0  0  0  0  0  0  0  0
    7.4026   -9.8039    4.8336 H   0  0  0  0  0  0  0  0  0  0  0  0
    6.2607   -9.9360    3.4902 H   0  0  0  0  0  0  0  0  0  0  0  0
    6.0671   -7.9425    5.5131 H   0  0  0  0  0  0  0  0  0  0  0  0
    4.4568   -9.0943    7.4384 H   0  0  0  0  0  0  0  0  0  0  0  0
    4.6517   -7.3796    7.3336 H   0  0  0  0  0  0  0  0  0  0  0  0
    2.3446   -8.8898    6.9081 H   0  0  0  0  0  0  0  0  0  0  0  0
    2.7802   -9.6353    4.7947 H   0  0  0  0  0  0  0  0  0  0  0  0
    4.4370   -8.7178    3.4710 H   0  0  0  0  0  0  0  0  0  0  0  0
    5.4699   -6.4345    4.1247 H   0  0  0  0  0  0  0  0  0  0  0  0
    4.2569   -6.0001    5.8582 H   0  0  0  0  0  0  0  0  0  0  0  0
    4.5078   -2.8382    7.0789 H   0  0  0  0  0  0  0  0  0  0  0  0
    4.7130   -4.5347    7.4515 H   0  0  0  0  0  0  0  0  0  0  0  0
    3.1179   -3.8823    7.2139 H   0  0  0  0  0  0  0  0  0  0  0  0
    6.0306   -2.8891    5.0289 H   0  0  0  0  0  0  0  0  0  0  0  0
    6.1781   -4.4478    4.2256 H   0  0  0  0  0  0  0  0  0  0  0  0
    6.3665   -4.3559    5.9281 H   0  0  0  0  0  0  0  0  0  0  0  0
    3.5137   -2.1978    5.1621 H   0  0  0  0  0  0  0  0  0  0  0  0
    3.0165   -1.9777    2.7050 H   0  0  0  0  0  0  0  0  0  0  0  0
    4.5661   -1.7984    3.3970 H   0  0  0  0  0  0  0  0  0  0  0  0
    5.5007   -3.6877    2.4901 H   0  0  0  0  0  0  0  0  0  0  0  0
    2.9991   -4.7256    2.6251 H   0  0  0  0  0  0  0  0  0  0  0  0
    3.3923   -5.2176   -0.2769 H   0  0  0  0  0  0  0  0  0  0  0  0
    0.0897   -6.5648    0.0281 H   0  0  0  0  0  0  0  0  0  0  0  0
    1.4204   -6.2673   -1.1058 H   0  0  0  0  0  0  0  0  0  0  0  0
    0.3691   -5.0193   -0.7558 H   0  0  0  0  0  0  0  0  0  0  0  0
    1.7970   -3.3455   -0.6801 H   0  0  0  0  0  0  0  0  0  0  0  0
    1.8099   -2.9654    1.0245 H   0  0  0  0  0  0  0  0  0  0  0  0
    3.7993   -2.4302   -1.1117 H   0  0  0  0  0  0  0  0  0  0  0  0
    3.2091   -1.3801    0.1301 H   0  0  0  0  0  0  0  0  0  0  0  0
    5.8829   -0.8879    0.0957 H   0  0  0  0  0  0  0  0  0  0  0  0
    6.4315   -1.4699    1.6721 H   0  0  0  0  0  0  0  0  0  0  0  0
    4.8831   -0.6362    1.5026 H   0  0  0  0  0  0  0  0  0  0  0  0
    6.1521   -2.9479   -0.9975 H   0  0  0  0  0  0  0  0  0  0  0  0
    5.3969   -4.4314   -0.5030 H   0  0  0  0  0  0  0  0  0  0  0  0
    6.7376   -3.7780    0.4284 H   0  0  0  0  0  0  0  0  0  0  0  0
    6.0078   -6.1631    0.7467 H   0  0  0  0  0  0  0  0  0  0  0  0
    6.3926   -7.1957    2.0941 H   0  0  0  0  0  0  0  0  0  0  0  0
    6.5582   -5.4805    2.2698 H   0  0  0  0  0  0  0  0  0  0  0  0
    3.8193   -7.1776    0.3955 H   0  0  0  0  0  0  0  0  0  0  0  0
    2.8500   -7.6849    1.7560 H   0  0  0  0  0  0  0  0  0  0  0  0
    4.4703   -8.2833    1.4926 H   0  0  0  0  0  0  0  0  0  0  0  0
    0.0488   -2.4951    5.5453 H   0  0  0  0  0  0  0  0  0  0  0  0
    1.2064   -1.3323    4.8792 H   0  0  0  0  0  0  0  0  0  0  0  0
    1.5218   -2.1082    6.4420 H   0  0  0  0  0  0  0  0  0  0  0  0
    1.1373   -2.6954    3.0738 H   0  0  0  0  0  0  0  0  0  0  0  0
    1.9504   -6.3146    3.0979 H   0  0  0  0  0  0  0  0  0  0  0  0
   -2.2685   -8.7157    4.0816 H   0  0  0  0  0  0  0  0  0  0  0  0
   -2.2175   -7.4143    2.9065 H   0  0  0  0  0  0  0  0  0  0  0  0
   -2.3953   -7.0331    4.6202 H   0  0  0  0  0  0  0  0  0  0  0  0
    0.3206   -9.6731    3.4129 H   0  0  0  0  0  0  0  0  0  0  0  0
    0.7020   -8.2965    2.2876 H   0  0  0  0  0  0  0  0  0  0  0  0
    0.3929   -9.6585    6.9317 H   0  0  0  0  0  0  0  0  0  0  0  0
   -0.1059  -10.2672    5.3768 H   0  0  0  0  0  0  0  0  0  0  0  0
   -1.2158   -9.3511    6.3574 H   0  0  0  0  0  0  0  0  0  0  0  0
   -0.1691   -6.1169    6.3326 H   0  0  0  0  0  0  0  0  0  0  0  0
  1  2  1  0
  1 44  1  0
  1 45  1  0
  1 46  1  0
  2  3  1  0
  3  7  1  0
  3  4  1  0
  3 47  1  1
  4  5  1  0
  4 48  1  0
  4 49  1  0
  5 43  1  0
  5  6  1  0
  5 50  1  1
  6 38  1  0
  6  7  1  0
  6 51  1  1
  7  8  1  0
  7 52  1  6
  8 25  1  0
  8  9  1  0
  8 53  1  1
  9 32  1  0
  9 10  1  0
  9 54  1  1
 10 11  1  0
 10 12  1  0
 10 13  1  0
 11 55  1  0
 11 56  1  0
 11 57  1  0
 12 58  1  0
 12 59  1  0
 12 60  1  0
 13 14  1  0
 13 28  1  0
 13 61  1  1
 14 15  1  0
 14 62  1  0
 14 63  1  0
 15 22  1  0
 15 16  1  0
 15 64  1  1
 16 17  1  0
 16 25  1  0
 16 65  1  1
 17 18  1  0
 17 20  1  0
 17 66  1  6
 18 19  1  0
 19 67  1  0
 19 68  1  0
 19 69  1  0
 20 21  1  0
 20 70  1  0
 20 71  1  0
 21 22  1  0
 21 72  1  0
 21 73  1  0
 22 23  1  0
 22 24  1  0
 23 74  1  0
 23 75  1  0
 23 76  1  0
 24 77  1  0
 24 78  1  0
 24 79  1  0
 25 26  1  0
 25 27  1  0
 26 80  1  0
 26 81  1  0
 26 82  1  0
 27 83  1  0
 27 84  1  0
 27 85  1  0
 28 29  1  0
 28 30  1  6
 28 31  1  0
 29 86  1  0
 29 87  1  0
 29 88  1  0
 30 89  1  0
 32 31  1  1
 32 43  1  0
 32 33  1  0
 33 38  1  0
 33 34  1  0
 33 90  1  6
 34 35  1  0
 35 39  1  0
 35 36  1  1
 35 37  1  0
 36 91  1  0
 36 92  1  0
 36 93  1  0
 38 37  1  6
 37 94  1  0
 37 95  1  0
 38 39  1  0
 39 40  1  1
 39 41  1  0
 40 96  1  0
 40 97  1  0
 40 98  1  0
 41 43  1  0
 41 42  1  0
 41 99  1  6
 43 42  1  1
M  END
>  <i_m_ct_stereo_status>  (115) 
1

>  <s_m_source_file>  (115) 
/var/tmp/pbs.5076255.sched01/tmpjtt61wjg/4457_394l_.sdf

>  <i_m_source_file_index>  (115) 
12

>  <i_lp_mmshare_version>  (115) 
48012

>  <i_f3d_flags>  (115) 
0

>  <s_epik_input>  (115) 
TzFbQ0BASF0yW0NAQF0zKFtDSDNdKVtDQF0oW0NIM10pKFtDSDJdNClPW0NAQEhdNVtDQEBdMzRbQ0BIXShbQ0BASF02W0NAXTEyW0NAXTU3OClbQ0BIXShbQ0BASF0oW0NIMl02KU9bQ0gzXSlbQ0BASF05W0NASF03QyhbQ0gzXSkoW0NIM10pW0NASF0oW0NAQF0oTzgpKFtDSDNdKVtPSF0pW0NIMl1bQ0BIXTFbQ0BIXShDOShbQ0gzXSlbQ0gzXSlbQ0BASF0oT1tDSDNdKVtDSDJdW0NIMl1DMShbQ0gzXSlbQ0gzXQ==

>  <s_epik_cmdline>  (115) 
J2VwaWtfcHl0aG9uJywgJy1waHQnLCAnMi4wJywgJy1waCcsICc3LjAnLCAnLXRuJywgJzgnLCAnLW1hJywgJzIwMCcsICctaW1hZScsICc8aW5maWxlLm1hZT4nLCAnLW9tYWUnLCAnPG91dGZpbGUubWFlPic=

>  <r_lp_tautomer_probability>  (115) 
1

>  <r_epik_Ionization_Penalty>  (115) 
2.07555e-07

>  <r_epik_Ionization_Penalty_Charging>  (115) 
0

>  <r_epik_Ionization_Penalty_Neutral>  (115) 
2.07555e-07

>  <r_epik_State_Penalty>  (115) 
-0

>  <r_epik_Charging_Adjusted_Penalty>  (115) 
0

>  <i_epik_Tot_Q>  (115) 
0

>  <i_epik_Tot_abs_Q>  (115) 
0

>  <s_lp_Force_Field>  (115) 
OPLS3e

>  <r_lp_Energy>  (115) 
234.994

>  <b_lp_Chiralities_Consistent>  (115) 
1

>  <s_lp_Variant>  (115) 
43:0-1

>  <s_i_glide_gridfile>  (115) 
pfpi4k_grid

>  <i_i_glide_lignum>  (115) 
12

>  <i_i_glide_rotatable_bonds>  (115) 
3

>  <r_i_docking_score>  (115) 
-1.74909

>  <r_i_glide_ligand_efficiency>  (115) 
-0.0406765

>  <r_i_glide_ligand_efficiency_sa>  (115) 
-0.142506

>  <r_i_glide_ligand_efficiency_ln>  (115) 
-0.367363

>  <r_i_glide_gscore>  (115) 
-1.74909

>  <r_i_glide_lipo>  (115) 
-0.383997

>  <r_i_glide_hbond>  (115) 
-0.118409

>  <r_i_glide_metal>  (115) 
-0

>  <r_i_glide_rewards>  (115) 
-0.00626329

>  <r_i_glide_evdw>  (115) 
-20.315

>  <r_i_glide_ecoul>  (115) 
-1.49779

>  <r_i_glide_erotb>  (115) 
0

>  <r_i_glide_esite>  (115) 
0

>  <r_i_glide_emodel>  (115) 
-23.1461

>  <r_i_glide_energy>  (115) 
-21.8128

>  <r_i_glide_einternal>  (115) 
1.83886

>  <r_i_glide_intrahb_reward>  (115) 
-0

>  <i_i_glide_confnum>  (115) 
2

>  <i_i_glide_posenum>  (115) 
12

>  <r_i_glide_eff_state_penalty>  (115) 
0

>  <ligand_id>  (115) 
43

>  <original_smiles>  (115) 
COC1CC2C3C1C1C4C(C)(C)C(CC5C(C(OC)CCC5(C)C)C1(C)C)C(C)(O)OC41C4OC5(C)CC34C5(C)C3OC231

>  <smiles>  (115) 
[H]OC1(C([H])([H])[H])OC23C4([H])OC5(C([H])([H])[H])C([H])([H])C46C4([H])C([H])(C([H])(OC([H])([H])[H])C([H])([H])C4([H])C24OC4([H])C56C([H])([H])[H])C2([H])C3([H])C(C([H])([H])[H])(C([H])([H])[H])C1([H])C([H])([H])C1([H])C([H])(C([H])(OC([H])([H])[H])C([H])([H])C([H])([H])C1(C([H])([H])[H])C([H])([H])[H])C2(C([H])([H])[H])C([H])([H])[H]

$$$$
43:0:1
     RDKit          3D

 99108  0  0  1  0  0  0  0  0999 V2000
    9.4091   -7.8991    3.6832 C   0  0  0  0  0  0  0  0  0  0  0  0
    8.4167   -6.8959    3.5238 O   0  0  0  0  0  0  0  0  0  0  0  0
    7.0924   -7.4129    3.4272 C   0  0  2  0  0  0  0  0  0  0  0  0
    6.7420   -7.6575    1.9464 C   0  0  0  0  0  0  0  0  0  0  0  0
    5.9205   -6.4288    1.5349 C   0  0  2  0  0  0  0  0  0  0  0  0
    6.0152   -5.3958    2.6559 C   0  0  2  0  0  0  0  0  0  0  0  0
    6.1269   -6.3015    3.9368 C   0  0  1  0  0  0  0  0  0  0  0  0
    4.8170   -6.9329    4.5993 C   0  0  2  0  0  0  0  0  0  0  0  0
    3.8629   -7.5125    3.4585 C   0  0  1  0  0  0  0  0  0  0  0  0
    2.8571   -8.6957    3.6643 C   0  0  0  0  0  0  0  0  0  0  0  0
    2.7759   -9.5736    2.3674 C   0  0  0  0  0  0  0  0  0  0  0  0
    3.3316   -9.7408    4.7091 C   0  0  0  0  0  0  0  0  0  0  0  0
    1.4276   -8.1386    3.9221 C   0  0  1  0  0  0  0  0  0  0  0  0
    0.9233   -7.9334    5.3981 C   0  0  0  0  0  0  0  0  0  0  0  0
    1.8754   -7.4285    6.5402 C   0  0  1  0  0  0  0  0  0  0  0  0
    2.6816   -6.1493    6.1148 C   0  0  1  0  0  0  0  0  0  0  0  0
    2.0549   -4.8303    6.6996 C   0  0  1  0  0  0  0  0  0  0  0  0
    2.2420   -3.7821    5.7512 O   0  0  0  0  0  0  0  0  0  0  0  0
    2.1581   -2.4602    6.2664 C   0  0  0  0  0  0  0  0  0  0  0  0
    0.5387   -4.9601    6.9274 C   0  0  0  0  0  0  0  0  0  0  0  0
    0.1703   -6.0605    7.9251 C   0  0  0  0  0  0  0  0  0  0  0  0
    1.1264   -7.2829    7.9203 C   0  0  0  0  0  0  0  0  0  0  0  0
    0.3010   -8.5460    8.2628 C   0  0  0  0  0  0  0  0  0  0  0  0
    2.1438   -7.1287    9.0803 C   0  0  0  0  0  0  0  0  0  0  0  0
    4.2794   -6.2379    5.9686 C   0  0  0  0  0  0  0  0  0  0  0  0
    4.9023   -7.0069    7.1672 C   0  0  0  0  0  0  0  0  0  0  0  0
    4.9237   -4.8253    6.1707 C   0  0  0  0  0  0  0  0  0  0  0  0
    1.0336   -6.9837    2.8974 C   0  0  1  0  0  0  0  0  0  0  0  0
   -0.1911   -7.3941    2.0597 C   0  0  0  0  0  0  0  0  0  0  0  0
    0.6453   -5.7941    3.5333 O   0  0  0  0  0  0  0  0  0  0  0  0
    2.0587   -6.7626    1.9454 O   0  0  0  0  0  0  0  0  0  0  0  0
    3.4211   -6.4982    2.3480 C   0  0  1  0  0  0  0  0  0  0  0  0
    3.5335   -5.0144    2.8735 C   0  0  2  0  0  0  0  0  0  0  0  0
    2.7088   -4.0233    2.2469 O   0  0  0  0  0  0  0  0  0  0  0  0
    3.6558   -3.1442    1.6381 C   0  0  1  0  0  0  0  0  0  0  0  0
    3.0158   -1.9618    0.9260 C   0  0  0  0  0  0  0  0  0  0  0  0
    4.7919   -2.9335    2.6572 C   0  0  0  0  0  0  0  0  0  0  0  0
    4.8378   -4.4205    2.4086 C   0  0  1  0  0  0  0  0  0  0  0  0
    4.5630   -4.1427    0.8875 C   0  0  2  0  0  0  0  0  0  0  0  0
    5.6092   -3.5477   -0.0813 C   0  0  0  0  0  0  0  0  0  0  0  0
    3.8555   -5.3776    0.2634 C   0  0  1  0  0  0  0  0  0  0  0  0
    4.2811   -6.6214   -0.2753 O   0  0  0  0  0  0  0  0  0  0  0  0
    4.4275   -6.5677    1.1274 C   0  0  2  0  0  0  0  0  0  0  0  0
   10.4010   -7.4458    3.6891 H   0  0  0  0  0  0  0  0  0  0  0  0
    9.3717   -8.6314    2.8826 H   0  0  0  0  0  0  0  0  0  0  0  0
    9.2815   -8.4238    4.6312 H   0  0  0  0  0  0  0  0  0  0  0  0
    7.0175   -8.3338    4.0075 H   0  0  0  0  0  0  0  0  0  0  0  0
    7.6502   -7.7303    1.3438 H   0  0  0  0  0  0  0  0  0  0  0  0
    6.2107   -8.5903    1.7674 H   0  0  0  0  0  0  0  0  0  0  0  0
    6.4374   -6.0428    0.6601 H   0  0  0  0  0  0  0  0  0  0  0  0
    6.9627   -4.8633    2.5255 H   0  0  0  0  0  0  0  0  0  0  0  0
    6.7097   -5.7671    4.6787 H   0  0  0  0  0  0  0  0  0  0  0  0
    5.2247   -7.8562    5.0033 H   0  0  0  0  0  0  0  0  0  0  0  0
    4.5795   -8.1395    2.9614 H   0  0  0  0  0  0  0  0  0  0  0  0
    2.1031  -10.4226    2.5037 H   0  0  0  0  0  0  0  0  0  0  0  0
    3.7435   -9.9970    2.0865 H   0  0  0  0  0  0  0  0  0  0  0  0
    2.4180   -9.0400    1.4895 H   0  0  0  0  0  0  0  0  0  0  0  0
    2.5048  -10.3652    5.0497 H   0  0  0  0  0  0  0  0  0  0  0  0
    3.8093   -9.3193    5.5810 H   0  0  0  0  0  0  0  0  0  0  0  0
    4.0821  -10.4126    4.2891 H   0  0  0  0  0  0  0  0  0  0  0  0
    0.7865   -8.9681    3.6230 H   0  0  0  0  0  0  0  0  0  0  0  0
   -0.0183   -7.3844    5.3983 H   0  0  0  0  0  0  0  0  0  0  0  0
    0.6267   -8.9358    5.7088 H   0  0  0  0  0  0  0  0  0  0  0  0
    2.5610   -8.2344    6.7260 H   0  0  0  0  0  0  0  0  0  0  0  0
    2.3912   -6.0812    5.0963 H   0  0  0  0  0  0  0  0  0  0  0  0
    2.5285   -4.5637    7.6432 H   0  0  0  0  0  0  0  0  0  0  0  0
    2.4182   -1.7486    5.4817 H   0  0  0  0  0  0  0  0  0  0  0  0
    2.8544   -2.3138    7.0925 H   0  0  0  0  0  0  0  0  0  0  0  0
    1.1527   -2.2115    6.6055 H   0  0  0  0  0  0  0  0  0  0  0  0
    0.1084   -4.0256    7.2840 H   0  0  0  0  0  0  0  0  0  0  0  0
    0.0537   -5.1602    5.9766 H   0  0  0  0  0  0  0  0  0  0  0  0
    0.1335   -5.6359    8.9280 H   0  0  0  0  0  0  0  0  0  0  0  0
   -0.8563   -6.3553    7.7142 H   0  0  0  0  0  0  0  0  0  0  0  0
   -0.1051   -8.4875    9.2755 H   0  0  0  0  0  0  0  0  0  0  0  0
    0.9066   -9.4527    8.2030 H   0  0  0  0  0  0  0  0  0  0  0  0
   -0.5538   -8.6684    7.5967 H   0  0  0  0  0  0  0  0  0  0  0  0
    1.6505   -7.1378   10.0537 H   0  0  0  0  0  0  0  0  0  0  0  0
    2.6991   -6.1964    9.0380 H   0  0  0  0  0  0  0  0  0  0  0  0
    2.8671   -7.9446    9.0900 H   0  0  0  0  0  0  0  0  0  0  0  0
    4.6930   -6.5159    8.1152 H   0  0  0  0  0  0  0  0  0  0  0  0
    5.9901   -7.0492    7.0825 H   0  0  0  0  0  0  0  0  0  0  0  0
    4.5805   -8.0420    7.2523 H   0  0  0  0  0  0  0  0  0  0  0  0
    4.5578   -4.3177    7.0584 H   0  0  0  0  0  0  0  0  0  0  0  0
    4.7838   -4.1474    5.3361 H   0  0  0  0  0  0  0  0  0  0  0  0
    5.9947   -4.8721    6.3634 H   0  0  0  0  0  0  0  0  0  0  0  0
   -0.4460   -6.6028    1.3537 H   0  0  0  0  0  0  0  0  0  0  0  0
   -1.0530   -7.5831    2.7022 H   0  0  0  0  0  0  0  0  0  0  0  0
    0.0221   -8.2929    1.4863 H   0  0  0  0  0  0  0  0  0  0  0  0
    1.3724   -5.4877    4.0643 H   0  0  0  0  0  0  0  0  0  0  0  0
    3.3913   -4.8666    3.9198 H   0  0  0  0  0  0  0  0  0  0  0  0
    3.7738   -1.3176    0.4808 H   0  0  0  0  0  0  0  0  0  0  0  0
    2.4314   -1.3390    1.6074 H   0  0  0  0  0  0  0  0  0  0  0  0
    2.3578   -2.2899    0.1202 H   0  0  0  0  0  0  0  0  0  0  0  0
    5.6557   -2.3561    2.3346 H   0  0  0  0  0  0  0  0  0  0  0  0
    4.4380   -2.6455    3.6443 H   0  0  0  0  0  0  0  0  0  0  0  0
    6.2255   -4.3162   -0.5425 H   0  0  0  0  0  0  0  0  0  0  0  0
    6.2915   -2.8356    0.3828 H   0  0  0  0  0  0  0  0  0  0  0  0
    5.1179   -3.0234   -0.9032 H   0  0  0  0  0  0  0  0  0  0  0  0
    2.7907   -5.2377    0.0995 H   0  0  0  0  0  0  0  0  0  0  0  0
  1  2  1  0
  1 44  1  0
  1 45  1  0
  1 46  1  0
  2  3  1  0
  3  7  1  0
  3  4  1  0
  3 47  1  1
  4  5  1  0
  4 48  1  0
  4 49  1  0
  5 43  1  0
  5  6  1  0
  5 50  1  6
  6 38  1  0
  6  7  1  0
  6 51  1  6
  7  8  1  0
  7 52  1  1
  8 25  1  0
  8  9  1  0
  8 53  1  1
  9 32  1  0
  9 10  1  0
  9 54  1  6
 10 11  1  0
 10 12  1  0
 10 13  1  0
 11 55  1  0
 11 56  1  0
 11 57  1  0
 12 58  1  0
 12 59  1  0
 12 60  1  0
 13 14  1  0
 13 28  1  0
 13 61  1  6
 14 15  1  0
 14 62  1  0
 14 63  1  0
 15 22  1  0
 15 16  1  0
 15 64  1  1
 16 17  1  0
 16 25  1  0
 16 65  1  6
 17 18  1  0
 17 20  1  0
 17 66  1  1
 18 19  1  0
 19 67  1  0
 19 68  1  0
 19 69  1  0
 20 21  1  0
 20 70  1  0
 20 71  1  0
 21 22  1  0
 21 72  1  0
 21 73  1  0
 22 23  1  0
 22 24  1  0
 23 74  1  0
 23 75  1  0
 23 76  1  0
 24 77  1  0
 24 78  1  0
 24 79  1  0
 25 26  1  0
 25 27  1  0
 26 80  1  0
 26 81  1  0
 26 82  1  0
 27 83  1  0
 27 84  1  0
 27 85  1  0
 28 29  1  0
 28 30  1  1
 28 31  1  0
 29 86  1  0
 29 87  1  0
 29 88  1  0
 30 89  1  0
 32 31  1  6
 32 43  1  0
 32 33  1  0
 33 38  1  0
 33 34  1  0
 33 90  1  1
 34 35  1  0
 35 39  1  0
 35 36  1  6
 35 37  1  0
 36 91  1  0
 36 92  1  0
 36 93  1  0
 38 37  1  1
 37 94  1  0
 37 95  1  0
 38 39  1  0
 39 40  1  6
 39 41  1  0
 40 96  1  0
 40 97  1  0
 40 98  1  0
 41 43  1  0
 41 42  1  0
 41 99  1  1
 43 42  1  6
M  END
>  <i_m_ct_stereo_status>  (116) 
1

>  <s_m_source_file>  (116) 
/var/tmp/pbs.5076255.sched01/tmpjtt61wjg/4457_394l_.sdf

>  <i_m_source_file_index>  (116) 
12

>  <i_lp_mmshare_version>  (116) 
48012

>  <i_f3d_flags>  (116) 
0

>  <s_epik_input>  (116) 
TzFbQ0BASF0yW0NAQF0zKFtDSDNdKVtDQF0oW0NIM10pKFtDSDJdNClPW0NAQEhdNVtDQEBdMzRbQ0BIXShbQ0BASF02W0NAXTEyW0NAXTU3OClbQ0BIXShbQ0BASF0oW0NIMl02KU9bQ0gzXSlbQ0BASF05W0NASF03QyhbQ0gzXSkoW0NIM10pW0NASF0oW0NAQF0oTzgpKFtDSDNdKVtPSF0pW0NIMl1bQ0BIXTFbQ0BIXShDOShbQ0gzXSlbQ0gzXSlbQ0BASF0oT1tDSDNdKVtDSDJdW0NIMl1DMShbQ0gzXSlbQ0gzXQ==

>  <s_epik_cmdline>  (116) 
J2VwaWtfcHl0aG9uJywgJy1waHQnLCAnMi4wJywgJy1waCcsICc3LjAnLCAnLXRuJywgJzgnLCAnLW1hJywgJzIwMCcsICctaW1hZScsICc8aW5maWxlLm1hZT4nLCAnLW9tYWUnLCAnPG91dGZpbGUubWFlPic=

>  <r_lp_tautomer_probability>  (116) 
1

>  <r_epik_Ionization_Penalty>  (116) 
2.07555e-07

>  <r_epik_Ionization_Penalty_Charging>  (116) 
0

>  <r_epik_Ionization_Penalty_Neutral>  (116) 
2.07555e-07

>  <r_epik_State_Penalty>  (116) 
-0

>  <r_epik_Charging_Adjusted_Penalty>  (116) 
0

>  <i_epik_Tot_Q>  (116) 
0

>  <i_epik_Tot_abs_Q>  (116) 
0

>  <s_lp_Force_Field>  (116) 
OPLS3e

>  <r_lp_Energy>  (116) 
234.994

>  <b_lp_Chiralities_Consistent>  (116) 
1

>  <s_lp_Variant>  (116) 
43:0-1

>  <s_i_glide_gridfile>  (116) 
pfpi4k_grid

>  <i_i_glide_lignum>  (116) 
12

>  <i_i_glide_rotatable_bonds>  (116) 
3

>  <r_i_docking_score>  (116) 
-1.48097

>  <r_i_glide_ligand_efficiency>  (116) 
-0.0344412

>  <r_i_glide_ligand_efficiency_sa>  (116) 
-0.120661

>  <r_i_glide_ligand_efficiency_ln>  (116) 
-0.31105

>  <r_i_glide_gscore>  (116) 
-1.48097

>  <r_i_glide_lipo>  (116) 
-0.425861

>  <r_i_glide_hbond>  (116) 
0

>  <r_i_glide_metal>  (116) 
-0

>  <r_i_glide_rewards>  (116) 
0

>  <r_i_glide_evdw>  (116) 
-22.4332

>  <r_i_glide_ecoul>  (116) 
0.6505

>  <r_i_glide_erotb>  (116) 
0

>  <r_i_glide_esite>  (116) 
-0.031025

>  <r_i_glide_emodel>  (116) 
-23.6545

>  <r_i_glide_energy>  (116) 
-21.7827

>  <r_i_glide_einternal>  (116) 
0.525415

>  <r_i_glide_intrahb_reward>  (116) 
-0

>  <i_i_glide_confnum>  (116) 
2

>  <i_i_glide_posenum>  (116) 
1

>  <r_i_glide_eff_state_penalty>  (116) 
0

>  <ligand_id>  (116) 
43

>  <original_smiles>  (116) 
COC1CC2C3C1C1C4C(C)(C)C(CC5C(C(OC)CCC5(C)C)C1(C)C)C(C)(O)OC41C4OC5(C)CC34C5(C)C3OC231

>  <smiles>  (116) 
[H]OC1(C([H])([H])[H])OC23C4([H])OC5(C([H])([H])[H])C([H])([H])C46C4([H])C([H])(C([H])(OC([H])([H])[H])C([H])([H])C4([H])C24OC4([H])C56C([H])([H])[H])C2([H])C3([H])C(C([H])([H])[H])(C([H])([H])[H])C1([H])C([H])([H])C1([H])C([H])(C([H])(OC([H])([H])[H])C([H])([H])C([H])([H])C1(C([H])([H])[H])C([H])([H])[H])C2(C([H])([H])[H])C([H])([H])[H]

$$$$
43:0:2
     RDKit          3D

 99108  0  0  1  0  0  0  0  0999 V2000
    7.6196    1.5121    6.2095 C   0  0  0  0  0  0  0  0  0  0  0  0
    7.2719    0.1458    6.0407 O   0  0  0  0  0  0  0  0  0  0  0  0
    5.9770   -0.2042    6.5238 C   0  0  2  0  0  0  0  0  0  0  0  0
    5.9727   -1.7301    6.7239 C   0  0  0  0  0  0  0  0  0  0  0  0
    5.2582   -2.2915    5.4879 C   0  0  2  0  0  0  0  0  0  0  0  0
    5.0656   -1.1436    4.4936 C   0  0  2  0  0  0  0  0  0  0  0  0
    4.8943    0.0974    5.4381 C   0  0  1  0  0  0  0  0  0  0  0  0
    3.4806    0.4182    6.1041 C   0  0  2  0  0  0  0  0  0  0  0  0
    2.8282   -0.9317    6.6488 C   0  0  1  0  0  0  0  0  0  0  0  0
    1.8188   -1.0018    7.8428 C   0  0  0  0  0  0  0  0  0  0  0  0
    2.0519   -2.3075    8.6791 C   0  0  0  0  0  0  0  0  0  0  0  0
    2.0476    0.0918    8.9208 C   0  0  0  0  0  0  0  0  0  0  0  0
    0.3638   -1.0653    7.3029 C   0  0  1  0  0  0  0  0  0  0  0  0
   -0.4731    0.2567    7.1495 C   0  0  0  0  0  0  0  0  0  0  0  0
    0.1790    1.6030    6.6753 C   0  0  1  0  0  0  0  0  0  0  0  0
    1.0430    1.4160    5.3789 C   0  0  1  0  0  0  0  0  0  0  0  0
    0.2811    1.8765    4.0832 C   0  0  1  0  0  0  0  0  0  0  0  0
    0.6658    1.0224    3.0082 O   0  0  0  0  0  0  0  0  0  0  0  0
    0.5191    1.5786    1.7079 C   0  0  0  0  0  0  0  0  0  0  0  0
   -1.2468    1.7444    4.2270 C   0  0  0  0  0  0  0  0  0  0  0  0
   -1.8187    2.5965    5.3680 C   0  0  0  0  0  0  0  0  0  0  0  0
   -0.8707    2.7756    6.5804 C   0  0  0  0  0  0  0  0  0  0  0  0
   -1.7448    2.8727    7.8539 C   0  0  0  0  0  0  0  0  0  0  0  0
   -0.1539    4.1442    6.4625 C   0  0  0  0  0  0  0  0  0  0  0  0
    2.6302    1.6443    5.4570 C   0  0  0  0  0  0  0  0  0  0  0  0
    2.9676    2.9298    6.2628 C   0  0  0  0  0  0  0  0  0  0  0  0
    3.1902    2.0365    4.0494 C   0  0  0  0  0  0  0  0  0  0  0  0
    0.2038   -2.1167    6.1166 C   0  0  1  0  0  0  0  0  0  0  0  0
   -0.7804   -3.2328    6.5108 C   0  0  0  0  0  0  0  0  0  0  0  0
   -0.3425   -1.5531    4.9498 O   0  0  0  0  0  0  0  0  0  0  0  0
    1.4179   -2.7972    5.8623 O   0  0  0  0  0  0  0  0  0  0  0  0
    2.6435   -2.0848    5.5997 C   0  0  1  0  0  0  0  0  0  0  0  0
    2.6065   -1.5047    4.1339 C   0  0  2  0  0  0  0  0  0  0  0  0
    1.9434   -2.2769    3.1242 O   0  0  0  0  0  0  0  0  0  0  0  0
    2.9987   -2.6167    2.2222 C   0  0  1  0  0  0  0  0  0  0  0  0
    2.5411   -3.4179    1.0191 C   0  0  0  0  0  0  0  0  0  0  0  0
    3.8591   -1.3534    2.0439 C   0  0  0  0  0  0  0  0  0  0  0  0
    3.9730   -1.6309    3.5215 C   0  0  1  0  0  0  0  0  0  0  0  0
    4.0629   -3.1656    3.1928 C   0  0  2  0  0  0  0  0  0  0  0  0
    5.2995   -3.8469    2.5647 C   0  0  0  0  0  0  0  0  0  0  0  0
    3.5298   -3.9766    4.4067 C   0  0  1  0  0  0  0  0  0  0  0  0
    4.0807   -4.4522    5.6288 O   0  0  0  0  0  0  0  0  0  0  0  0
    3.9028   -3.0447    5.6229 C   0  0  2  0  0  0  0  0  0  0  0  0
    8.6087    1.6908    5.7866 H   0  0  0  0  0  0  0  0  0  0  0  0
    7.6555    1.7873    7.2638 H   0  0  0  0  0  0  0  0  0  0  0  0
    6.9220    2.1778    5.7040 H   0  0  0  0  0  0  0  0  0  0  0  0
    5.8070    0.2939    7.4803 H   0  0  0  0  0  0  0  0  0  0  0  0
    6.9979   -2.1017    6.7747 H   0  0  0  0  0  0  0  0  0  0  0  0
    5.5122   -2.0527    7.6563 H   0  0  0  0  0  0  0  0  0  0  0  0
    5.9585   -3.0112    5.0754 H   0  0  0  0  0  0  0  0  0  0  0  0
    5.9864   -0.9931    3.9249 H   0  0  0  0  0  0  0  0  0  0  0  0
    5.2625    0.9583    4.8988 H   0  0  0  0  0  0  0  0  0  0  0  0
    3.8002    0.8756    7.0367 H   0  0  0  0  0  0  0  0  0  0  0  0
    3.6478   -1.2670    7.2550 H   0  0  0  0  0  0  0  0  0  0  0  0
    1.3775   -2.3612    9.5358 H   0  0  0  0  0  0  0  0  0  0  0  0
    3.0648   -2.3651    9.0832 H   0  0  0  0  0  0  0  0  0  0  0  0
    1.9042   -3.2271    8.1160 H   0  0  0  0  0  0  0  0  0  0  0  0
    1.1706    0.2099    9.5584 H   0  0  0  0  0  0  0  0  0  0  0  0
    2.3047    1.0636    8.5254 H   0  0  0  0  0  0  0  0  0  0  0  0
    2.8830   -0.1617    9.5760 H   0  0  0  0  0  0  0  0  0  0  0  0
   -0.1748   -1.5345    8.1267 H   0  0  0  0  0  0  0  0  0  0  0  0
   -1.3885    0.0576    6.5927 H   0  0  0  0  0  0  0  0  0  0  0  0
   -0.8209    0.4643    8.1618 H   0  0  0  0  0  0  0  0  0  0  0  0
    0.8140    1.9180    7.4831 H   0  0  0  0  0  0  0  0  0  0  0  0
    0.9958    0.3604    5.2768 H   0  0  0  0  0  0  0  0  0  0  0  0
    0.5182    2.9123    3.8448 H   0  0  0  0  0  0  0  0  0  0  0  0
    0.9341    0.8998    0.9625 H   0  0  0  0  0  0  0  0  0  0  0  0
    1.0615    2.5241    1.6346 H   0  0  0  0  0  0  0  0  0  0  0  0
   -0.5257    1.7465    1.4470 H   0  0  0  0  0  0  0  0  0  0  0  0
   -1.7520    2.0164    3.3013 H   0  0  0  0  0  0  0  0  0  0  0  0
   -1.4961    0.7000    4.3942 H   0  0  0  0  0  0  0  0  0  0  0  0
   -2.0973    3.5748    4.9747 H   0  0  0  0  0  0  0  0  0  0  0  0
   -2.7589    2.1516    5.6924 H   0  0  0  0  0  0  0  0  0  0  0  0
   -2.3778    3.7633    7.8295 H   0  0  0  0  0  0  0  0  0  0  0  0
   -1.1371    2.9243    8.7591 H   0  0  0  0  0  0  0  0  0  0  0  0
   -2.4226    2.0231    7.9508 H   0  0  0  0  0  0  0  0  0  0  0  0
   -0.8628    4.9717    6.5070 H   0  0  0  0  0  0  0  0  0  0  0  0
    0.3827    4.2594    5.5256 H   0  0  0  0  0  0  0  0  0  0  0  0
    0.5575    4.2946    7.2749 H   0  0  0  0  0  0  0  0  0  0  0  0
    2.5387    3.8172    5.8023 H   0  0  0  0  0  0  0  0  0  0  0  0
    4.0454    3.0983    6.2955 H   0  0  0  0  0  0  0  0  0  0  0  0
    2.6492    2.9079    7.3015 H   0  0  0  0  0  0  0  0  0  0  0  0
    2.6233    2.8306    3.5709 H   0  0  0  0  0  0  0  0  0  0  0  0
    3.2445    1.2126    3.3452 H   0  0  0  0  0  0  0  0  0  0  0  0
    4.1845    2.4759    4.0968 H   0  0  0  0  0  0  0  0  0  0  0  0
   -0.8528   -3.9530    5.6938 H   0  0  0  0  0  0  0  0  0  0  0  0
   -1.7757   -2.8267    6.6964 H   0  0  0  0  0  0  0  0  0  0  0  0
   -0.4387   -3.7655    7.3979 H   0  0  0  0  0  0  0  0  0  0  0  0
    0.2705   -0.9146    4.6036 H   0  0  0  0  0  0  0  0  0  0  0  0
    2.2281   -0.5139    4.0218 H   0  0  0  0  0  0  0  0  0  0  0  0
    3.3775   -3.6530    0.3636 H   0  0  0  0  0  0  0  0  0  0  0  0
    1.8202   -2.8576    0.4231 H   0  0  0  0  0  0  0  0  0  0  0  0
    2.0865   -4.3633    1.3187 H   0  0  0  0  0  0  0  0  0  0  0  0
    4.7677   -1.4452    1.4539 H   0  0  0  0  0  0  0  0  0  0  0  0
    3.2809   -0.4695    1.7875 H   0  0  0  0  0  0  0  0  0  0  0  0
    6.0114   -4.1888    3.3146 H   0  0  0  0  0  0  0  0  0  0  0  0
    5.8509   -3.2119    1.8699 H   0  0  0  0  0  0  0  0  0  0  0  0
    5.0068   -4.7410    2.0085 H   0  0  0  0  0  0  0  0  0  0  0  0
    2.5273   -4.3725    4.2659 H   0  0  0  0  0  0  0  0  0  0  0  0
  1  2  1  0
  1 44  1  0
  1 45  1  0
  1 46  1  0
  2  3  1  0
  3  7  1  0
  3  4  1  0
  3 47  1  1
  4  5  1  0
  4 48  1  0
  4 49  1  0
  5 43  1  0
  5  6  1  0
  5 50  1  6
  6 38  1  0
  6  7  1  0
  6 51  1  6
  7  8  1  0
  7 52  1  6
  8 25  1  0
  8  9  1  0
  8 53  1  1
  9 32  1  0
  9 10  1  0
  9 54  1  1
 10 11  1  0
 10 12  1  0
 10 13  1  0
 11 55  1  0
 11 56  1  0
 11 57  1  0
 12 58  1  0
 12 59  1  0
 12 60  1  0
 13 14  1  0
 13 28  1  0
 13 61  1  1
 14 15  1  0
 14 62  1  0
 14 63  1  0
 15 22  1  0
 15 16  1  0
 15 64  1  1
 16 17  1  0
 16 25  1  0
 16 65  1  6
 17 18  1  0
 17 20  1  0
 17 66  1  6
 18 19  1  0
 19 67  1  0
 19 68  1  0
 19 69  1  0
 20 21  1  0
 20 70  1  0
 20 71  1  0
 21 22  1  0
 21 72  1  0
 21 73  1  0
 22 23  1  0
 22 24  1  0
 23 74  1  0
 23 75  1  0
 23 76  1  0
 24 77  1  0
 24 78  1  0
 24 79  1  0
 25 26  1  0
 25 27  1  0
 26 80  1  0
 26 81  1  0
 26 82  1  0
 27 83  1  0
 27 84  1  0
 27 85  1  0
 28 29  1  0
 28 30  1  6
 28 31  1  0
 29 86  1  0
 29 87  1  0
 29 88  1  0
 30 89  1  0
 32 31  1  1
 32 43  1  0
 32 33  1  0
 33 38  1  0
 33 34  1  0
 33 90  1  1
 34 35  1  0
 35 39  1  0
 35 36  1  6
 35 37  1  0
 36 91  1  0
 36 92  1  0
 36 93  1  0
 38 37  1  6
 37 94  1  0
 37 95  1  0
 38 39  1  0
 39 40  1  6
 39 41  1  0
 40 96  1  0
 40 97  1  0
 40 98  1  0
 41 43  1  0
 41 42  1  0
 41 99  1  6
 43 42  1  1
M  END
>  <i_m_ct_stereo_status>  (117) 
1

>  <s_m_source_file>  (117) 
/var/tmp/pbs.5076255.sched01/tmpjtt61wjg/4457_394l_.sdf

>  <i_m_source_file_index>  (117) 
12

>  <i_lp_mmshare_version>  (117) 
48012

>  <i_f3d_flags>  (117) 
0

>  <s_epik_input>  (117) 
TzFbQ0BASF0yW0NAQF0zKFtDSDNdKVtDQF0oW0NIM10pKFtDSDJdNClPW0NAQEhdNVtDQEBdMzRbQ0BIXShbQ0BASF02W0NAXTEyW0NAXTU3OClbQ0BIXShbQ0BASF0oW0NIMl02KU9bQ0gzXSlbQ0BASF05W0NASF03QyhbQ0gzXSkoW0NIM10pW0NASF0oW0NAQF0oTzgpKFtDSDNdKVtPSF0pW0NIMl1bQ0BIXTFbQ0BIXShDOShbQ0gzXSlbQ0gzXSlbQ0BASF0oT1tDSDNdKVtDSDJdW0NIMl1DMShbQ0gzXSlbQ0gzXQ==

>  <s_epik_cmdline>  (117) 
J2VwaWtfcHl0aG9uJywgJy1waHQnLCAnMi4wJywgJy1waCcsICc3LjAnLCAnLXRuJywgJzgnLCAnLW1hJywgJzIwMCcsICctaW1hZScsICc8aW5maWxlLm1hZT4nLCAnLW9tYWUnLCAnPG91dGZpbGUubWFlPic=

>  <r_lp_tautomer_probability>  (117) 
1

>  <r_epik_Ionization_Penalty>  (117) 
2.07555e-07

>  <r_epik_Ionization_Penalty_Charging>  (117) 
0

>  <r_epik_Ionization_Penalty_Neutral>  (117) 
2.07555e-07

>  <r_epik_State_Penalty>  (117) 
-0

>  <r_epik_Charging_Adjusted_Penalty>  (117) 
0

>  <i_epik_Tot_Q>  (117) 
0

>  <i_epik_Tot_abs_Q>  (117) 
0

>  <s_lp_Force_Field>  (117) 
OPLS3e

>  <r_lp_Energy>  (117) 
234.994

>  <b_lp_Chiralities_Consistent>  (117) 
1

>  <s_lp_Variant>  (117) 
43:0-1

>  <s_i_glide_gridfile>  (117) 
pfpi4k_grid

>  <i_i_glide_lignum>  (117) 
12

>  <i_i_glide_rotatable_bonds>  (117) 
3

>  <r_i_docking_score>  (117) 
-1.20047

>  <r_i_glide_ligand_efficiency>  (117) 
-0.0279179

>  <r_i_glide_ligand_efficiency_sa>  (117) 
-0.0978075

>  <r_i_glide_ligand_efficiency_ln>  (117) 
-0.252136

>  <r_i_glide_gscore>  (117) 
-1.20047

>  <r_i_glide_lipo>  (117) 
-0.342088

>  <r_i_glide_hbond>  (117) 
0

>  <r_i_glide_metal>  (117) 
-0

>  <r_i_glide_rewards>  (117) 
0

>  <r_i_glide_evdw>  (117) 
-22.0445

>  <r_i_glide_ecoul>  (117) 
1.74708

>  <r_i_glide_erotb>  (117) 
0

>  <r_i_glide_esite>  (117) 
-0.0182177

>  <r_i_glide_emodel>  (117) 
-21.9285

>  <r_i_glide_energy>  (117) 
-20.2974

>  <r_i_glide_einternal>  (117) 
0.0819214

>  <r_i_glide_intrahb_reward>  (117) 
-0

>  <i_i_glide_confnum>  (117) 
1

>  <i_i_glide_posenum>  (117) 
10

>  <r_i_glide_eff_state_penalty>  (117) 
0

>  <ligand_id>  (117) 
43

>  <original_smiles>  (117) 
COC1CC2C3C1C1C4C(C)(C)C(CC5C(C(OC)CCC5(C)C)C1(C)C)C(C)(O)OC41C4OC5(C)CC34C5(C)C3OC231

>  <smiles>  (117) 
[H]OC1(C([H])([H])[H])OC23C4([H])OC5(C([H])([H])[H])C([H])([H])C46C4([H])C([H])(C([H])(OC([H])([H])[H])C([H])([H])C4([H])C24OC4([H])C56C([H])([H])[H])C2([H])C3([H])C(C([H])([H])[H])(C([H])([H])[H])C1([H])C([H])([H])C1([H])C([H])(C([H])(OC([H])([H])[H])C([H])([H])C([H])([H])C1(C([H])([H])[H])C([H])([H])[H])C2(C([H])([H])[H])C([H])([H])[H]

$$$$
46:0:0
     RDKit          3D

 28 30  0  0  1  0  0  0  0  0999 V2000
    1.6956   -8.6722    2.7763 C   0  0  0  0  0  0  0  0  0  0  0  0
    1.1471   -7.6690    1.9135 O   0  0  0  0  0  0  0  0  0  0  0  0
    2.0052   -6.7037    1.4112 C   0  0  0  0  0  0  0  0  0  0  0  0
    3.3751   -6.6102    1.8122 C   0  0  0  0  0  0  0  0  0  0  0  0
    4.1599   -5.6306    1.2630 C   0  0  0  0  0  0  0  0  0  0  0  0
    3.5763   -4.7934    0.3696 N   0  0  0  0  0  0  0  0  0  0  0  0
    4.2076   -3.7650   -0.2762 N   0  0  0  0  0  0  0  0  0  0  0  0
    3.2745   -3.2692   -1.0567 C   0  0  0  0  0  0  0  0  0  0  0  0
    3.5843   -2.1510   -1.9410 C   0  0  0  0  0  0  0  0  0  0  0  0
    4.6030   -1.1812   -1.7535 C   0  0  0  0  0  0  0  0  0  0  0  0
    4.6001   -0.2835   -2.7216 N   0  0  0  0  0  0  0  0  0  0  0  0
    3.5955   -0.6527   -3.5409 N   0  0  0  0  0  0  0  0  0  0  0  0
    3.3311    0.1581   -4.7098 C   0  0  0  0  0  0  0  0  0  0  0  0
    2.9520   -1.7873   -3.0957 C   0  0  0  0  0  0  0  0  0  0  0  0
    2.0233   -3.9207   -0.9375 C   0  0  0  0  0  0  0  0  0  0  0  0
    2.2230   -4.9125   -0.0102 C   0  0  0  0  0  0  0  0  0  0  0  0
    1.4294   -5.8706    0.5329 N   0  0  0  0  0  0  0  0  0  0  0  0
    0.9390   -9.3861    3.1166 H   0  0  0  0  0  0  0  0  0  0  0  0
    2.1340   -8.2331    3.6753 H   0  0  0  0  0  0  0  0  0  0  0  0
    2.4719   -9.2412    2.2595 H   0  0  0  0  0  0  0  0  0  0  0  0
    3.8413   -7.2645    2.5348 H   0  0  0  0  0  0  0  0  0  0  0  0
    5.2055   -5.4773    1.5131 H   0  0  0  0  0  0  0  0  0  0  0  0
    5.3211   -1.0934   -0.9349 H   0  0  0  0  0  0  0  0  0  0  0  0
    2.4881   -0.2433   -5.2695 H   0  0  0  0  0  0  0  0  0  0  0  0
    4.2083    0.1832   -5.3554 H   0  0  0  0  0  0  0  0  0  0  0  0
    3.1022    1.1880   -4.4291 H   0  0  0  0  0  0  0  0  0  0  0  0
    2.1118   -2.2140   -3.6129 H   0  0  0  0  0  0  0  0  0  0  0  0
    1.1224   -3.7020   -1.4921 H   0  0  0  0  0  0  0  0  0  0  0  0
  1  2  1  0
  1 18  1  0
  1 19  1  0
  1 20  1  0
  2  3  1  0
  3 17  2  0
  3  4  1  0
  4  5  2  0
  4 21  1  0
  5  6  1  0
  5 22  1  0
  6 16  1  0
  6  7  1  0
  7  8  2  0
  8  9  1  0
  8 15  1  0
  9 14  2  0
  9 10  1  0
 10 11  2  0
 10 23  1  0
 11 12  1  0
 12 13  1  0
 12 14  1  0
 13 24  1  0
 13 25  1  0
 13 26  1  0
 14 27  1  0
 15 16  2  0
 15 28  1  0
 16 17  1  0
M  END
>  <i_m_ct_stereo_status>  (118) 
1

>  <s_m_source_file>  (118) 
/var/tmp/pbs.5076255.sched01/tmpjtt61wjg/4457_394l_.sdf

>  <i_m_source_file_index>  (118) 
15

>  <i_lp_mmshare_version>  (118) 
48012

>  <i_f3d_flags>  (118) 
0

>  <s_epik_input>  (118) 
W0NIM11PYyhbY0hdW2NIXTEpbmMobjEyKVtjSF1jKG4yKS1jM1tjSF1ubihbQ0gzXSlbY0hdMw==

>  <s_epik_cmdline>  (118) 
J2VwaWtfcHl0aG9uJywgJy1waHQnLCAnMi4wJywgJy1waCcsICc3LjAnLCAnLXRuJywgJzgnLCAnLW1hJywgJzIwMCcsICctaW1hZScsICc8aW5maWxlLm1hZT4nLCAnLW9tYWUnLCAnPG91dGZpbGUubWFlPic=

>  <r_lp_tautomer_probability>  (118) 
1

>  <r_epik_Ionization_Penalty>  (118) 
8.98178e-05

>  <r_epik_Ionization_Penalty_Charging>  (118) 
0

>  <r_epik_Ionization_Penalty_Neutral>  (118) 
8.98178e-05

>  <r_epik_State_Penalty>  (118) 
-0

>  <r_epik_Charging_Adjusted_Penalty>  (118) 
0

>  <i_epik_Tot_Q>  (118) 
0

>  <i_epik_Tot_abs_Q>  (118) 
0

>  <s_lp_Force_Field>  (118) 
OPLS3e

>  <r_lp_Energy>  (118) 
11.0089

>  <b_lp_Chiralities_Consistent>  (118) 
1

>  <s_lp_Variant>  (118) 
46:0-1

>  <s_i_glide_gridfile>  (118) 
pfpi4k_grid

>  <i_i_glide_lignum>  (118) 
15

>  <i_i_glide_rotatable_bonds>  (118) 
2

>  <r_i_docking_score>  (118) 
-3.90609

>  <r_i_glide_ligand_efficiency>  (118) 
-0.22977

>  <r_i_glide_ligand_efficiency_sa>  (118) 
-0.590803

>  <r_i_glide_ligand_efficiency_ln>  (118) 
-1.01901

>  <r_i_glide_gscore>  (118) 
-3.90609

>  <r_i_glide_lipo>  (118) 
-0.259168

>  <r_i_glide_hbond>  (118) 
-0.15648

>  <r_i_glide_metal>  (118) 
-0

>  <r_i_glide_rewards>  (118) 
-2.15629

>  <r_i_glide_evdw>  (118) 
-20.6616

>  <r_i_glide_ecoul>  (118) 
-3.66242

>  <r_i_glide_erotb>  (118) 
0.324616

>  <r_i_glide_esite>  (118) 
-0.0763181

>  <r_i_glide_emodel>  (118) 
-28.4828

>  <r_i_glide_energy>  (118) 
-24.324

>  <r_i_glide_einternal>  (118) 
5.26544

>  <r_i_glide_intrahb_reward>  (118) 
-0

>  <i_i_glide_confnum>  (118) 
3

>  <i_i_glide_posenum>  (118) 
12

>  <r_i_glide_eff_state_penalty>  (118) 
0

>  <ligand_id>  (118) 
46

>  <original_smiles>  (118) 
COc1ccn2nc(-c3cnn(C)c3)cc2n1

>  <smiles>  (118) 
[H]c1nn(C([H])([H])[H])c([H])c1-c1nn2c([H])c([H])c(OC([H])([H])[H])nc2c1[H]

$$$$
46:0:1
     RDKit          3D

 28 30  0  0  1  0  0  0  0  0999 V2000
    7.9786   -2.9397   -1.4611 C   0  0  0  0  0  0  0  0  0  0  0  0
    6.6934   -2.3302   -1.5098 O   0  0  0  0  0  0  0  0  0  0  0  0
    5.6038   -3.0132   -1.0044 C   0  0  0  0  0  0  0  0  0  0  0  0
    4.3360   -2.4084   -1.1692 C   0  0  0  0  0  0  0  0  0  0  0  0
    3.2216   -3.0502   -0.6865 C   0  0  0  0  0  0  0  0  0  0  0  0
    3.4029   -4.2478   -0.0644 N   0  0  0  0  0  0  0  0  0  0  0  0
    2.4257   -5.0378    0.4890 N   0  0  0  0  0  0  0  0  0  0  0  0
    3.0897   -6.0717    0.9538 C   0  0  0  0  0  0  0  0  0  0  0  0
    2.3718   -7.1579    1.6233 C   0  0  0  0  0  0  0  0  0  0  0  0
    1.0840   -7.0784    2.2251 C   0  0  0  0  0  0  0  0  0  0  0  0
    0.7181   -8.2391    2.7453 N   0  0  0  0  0  0  0  0  0  0  0  0
    1.7490   -9.0797    2.4841 N   0  0  0  0  0  0  0  0  0  0  0  0
    1.6672  -10.4604    2.9235 C   0  0  0  0  0  0  0  0  0  0  0  0
    2.7747   -8.4491    1.8052 C   0  0  0  0  0  0  0  0  0  0  0  0
    4.4896   -6.0011    0.7328 C   0  0  0  0  0  0  0  0  0  0  0  0
    4.6906   -4.8152    0.0755 C   0  0  0  0  0  0  0  0  0  0  0  0
    5.7864   -4.1855   -0.3906 N   0  0  0  0  0  0  0  0  0  0  0  0
    8.7019   -2.2562   -1.9017 H   0  0  0  0  0  0  0  0  0  0  0  0
    8.0097   -3.8501   -2.0509 H   0  0  0  0  0  0  0  0  0  0  0  0
    8.2951   -3.1509   -0.4396 H   0  0  0  0  0  0  0  0  0  0  0  0
    4.2365   -1.4515   -1.6639 H   0  0  0  0  0  0  0  0  0  0  0  0
    2.2134   -2.6576   -0.7675 H   0  0  0  0  0  0  0  0  0  0  0  0
    0.4163   -6.2327    2.3120 H   0  0  0  0  0  0  0  0  0  0  0  0
    2.5691  -11.0010    2.6333 H   0  0  0  0  0  0  0  0  0  0  0  0
    0.8007  -10.9518    2.4792 H   0  0  0  0  0  0  0  0  0  0  0  0
    1.5637  -10.5046    4.0083 H   0  0  0  0  0  0  0  0  0  0  0  0
    3.6749   -8.9697    1.5136 H   0  0  0  0  0  0  0  0  0  0  0  0
    5.2422   -6.7120    1.0218 H   0  0  0  0  0  0  0  0  0  0  0  0
  1  2  1  0
  1 18  1  0
  1 19  1  0
  1 20  1  0
  2  3  1  0
  3 17  2  0
  3  4  1  0
  4  5  2  0
  4 21  1  0
  5  6  1  0
  5 22  1  0
  6 16  1  0
  6  7  1  0
  7  8  2  0
  8  9  1  0
  8 15  1  0
  9 14  2  0
  9 10  1  0
 10 11  2  0
 10 23  1  0
 11 12  1  0
 12 13  1  0
 12 14  1  0
 13 24  1  0
 13 25  1  0
 13 26  1  0
 14 27  1  0
 15 16  2  0
 15 28  1  0
 16 17  1  0
M  END
>  <i_m_ct_stereo_status>  (119) 
1

>  <s_m_source_file>  (119) 
/var/tmp/pbs.5076255.sched01/tmpjtt61wjg/4457_394l_.sdf

>  <i_m_source_file_index>  (119) 
15

>  <i_lp_mmshare_version>  (119) 
48012

>  <i_f3d_flags>  (119) 
0

>  <s_epik_input>  (119) 
W0NIM11PYyhbY0hdW2NIXTEpbmMobjEyKVtjSF1jKG4yKS1jM1tjSF1ubihbQ0gzXSlbY0hdMw==

>  <s_epik_cmdline>  (119) 
J2VwaWtfcHl0aG9uJywgJy1waHQnLCAnMi4wJywgJy1waCcsICc3LjAnLCAnLXRuJywgJzgnLCAnLW1hJywgJzIwMCcsICctaW1hZScsICc8aW5maWxlLm1hZT4nLCAnLW9tYWUnLCAnPG91dGZpbGUubWFlPic=

>  <r_lp_tautomer_probability>  (119) 
1

>  <r_epik_Ionization_Penalty>  (119) 
8.98178e-05

>  <r_epik_Ionization_Penalty_Charging>  (119) 
0

>  <r_epik_Ionization_Penalty_Neutral>  (119) 
8.98178e-05

>  <r_epik_State_Penalty>  (119) 
-0

>  <r_epik_Charging_Adjusted_Penalty>  (119) 
0

>  <i_epik_Tot_Q>  (119) 
0

>  <i_epik_Tot_abs_Q>  (119) 
0

>  <s_lp_Force_Field>  (119) 
OPLS3e

>  <r_lp_Energy>  (119) 
11.0089

>  <b_lp_Chiralities_Consistent>  (119) 
1

>  <s_lp_Variant>  (119) 
46:0-1

>  <s_i_glide_gridfile>  (119) 
pfpi4k_grid

>  <i_i_glide_lignum>  (119) 
15

>  <i_i_glide_rotatable_bonds>  (119) 
2

>  <r_i_docking_score>  (119) 
-3.57259

>  <r_i_glide_ligand_efficiency>  (119) 
-0.210153

>  <r_i_glide_ligand_efficiency_sa>  (119) 
-0.540361

>  <r_i_glide_ligand_efficiency_ln>  (119) 
-0.93201

>  <r_i_glide_gscore>  (119) 
-3.57259

>  <r_i_glide_lipo>  (119) 
-0.245669

>  <r_i_glide_hbond>  (119) 
-0.16

>  <r_i_glide_metal>  (119) 
-0

>  <r_i_glide_rewards>  (119) 
-1.91462

>  <r_i_glide_evdw>  (119) 
-23.0392

>  <r_i_glide_ecoul>  (119) 
-2.69721

>  <r_i_glide_erotb>  (119) 
0.324616

>  <r_i_glide_esite>  (119) 
-0.0203804

>  <r_i_glide_emodel>  (119) 
-31.7122

>  <r_i_glide_energy>  (119) 
-25.7364

>  <r_i_glide_einternal>  (119) 
0.599019

>  <r_i_glide_intrahb_reward>  (119) 
-0

>  <i_i_glide_confnum>  (119) 
3

>  <i_i_glide_posenum>  (119) 
30

>  <r_i_glide_eff_state_penalty>  (119) 
0

>  <ligand_id>  (119) 
46

>  <original_smiles>  (119) 
COc1ccn2nc(-c3cnn(C)c3)cc2n1

>  <smiles>  (119) 
[H]c1nn(C([H])([H])[H])c([H])c1-c1nn2c([H])c([H])c(OC([H])([H])[H])nc2c1[H]

$$$$
46:0:2
     RDKit          3D

 28 30  0  0  1  0  0  0  0  0999 V2000
    6.5942   -2.6126   -2.1484 C   0  0  0  0  0  0  0  0  0  0  0  0
    6.5136   -3.5056   -1.0519 O   0  0  0  0  0  0  0  0  0  0  0  0
    5.2678   -3.9554   -0.6878 C   0  0  0  0  0  0  0  0  0  0  0  0
    4.0542   -3.3309   -1.1152 C   0  0  0  0  0  0  0  0  0  0  0  0
    2.8604   -3.8472   -0.6990 C   0  0  0  0  0  0  0  0  0  0  0  0
    2.8917   -4.9467    0.1025 N   0  0  0  0  0  0  0  0  0  0  0  0
    1.8105   -5.6108    0.5883 N   0  0  0  0  0  0  0  0  0  0  0  0
    2.3227   -6.5853    1.3018 C   0  0  0  0  0  0  0  0  0  0  0  0
    1.4241   -7.5080    2.0009 C   0  0  0  0  0  0  0  0  0  0  0  0
    0.0000   -7.4916    1.9970 C   0  0  0  0  0  0  0  0  0  0  0  0
   -0.5030   -8.4544    2.7570 N   0  0  0  0  0  0  0  0  0  0  0  0
    0.5706   -9.1261    3.2278 N   0  0  0  0  0  0  0  0  0  0  0  0
    0.3802  -10.2737    4.0905 C   0  0  0  0  0  0  0  0  0  0  0  0
    1.7576   -8.5672    2.7917 C   0  0  0  0  0  0  0  0  0  0  0  0
    3.7423   -6.5999    1.2934 C   0  0  0  0  0  0  0  0  0  0  0  0
    4.1081   -5.5350    0.5072 C   0  0  0  0  0  0  0  0  0  0  0  0
    5.2963   -5.0203    0.1110 N   0  0  0  0  0  0  0  0  0  0  0  0
    7.6371   -2.3158   -2.3201 H   0  0  0  0  0  0  0  0  0  0  0  0
    6.0505   -1.6825   -1.9624 H   0  0  0  0  0  0  0  0  0  0  0  0
    6.2037   -3.0733   -3.0588 H   0  0  0  0  0  0  0  0  0  0  0  0
    4.0005   -2.4588   -1.7646 H   0  0  0  0  0  0  0  0  0  0  0  0
    1.8976   -3.4343   -0.9917 H   0  0  0  0  0  0  0  0  0  0  0  0
   -0.6856   -6.8317    1.4856 H   0  0  0  0  0  0  0  0  0  0  0  0
    1.3397  -10.6922    4.3960 H   0  0  0  0  0  0  0  0  0  0  0  0
   -0.1829  -11.0516    3.5764 H   0  0  0  0  0  0  0  0  0  0  0  0
   -0.1551   -9.9790    4.9928 H   0  0  0  0  0  0  0  0  0  0  0  0
    2.7207   -8.9687    3.0865 H   0  0  0  0  0  0  0  0  0  0  0  0
    4.4084   -7.2979    1.7928 H   0  0  0  0  0  0  0  0  0  0  0  0
  1  2  1  0
  1 18  1  0
  1 19  1  0
  1 20  1  0
  2  3  1  0
  3 17  2  0
  3  4  1  0
  4  5  2  0
  4 21  1  0
  5  6  1  0
  5 22  1  0
  6 16  1  0
  6  7  1  0
  7  8  2  0
  8  9  1  0
  8 15  1  0
  9 14  2  0
  9 10  1  0
 10 11  2  0
 10 23  1  0
 11 12  1  0
 12 13  1  0
 12 14  1  0
 13 24  1  0
 13 25  1  0
 13 26  1  0
 14 27  1  0
 15 16  2  0
 15 28  1  0
 16 17  1  0
M  END
>  <i_m_ct_stereo_status>  (120) 
1

>  <s_m_source_file>  (120) 
/var/tmp/pbs.5076255.sched01/tmpjtt61wjg/4457_394l_.sdf

>  <i_m_source_file_index>  (120) 
15

>  <i_lp_mmshare_version>  (120) 
48012

>  <i_f3d_flags>  (120) 
0

>  <s_epik_input>  (120) 
W0NIM11PYyhbY0hdW2NIXTEpbmMobjEyKVtjSF1jKG4yKS1jM1tjSF1ubihbQ0gzXSlbY0hdMw==

>  <s_epik_cmdline>  (120) 
J2VwaWtfcHl0aG9uJywgJy1waHQnLCAnMi4wJywgJy1waCcsICc3LjAnLCAnLXRuJywgJzgnLCAnLW1hJywgJzIwMCcsICctaW1hZScsICc8aW5maWxlLm1hZT4nLCAnLW9tYWUnLCAnPG91dGZpbGUubWFlPic=

>  <r_lp_tautomer_probability>  (120) 
1

>  <r_epik_Ionization_Penalty>  (120) 
8.98178e-05

>  <r_epik_Ionization_Penalty_Charging>  (120) 
0

>  <r_epik_Ionization_Penalty_Neutral>  (120) 
8.98178e-05

>  <r_epik_State_Penalty>  (120) 
-0

>  <r_epik_Charging_Adjusted_Penalty>  (120) 
0

>  <i_epik_Tot_Q>  (120) 
0

>  <i_epik_Tot_abs_Q>  (120) 
0

>  <s_lp_Force_Field>  (120) 
OPLS3e

>  <r_lp_Energy>  (120) 
11.0089

>  <b_lp_Chiralities_Consistent>  (120) 
1

>  <s_lp_Variant>  (120) 
46:0-1

>  <s_i_glide_gridfile>  (120) 
pfpi4k_grid

>  <i_i_glide_lignum>  (120) 
15

>  <i_i_glide_rotatable_bonds>  (120) 
2

>  <r_i_docking_score>  (120) 
-3.38548

>  <r_i_glide_ligand_efficiency>  (120) 
-0.199146

>  <r_i_glide_ligand_efficiency_sa>  (120) 
-0.51206

>  <r_i_glide_ligand_efficiency_ln>  (120) 
-0.883196

>  <r_i_glide_gscore>  (120) 
-3.38548

>  <r_i_glide_lipo>  (120) 
-0.12363

>  <r_i_glide_hbond>  (120) 
-0.0955455

>  <r_i_glide_metal>  (120) 
-0

>  <r_i_glide_rewards>  (120) 
-1.92653

>  <r_i_glide_evdw>  (120) 
-22.663

>  <r_i_glide_ecoul>  (120) 
-2.45026

>  <r_i_glide_erotb>  (120) 
0.324616

>  <r_i_glide_esite>  (120) 
-0.0636982

>  <r_i_glide_emodel>  (120) 
-28.4499

>  <r_i_glide_energy>  (120) 
-25.1133

>  <r_i_glide_einternal>  (120) 
5.01963

>  <r_i_glide_intrahb_reward>  (120) 
-0

>  <i_i_glide_confnum>  (120) 
3

>  <i_i_glide_posenum>  (120) 
24

>  <r_i_glide_eff_state_penalty>  (120) 
0

>  <ligand_id>  (120) 
46

>  <original_smiles>  (120) 
COc1ccn2nc(-c3cnn(C)c3)cc2n1

>  <smiles>  (120) 
[H]c1nn(C([H])([H])[H])c([H])c1-c1nn2c([H])c([H])c(OC([H])([H])[H])nc2c1[H]

$$$$
47:0:0
     RDKit          3D

 26 28  0  0  1  0  0  0  0  0999 V2000
    7.8272   -3.6474    0.0755 C   0  0  0  0  0  0  0  0  0  0  0  0
    6.5987   -3.1993   -0.6605 C   0  0  0  0  0  0  0  0  0  0  0  0
    6.7138   -2.2559   -1.5810 N   0  0  0  0  0  0  0  0  0  0  0  0
    5.4219   -2.0141   -2.0675 O   0  0  0  0  0  0  0  0  0  0  0  0
    4.5358   -2.8258   -1.4291 C   0  0  0  0  0  0  0  0  0  0  0  0
    3.1012   -2.6575   -1.8391 C   0  0  0  0  0  0  0  0  0  0  0  0
    5.2374   -3.6095   -0.5459 C   0  0  0  0  0  0  0  0  0  0  0  0
    4.7075   -4.6339    0.4258 C   0  0  0  0  0  0  0  0  0  0  0  0
    5.3535   -4.9818    1.4137 O   0  0  0  0  0  0  0  0  0  0  0  0
    3.5191   -5.1512    0.0852 N   0  0  0  0  0  0  0  0  0  0  0  0
    2.6506   -5.9609    0.8425 C   0  0  0  0  0  0  0  0  0  0  0  0
    2.9962   -6.7916    1.8700 N   0  0  0  0  0  0  0  0  0  0  0  0
    1.7859   -7.3056    2.1124 N   0  0  0  0  0  0  0  0  0  0  0  0
    1.3273   -8.1704    2.9996 C   0  0  0  0  0  0  0  0  0  0  0  0
   -0.0135   -8.2177    2.7954 N   0  0  0  0  0  0  0  0  0  0  0  0
   -0.3359   -7.3168    1.7185 N   0  0  0  0  0  0  0  0  0  0  0  0
    0.8284   -6.8478    1.3639 C   0  0  0  0  0  0  0  0  0  0  0  0
    1.2955   -5.9394    0.4805 O   0  0  0  0  0  0  0  0  0  0  0  0
    7.7196   -4.6498    0.4848 H   0  0  0  0  0  0  0  0  0  0  0  0
    8.0414   -2.9749    0.9033 H   0  0  0  0  0  0  0  0  0  0  0  0
    8.7020   -3.6544   -0.5749 H   0  0  0  0  0  0  0  0  0  0  0  0
    2.4126   -3.0915   -1.1219 H   0  0  0  0  0  0  0  0  0  0  0  0
    2.9132   -3.1152   -2.8083 H   0  0  0  0  0  0  0  0  0  0  0  0
    2.8493   -1.6029   -1.9194 H   0  0  0  0  0  0  0  0  0  0  0  0
    1.9023   -8.7146    3.7384 H   0  0  0  0  0  0  0  0  0  0  0  0
    3.1184   -4.7944   -0.7691 H   0  0  0  0  0  0  0  0  0  0  0  0
  1  2  1  0
  1 19  1  0
  1 20  1  0
  1 21  1  0
  2  7  1  0
  2  3  2  0
  3  4  1  0
  4  5  1  0
  5  6  1  0
  5  7  2  0
  6 22  1  0
  6 23  1  0
  6 24  1  0
  7  8  1  0
  8  9  2  0
  8 10  1  0
 10 11  1  0
 10 26  1  0
 11 18  1  0
 11 12  2  0
 12 13  1  0
 13 17  1  0
 13 14  1  0
 14 15  2  0
 14 25  1  0
 15 16  1  0
 16 17  2  0
 17 18  1  0
M  END
>  <i_m_ct_stereo_status>  (121) 
1

>  <s_m_source_file>  (121) 
/var/tmp/pbs.5076255.sched01/tmpjtt61wjg/4457_394l_.sdf

>  <i_m_source_file_index>  (121) 
16

>  <i_lp_mmshare_version>  (121) 
48012

>  <i_f3d_flags>  (121) 
0

>  <s_epik_input>  (121) 
W0NIM11jMW5vYyhbQ0gzXSljMUMoPU8pL049YygvW25IXTIpb2MobjIzKW5uW2NIXTM=

>  <s_epik_cmdline>  (121) 
J2VwaWtfcHl0aG9uJywgJy1waHQnLCAnMi4wJywgJy1waCcsICc3LjAnLCAnLXRuJywgJzgnLCAnLW1hJywgJzIwMCcsICctaW1hZScsICc8aW5maWxlLm1hZT4nLCAnLW9tYWUnLCAnPG91dGZpbGUubWFlPic=

>  <r_epik_Ionization_Penalty>  (121) 
0.0100049

>  <r_epik_Ionization_Penalty_Charging>  (121) 
0

>  <r_epik_Ionization_Penalty_Neutral>  (121) 
0.0100049

>  <r_epik_State_Penalty>  (121) 
0.00762821

>  <r_epik_Charging_Adjusted_Penalty>  (121) 
0.00762821

>  <i_epik_Tot_Q>  (121) 
0

>  <i_epik_Tot_abs_Q>  (121) 
0

>  <s_lp_Force_Field>  (121) 
OPLS3e

>  <r_lp_Energy>  (121) 
5.14479

>  <b_lp_Chiralities_Consistent>  (121) 
1

>  <s_lp_Variant>  (121) 
47:0-1

>  <s_i_glide_gridfile>  (121) 
pfpi4k_grid

>  <i_i_glide_lignum>  (121) 
16

>  <i_i_glide_rotatable_bonds>  (121) 
3

>  <r_i_docking_score>  (121) 
-3.88023

>  <r_i_glide_ligand_efficiency>  (121) 
-0.215568

>  <r_i_glide_ligand_efficiency_sa>  (121) 
-0.564949

>  <r_i_glide_ligand_efficiency_ln>  (121) 
-0.997394

>  <r_i_glide_gscore>  (121) 
-3.88023

>  <r_i_glide_lipo>  (121) 
-0.338551

>  <r_i_glide_hbond>  (121) 
-0.21536

>  <r_i_glide_metal>  (121) 
-0

>  <r_i_glide_rewards>  (121) 
-1.7864

>  <r_i_glide_evdw>  (121) 
-23.5542

>  <r_i_glide_ecoul>  (121) 
-5.60203

>  <r_i_glide_erotb>  (121) 
0.850476

>  <r_i_glide_esite>  (121) 
-0.372386

>  <r_i_glide_emodel>  (121) 
-36.5276

>  <r_i_glide_energy>  (121) 
-29.1562

>  <r_i_glide_einternal>  (121) 
0.858683

>  <r_i_glide_intrahb_reward>  (121) 
-0

>  <i_i_glide_confnum>  (121) 
4

>  <i_i_glide_posenum>  (121) 
4

>  <r_i_glide_eff_state_penalty>  (121) 
0

>  <ligand_id>  (121) 
47

>  <original_smiles>  (121) 
Cc1noc(C)c1C(=O)N=c1[nH]n2cnnc2o1

>  <smiles>  (121) 
[H]c1nnc2oc(N([H])C(=O)c3c(C([H])([H])[H])noc3C([H])([H])[H])nn12

$$$$
47:0:1
     RDKit          3D

 26 28  0  0  1  0  0  0  0  0999 V2000
    3.3071   -9.5036    1.6628 C   0  0  0  0  0  0  0  0  0  0  0  0
    1.9164   -9.3481    2.2492 C   0  0  0  0  0  0  0  0  0  0  0  0
    1.3979  -10.3837    2.9039 N   0  0  0  0  0  0  0  0  0  0  0  0
    0.1048  -10.0091    3.2916 O   0  0  0  0  0  0  0  0  0  0  0  0
   -0.1354   -8.7357    2.8667 C   0  0  0  0  0  0  0  0  0  0  0  0
   -1.4977   -8.2041    3.1853 C   0  0  0  0  0  0  0  0  0  0  0  0
    0.9806   -8.2635    2.2178 C   0  0  0  0  0  0  0  0  0  0  0  0
    1.1310   -6.9417    1.5215 C   0  0  0  0  0  0  0  0  0  0  0  0
    0.1486   -6.2606    1.2339 O   0  0  0  0  0  0  0  0  0  0  0  0
    2.3988   -6.5788    1.3028 N   0  0  0  0  0  0  0  0  0  0  0  0
    2.9582   -5.5183    0.5694 C   0  0  0  0  0  0  0  0  0  0  0  0
    2.2769   -4.4835    0.0035 N   0  0  0  0  0  0  0  0  0  0  0  0
    3.3278   -3.8284   -0.5152 N   0  0  0  0  0  0  0  0  0  0  0  0
    3.4391   -2.6983   -1.1942 C   0  0  0  0  0  0  0  0  0  0  0  0
    4.7694   -2.5489   -1.4241 N   0  0  0  0  0  0  0  0  0  0  0  0
    5.4516   -3.6764   -0.8264 N   0  0  0  0  0  0  0  0  0  0  0  0
    4.4844   -4.3822   -0.3150 C   0  0  0  0  0  0  0  0  0  0  0  0
    4.3531   -5.5193    0.4003 O   0  0  0  0  0  0  0  0  0  0  0  0
    3.8424   -8.5685    1.5269 H   0  0  0  0  0  0  0  0  0  0  0  0
    3.2513   -9.9622    0.6778 H   0  0  0  0  0  0  0  0  0  0  0  0
    3.9486  -10.1071    2.3055 H   0  0  0  0  0  0  0  0  0  0  0  0
   -1.7497   -7.3234    2.5950 H   0  0  0  0  0  0  0  0  0  0  0  0
   -1.5818   -7.9418    4.2418 H   0  0  0  0  0  0  0  0  0  0  0  0
   -2.2572   -8.9606    2.9808 H   0  0  0  0  0  0  0  0  0  0  0  0
    2.6433   -2.0279   -1.5022 H   0  0  0  0  0  0  0  0  0  0  0  0
    3.0834   -7.2379    1.6213 H   0  0  0  0  0  0  0  0  0  0  0  0
  1  2  1  0
  1 19  1  0
  1 20  1  0
  1 21  1  0
  2  7  1  0
  2  3  2  0
  3  4  1  0
  4  5  1  0
  5  6  1  0
  5  7  2  0
  6 22  1  0
  6 23  1  0
  6 24  1  0
  7  8  1  0
  8  9  2  0
  8 10  1  0
 10 11  1  0
 10 26  1  0
 11 18  1  0
 11 12  2  0
 12 13  1  0
 13 17  1  0
 13 14  1  0
 14 15  2  0
 14 25  1  0
 15 16  1  0
 16 17  2  0
 17 18  1  0
M  END
>  <i_m_ct_stereo_status>  (122) 
1

>  <s_m_source_file>  (122) 
/var/tmp/pbs.5076255.sched01/tmpjtt61wjg/4457_394l_.sdf

>  <i_m_source_file_index>  (122) 
16

>  <i_lp_mmshare_version>  (122) 
48012

>  <i_f3d_flags>  (122) 
0

>  <s_epik_input>  (122) 
W0NIM11jMW5vYyhbQ0gzXSljMUMoPU8pL049YygvW25IXTIpb2MobjIzKW5uW2NIXTM=

>  <s_epik_cmdline>  (122) 
J2VwaWtfcHl0aG9uJywgJy1waHQnLCAnMi4wJywgJy1waCcsICc3LjAnLCAnLXRuJywgJzgnLCAnLW1hJywgJzIwMCcsICctaW1hZScsICc8aW5maWxlLm1hZT4nLCAnLW9tYWUnLCAnPG91dGZpbGUubWFlPic=

>  <r_epik_Ionization_Penalty>  (122) 
0.0100049

>  <r_epik_Ionization_Penalty_Charging>  (122) 
0

>  <r_epik_Ionization_Penalty_Neutral>  (122) 
0.0100049

>  <r_epik_State_Penalty>  (122) 
0.00762821

>  <r_epik_Charging_Adjusted_Penalty>  (122) 
0.00762821

>  <i_epik_Tot_Q>  (122) 
0

>  <i_epik_Tot_abs_Q>  (122) 
0

>  <s_lp_Force_Field>  (122) 
OPLS3e

>  <r_lp_Energy>  (122) 
5.14479

>  <b_lp_Chiralities_Consistent>  (122) 
1

>  <s_lp_Variant>  (122) 
47:0-1

>  <s_i_glide_gridfile>  (122) 
pfpi4k_grid

>  <i_i_glide_lignum>  (122) 
16

>  <i_i_glide_rotatable_bonds>  (122) 
3

>  <r_i_docking_score>  (122) 
-3.3605

>  <r_i_glide_ligand_efficiency>  (122) 
-0.186694

>  <r_i_glide_ligand_efficiency_sa>  (122) 
-0.489278

>  <r_i_glide_ligand_efficiency_ln>  (122) 
-0.863799

>  <r_i_glide_gscore>  (122) 
-3.3605

>  <r_i_glide_lipo>  (122) 
-0.0763031

>  <r_i_glide_hbond>  (122) 
-0.218287

>  <r_i_glide_metal>  (122) 
-0

>  <r_i_glide_rewards>  (122) 
-1.71683

>  <r_i_glide_evdw>  (122) 
-24.136

>  <r_i_glide_ecoul>  (122) 
-5.52155

>  <r_i_glide_erotb>  (122) 
0.850476

>  <r_i_glide_esite>  (122) 
-0.164521

>  <r_i_glide_emodel>  (122) 
-35.8555

>  <r_i_glide_energy>  (122) 
-29.6575

>  <r_i_glide_einternal>  (122) 
0.61629

>  <r_i_glide_intrahb_reward>  (122) 
-0

>  <i_i_glide_confnum>  (122) 
6

>  <i_i_glide_posenum>  (122) 
1

>  <r_i_glide_eff_state_penalty>  (122) 
0

>  <ligand_id>  (122) 
47

>  <original_smiles>  (122) 
Cc1noc(C)c1C(=O)N=c1[nH]n2cnnc2o1

>  <smiles>  (122) 
[H]c1nnc2oc(N([H])C(=O)c3c(C([H])([H])[H])noc3C([H])([H])[H])nn12

$$$$
47:0:2
     RDKit          3D

 26 28  0  0  1  0  0  0  0  0999 V2000
   -1.0538   -8.3892    2.5060 C   0  0  0  0  0  0  0  0  0  0  0  0
    0.3681   -8.8788    2.5007 C   0  0  0  0  0  0  0  0  0  0  0  0
    0.6328  -10.0748    3.0060 N   0  0  0  0  0  0  0  0  0  0  0  0
    2.0167  -10.2603    2.8817 O   0  0  0  0  0  0  0  0  0  0  0  0
    2.5725   -9.1630    2.3032 C   0  0  0  0  0  0  0  0  0  0  0  0
    4.0647   -9.2297    2.1234 C   0  0  0  0  0  0  0  0  0  0  0  0
    1.5655   -8.2588    2.0406 C   0  0  0  0  0  0  0  0  0  0  0  0
    1.6585   -6.9097    1.3779 C   0  0  0  0  0  0  0  0  0  0  0  0
    0.6484   -6.2572    1.0991 O   0  0  0  0  0  0  0  0  0  0  0  0
    2.9112   -6.5130    1.1024 N   0  0  0  0  0  0  0  0  0  0  0  0
    3.4015   -5.3589    0.4617 C   0  0  0  0  0  0  0  0  0  0  0  0
    2.6806   -4.2546    0.1167 N   0  0  0  0  0  0  0  0  0  0  0  0
    3.6755   -3.5437   -0.4290 N   0  0  0  0  0  0  0  0  0  0  0  0
    3.7449   -2.3384   -0.9646 C   0  0  0  0  0  0  0  0  0  0  0  0
    5.0450   -2.1666   -1.3167 N   0  0  0  0  0  0  0  0  0  0  0  0
    5.7653   -3.3589   -0.9478 N   0  0  0  0  0  0  0  0  0  0  0  0
    4.8412   -4.1245   -0.4246 C   0  0  0  0  0  0  0  0  0  0  0  0
    4.7688   -5.3396    0.1549 O   0  0  0  0  0  0  0  0  0  0  0  0
   -1.2416   -7.6566    1.7261 H   0  0  0  0  0  0  0  0  0  0  0  0
   -1.2923   -7.9214    3.4578 H   0  0  0  0  0  0  0  0  0  0  0  0
   -1.7623   -9.1990    2.3387 H   0  0  0  0  0  0  0  0  0  0  0  0
    4.5224   -8.2667    1.9283 H   0  0  0  0  0  0  0  0  0  0  0  0
    4.3403   -9.8948    1.3058 H   0  0  0  0  0  0  0  0  0  0  0  0
    4.5318   -9.6054    3.0320 H   0  0  0  0  0  0  0  0  0  0  0  0
    2.9367   -1.6316   -1.0907 H   0  0  0  0  0  0  0  0  0  0  0  0
    3.6210   -7.1887    1.3201 H   0  0  0  0  0  0  0  0  0  0  0  0
  1  2  1  0
  1 19  1  0
  1 20  1  0
  1 21  1  0
  2  7  1  0
  2  3  2  0
  3  4  1  0
  4  5  1  0
  5  6  1  0
  5  7  2  0
  6 22  1  0
  6 23  1  0
  6 24  1  0
  7  8  1  0
  8  9  2  0
  8 10  1  0
 10 11  1  0
 10 26  1  0
 11 18  1  0
 11 12  2  0
 12 13  1  0
 13 17  1  0
 13 14  1  0
 14 15  2  0
 14 25  1  0
 15 16  1  0
 16 17  2  0
 17 18  1  0
M  END
>  <i_m_ct_stereo_status>  (123) 
1

>  <s_m_source_file>  (123) 
/var/tmp/pbs.5076255.sched01/tmpjtt61wjg/4457_394l_.sdf

>  <i_m_source_file_index>  (123) 
16

>  <i_lp_mmshare_version>  (123) 
48012

>  <i_f3d_flags>  (123) 
0

>  <s_epik_input>  (123) 
W0NIM11jMW5vYyhbQ0gzXSljMUMoPU8pL049YygvW25IXTIpb2MobjIzKW5uW2NIXTM=

>  <s_epik_cmdline>  (123) 
J2VwaWtfcHl0aG9uJywgJy1waHQnLCAnMi4wJywgJy1waCcsICc3LjAnLCAnLXRuJywgJzgnLCAnLW1hJywgJzIwMCcsICctaW1hZScsICc8aW5maWxlLm1hZT4nLCAnLW9tYWUnLCAnPG91dGZpbGUubWFlPic=

>  <r_epik_Ionization_Penalty>  (123) 
0.0100049

>  <r_epik_Ionization_Penalty_Charging>  (123) 
0

>  <r_epik_Ionization_Penalty_Neutral>  (123) 
0.0100049

>  <r_epik_State_Penalty>  (123) 
0.00762821

>  <r_epik_Charging_Adjusted_Penalty>  (123) 
0.00762821

>  <i_epik_Tot_Q>  (123) 
0

>  <i_epik_Tot_abs_Q>  (123) 
0

>  <s_lp_Force_Field>  (123) 
OPLS3e

>  <r_lp_Energy>  (123) 
5.14479

>  <b_lp_Chiralities_Consistent>  (123) 
1

>  <s_lp_Variant>  (123) 
47:0-1

>  <s_i_glide_gridfile>  (123) 
pfpi4k_grid

>  <i_i_glide_lignum>  (123) 
16

>  <i_i_glide_rotatable_bonds>  (123) 
3

>  <r_i_docking_score>  (123) 
-3.15116

>  <r_i_glide_ligand_efficiency>  (123) 
-0.175064

>  <r_i_glide_ligand_efficiency_sa>  (123) 
-0.458798

>  <r_i_glide_ligand_efficiency_ln>  (123) 
-0.809988

>  <r_i_glide_gscore>  (123) 
-3.15116

>  <r_i_glide_lipo>  (123) 
0

>  <r_i_glide_hbond>  (123) 
-0.16

>  <r_i_glide_metal>  (123) 
-0

>  <r_i_glide_rewards>  (123) 
-1.79209

>  <r_i_glide_evdw>  (123) 
-24.3959

>  <r_i_glide_ecoul>  (123) 
-4.80534

>  <r_i_glide_erotb>  (123) 
0.850476

>  <r_i_glide_esite>  (123) 
-0.108951

>  <r_i_glide_emodel>  (123) 
-35.1621

>  <r_i_glide_energy>  (123) 
-29.2012

>  <r_i_glide_einternal>  (123) 
0.568274

>  <r_i_glide_intrahb_reward>  (123) 
-0

>  <i_i_glide_confnum>  (123) 
4

>  <i_i_glide_posenum>  (123) 
20

>  <r_i_glide_eff_state_penalty>  (123) 
0

>  <ligand_id>  (123) 
47

>  <original_smiles>  (123) 
Cc1noc(C)c1C(=O)N=c1[nH]n2cnnc2o1

>  <smiles>  (123) 
[H]c1nnc2oc(N([H])C(=O)c3c(C([H])([H])[H])noc3C([H])([H])[H])nn12

$$$$
47:1:0
     RDKit          3D

 25 27  0  0  1  0  0  0  0  0999 V2000
    5.9601   -3.2064    1.5885 C   0  0  0  0  0  0  0  0  0  0  0  0
    5.0330   -3.1387    0.4018 C   0  0  0  0  0  0  0  0  0  0  0  0
    5.4083   -2.3711   -0.6127 N   0  0  0  0  0  0  0  0  0  0  0  0
    4.3921   -2.4667   -1.5716 O   0  0  0  0  0  0  0  0  0  0  0  0
    3.4136   -3.3004   -1.1147 C   0  0  0  0  0  0  0  0  0  0  0  0
    2.2765   -3.4564   -2.0699 C   0  0  0  0  0  0  0  0  0  0  0  0
    3.7832   -3.7807    0.1259 C   0  0  0  0  0  0  0  0  0  0  0  0
    3.0326   -4.7090    1.0709 C   0  0  0  0  0  0  0  0  0  0  0  0
    3.2260   -4.5824    2.2885 O   0  0  0  0  0  0  0  0  0  0  0  0
    2.2167   -5.6189    0.4574 N   0  0  0  0  0  0  0  0  0  0  0  0
    1.4367   -6.4746    1.1617 C   0  0  0  0  0  0  0  0  0  0  0  0
    1.8887   -7.6335    1.7234 N   0  0  0  0  0  0  0  0  0  0  0  0
    0.7355   -8.0881    2.1959 N   0  0  0  0  0  0  0  0  0  0  0  0
    0.4098   -9.1723    2.8720 C   0  0  0  0  0  0  0  0  0  0  0  0
   -0.9286   -9.0781    3.0917 N   0  0  0  0  0  0  0  0  0  0  0  0
   -1.3899   -7.8438    2.4882 N   0  0  0  0  0  0  0  0  0  0  0  0
   -0.3060   -7.3481    1.9540 C   0  0  0  0  0  0  0  0  0  0  0  0
    0.0448   -6.2596    1.2241 O   0  0  0  0  0  0  0  0  0  0  0  0
    5.5917   -3.8531    2.3775 H   0  0  0  0  0  0  0  0  0  0  0  0
    6.1201   -2.2194    2.0229 H   0  0  0  0  0  0  0  0  0  0  0  0
    6.9384   -3.5859    1.2963 H   0  0  0  0  0  0  0  0  0  0  0  0
    1.4973   -4.1184   -1.6987 H   0  0  0  0  0  0  0  0  0  0  0  0
    2.6363   -3.8461   -3.0249 H   0  0  0  0  0  0  0  0  0  0  0  0
    1.8232   -2.4914   -2.3169 H   0  0  0  0  0  0  0  0  0  0  0  0
    1.0610   -9.9849    3.1862 H   0  0  0  0  0  0  0  0  0  0  0  0
  1  2  1  0
  1 19  1  0
  1 20  1  0
  1 21  1  0
  2  7  1  0
  2  3  2  0
  3  4  1  0
  4  5  1  0
  5  6  1  0
  5  7  2  0
  6 22  1  0
  6 23  1  0
  6 24  1  0
  7  8  1  0
  8  9  2  0
  8 10  1  0
 10 11  1  0
 11 18  1  0
 11 12  2  0
 12 13  1  0
 13 17  1  0
 13 14  1  0
 14 15  2  0
 14 25  1  0
 15 16  1  0
 16 17  2  0
 17 18  1  0
M  CHG  1  10  -1
M  END
>  <i_m_ct_stereo_status>  (124) 
1

>  <s_m_source_file>  (124) 
/var/tmp/pbs.5076255.sched01/tmpjtt61wjg/4457_394l_.sdf

>  <i_m_source_file_index>  (124) 
17

>  <i_lp_mmshare_version>  (124) 
48012

>  <i_f3d_flags>  (124) 
0

>  <s_epik_input>  (124) 
W0NIM11jMW5vYyhbQ0gzXSljMUMoPU8pL049YygvW25IXTIpb2MobjIzKW5uW2NIXTM=

>  <s_epik_cmdline>  (124) 
J2VwaWtfcHl0aG9uJywgJy1waHQnLCAnMi4wJywgJy1waCcsICc3LjAnLCAnLXRuJywgJzgnLCAnLW1hJywgJzIwMCcsICctaW1hZScsICc8aW5maWxlLm1hZT4nLCAnLW9tYWUnLCAnPG91dGZpbGUubWFlPic=

>  <r_epik_Ionization_Penalty>  (124) 
2.42309

>  <r_epik_Ionization_Penalty_Charging>  (124) 
2.42309

>  <r_epik_Ionization_Penalty_Neutral>  (124) 
5.73416e-08

>  <r_epik_State_Penalty>  (124) 
2.58259

>  <r_epik_Charging_Adjusted_Penalty>  (124) 
5.00568

>  <i_epik_Tot_Q>  (124) 
-1

>  <i_epik_Tot_abs_Q>  (124) 
1

>  <s_lp_Force_Field>  (124) 
OPLS3e

>  <r_lp_Energy>  (124) 
17.1456

>  <b_lp_Chiralities_Consistent>  (124) 
1

>  <s_lp_Variant>  (124) 
47:0-2

>  <s_i_glide_gridfile>  (124) 
pfpi4k_grid

>  <i_i_glide_lignum>  (124) 
17

>  <i_i_glide_rotatable_bonds>  (124) 
3

>  <r_i_docking_score>  (124) 
-3.48694

>  <r_i_glide_ligand_efficiency>  (124) 
-0.193719

>  <r_i_glide_ligand_efficiency_sa>  (124) 
-0.507688

>  <r_i_glide_ligand_efficiency_ln>  (124) 
-0.896301

>  <r_i_glide_gscore>  (124) 
-3.48694

>  <r_i_glide_lipo>  (124) 
-0.330733

>  <r_i_glide_hbond>  (124) 
-0.240556

>  <r_i_glide_metal>  (124) 
-0

>  <r_i_glide_rewards>  (124) 
-1.7237

>  <r_i_glide_evdw>  (124) 
-22.9278

>  <r_i_glide_ecoul>  (124) 
-4.14276

>  <r_i_glide_erotb>  (124) 
0.856423

>  <r_i_glide_esite>  (124) 
-0.280571

>  <r_i_glide_emodel>  (124) 
-34.2049

>  <r_i_glide_energy>  (124) 
-27.0705

>  <r_i_glide_einternal>  (124) 
0.307288

>  <r_i_glide_intrahb_reward>  (124) 
-0

>  <i_i_glide_confnum>  (124) 
5

>  <i_i_glide_posenum>  (124) 
2

>  <r_i_glide_eff_state_penalty>  (124) 
0

>  <ligand_id>  (124) 
47

>  <original_smiles>  (124) 
Cc1noc(C)c1C(=O)N=c1[nH]n2cnnc2o1

>  <smiles>  (124) 
[H]c1nnc2oc([N-]C(=O)c3c(C([H])([H])[H])noc3C([H])([H])[H])nn12

$$$$
47:1:1
     RDKit          3D

 25 27  0  0  1  0  0  0  0  0999 V2000
    6.0583   -1.8858    1.0211 C   0  0  0  0  0  0  0  0  0  0  0  0
    5.1711   -2.0877   -0.1727 C   0  0  0  0  0  0  0  0  0  0  0  0
    5.4194   -1.3634   -1.2490 N   0  0  0  0  0  0  0  0  0  0  0  0
    4.4627   -1.7239   -2.2013 O   0  0  0  0  0  0  0  0  0  0  0  0
    3.6464   -2.6761   -1.6773 C   0  0  0  0  0  0  0  0  0  0  0  0
    2.5662   -3.1103   -2.6104 C   0  0  0  0  0  0  0  0  0  0  0  0
    4.0719   -2.9642   -0.3946 C   0  0  0  0  0  0  0  0  0  0  0  0
    3.4616   -3.8873    0.6346 C   0  0  0  0  0  0  0  0  0  0  0  0
    3.3865   -3.4929    1.8014 O   0  0  0  0  0  0  0  0  0  0  0  0
    3.0545   -5.0870    0.1328 N   0  0  0  0  0  0  0  0  0  0  0  0
    2.3234   -5.9486    0.8734 C   0  0  0  0  0  0  0  0  0  0  0  0
    2.8463   -6.8409    1.7684 N   0  0  0  0  0  0  0  0  0  0  0  0
    1.7165   -7.4759    2.1171 N   0  0  0  0  0  0  0  0  0  0  0  0
    1.4543   -8.4280    2.9912 C   0  0  0  0  0  0  0  0  0  0  0  0
    0.1020   -8.5909    2.9603 N   0  0  0  0  0  0  0  0  0  0  0  0
   -0.4310   -7.6463    1.9997 N   0  0  0  0  0  0  0  0  0  0  0  0
    0.6384   -7.0539    1.5260 C   0  0  0  0  0  0  0  0  0  0  0  0
    0.9360   -6.0571    0.6587 O   0  0  0  0  0  0  0  0  0  0  0  0
    5.7811   -2.5221    1.8550 H   0  0  0  0  0  0  0  0  0  0  0  0
    6.0383   -0.8540    1.3688 H   0  0  0  0  0  0  0  0  0  0  0  0
    7.0936   -2.1091    0.7755 H   0  0  0  0  0  0  0  0  0  0  0  0
    1.9154   -3.8605   -2.1711 H   0  0  0  0  0  0  0  0  0  0  0  0
    2.9998   -3.5214   -3.5237 H   0  0  0  0  0  0  0  0  0  0  0  0
    1.9503   -2.2634   -2.9201 H   0  0  0  0  0  0  0  0  0  0  0  0
    2.1671   -8.9639    3.6134 H   0  0  0  0  0  0  0  0  0  0  0  0
  1  2  1  0
  1 19  1  0
  1 20  1  0
  1 21  1  0
  2  7  1  0
  2  3  2  0
  3  4  1  0
  4  5  1  0
  5  6  1  0
  5  7  2  0
  6 22  1  0
  6 23  1  0
  6 24  1  0
  7  8  1  0
  8  9  2  0
  8 10  1  0
 10 11  1  0
 11 18  1  0
 11 12  2  0
 12 13  1  0
 13 17  1  0
 13 14  1  0
 14 15  2  0
 14 25  1  0
 15 16  1  0
 16 17  2  0
 17 18  1  0
M  CHG  1  10  -1
M  END
>  <i_m_ct_stereo_status>  (125) 
1

>  <s_m_source_file>  (125) 
/var/tmp/pbs.5076255.sched01/tmpjtt61wjg/4457_394l_.sdf

>  <i_m_source_file_index>  (125) 
17

>  <i_lp_mmshare_version>  (125) 
48012

>  <i_f3d_flags>  (125) 
0

>  <s_epik_input>  (125) 
W0NIM11jMW5vYyhbQ0gzXSljMUMoPU8pL049YygvW25IXTIpb2MobjIzKW5uW2NIXTM=

>  <s_epik_cmdline>  (125) 
J2VwaWtfcHl0aG9uJywgJy1waHQnLCAnMi4wJywgJy1waCcsICc3LjAnLCAnLXRuJywgJzgnLCAnLW1hJywgJzIwMCcsICctaW1hZScsICc8aW5maWxlLm1hZT4nLCAnLW9tYWUnLCAnPG91dGZpbGUubWFlPic=

>  <r_epik_Ionization_Penalty>  (125) 
2.42309

>  <r_epik_Ionization_Penalty_Charging>  (125) 
2.42309

>  <r_epik_Ionization_Penalty_Neutral>  (125) 
5.73416e-08

>  <r_epik_State_Penalty>  (125) 
2.58259

>  <r_epik_Charging_Adjusted_Penalty>  (125) 
5.00568

>  <i_epik_Tot_Q>  (125) 
-1

>  <i_epik_Tot_abs_Q>  (125) 
1

>  <s_lp_Force_Field>  (125) 
OPLS3e

>  <r_lp_Energy>  (125) 
17.1456

>  <b_lp_Chiralities_Consistent>  (125) 
1

>  <s_lp_Variant>  (125) 
47:0-2

>  <s_i_glide_gridfile>  (125) 
pfpi4k_grid

>  <i_i_glide_lignum>  (125) 
17

>  <i_i_glide_rotatable_bonds>  (125) 
3

>  <r_i_docking_score>  (125) 
-3.11567

>  <r_i_glide_ligand_efficiency>  (125) 
-0.173093

>  <r_i_glide_ligand_efficiency_sa>  (125) 
-0.453632

>  <r_i_glide_ligand_efficiency_ln>  (125) 
-0.800867

>  <r_i_glide_gscore>  (125) 
-3.11567

>  <r_i_glide_lipo>  (125) 
-0.166418

>  <r_i_glide_hbond>  (125) 
-0.16

>  <r_i_glide_metal>  (125) 
-0

>  <r_i_glide_rewards>  (125) 
-1.7237

>  <r_i_glide_evdw>  (125) 
-22.9749

>  <r_i_glide_ecoul>  (125) 
-3.03703

>  <r_i_glide_erotb>  (125) 
0.856423

>  <r_i_glide_esite>  (125) 
-0.317673

>  <r_i_glide_emodel>  (125) 
-32.532

>  <r_i_glide_energy>  (125) 
-26.012

>  <r_i_glide_einternal>  (125) 
0.26322

>  <r_i_glide_intrahb_reward>  (125) 
-0

>  <i_i_glide_confnum>  (125) 
5

>  <i_i_glide_posenum>  (125) 
39

>  <r_i_glide_eff_state_penalty>  (125) 
0

>  <ligand_id>  (125) 
47

>  <original_smiles>  (125) 
Cc1noc(C)c1C(=O)N=c1[nH]n2cnnc2o1

>  <smiles>  (125) 
[H]c1nnc2oc([N-]C(=O)c3c(C([H])([H])[H])noc3C([H])([H])[H])nn12

$$$$
47:1:2
     RDKit          3D

 25 27  0  0  1  0  0  0  0  0999 V2000
    3.0148   -1.6074   -2.8188 C   0  0  0  0  0  0  0  0  0  0  0  0
    4.0687   -2.0549   -1.8342 C   0  0  0  0  0  0  0  0  0  0  0  0
    5.2523   -1.4694   -1.9098 N   0  0  0  0  0  0  0  0  0  0  0  0
    6.0460   -2.0566   -0.9202 O   0  0  0  0  0  0  0  0  0  0  0  0
    5.3323   -2.9948   -0.2453 C   0  0  0  0  0  0  0  0  0  0  0  0
    6.1104   -3.6684    0.8388 C   0  0  0  0  0  0  0  0  0  0  0  0
    4.0573   -3.0415   -0.7952 C   0  0  0  0  0  0  0  0  0  0  0  0
    2.8759   -3.9398   -0.4215 C   0  0  0  0  0  0  0  0  0  0  0  0
    1.8233   -3.8495   -1.0834 O   0  0  0  0  0  0  0  0  0  0  0  0
    3.0915   -4.7848    0.6286 N   0  0  0  0  0  0  0  0  0  0  0  0
    2.0913   -5.4470    1.2645 C   0  0  0  0  0  0  0  0  0  0  0  0
    1.2229   -6.3218    0.6680 N   0  0  0  0  0  0  0  0  0  0  0  0
    0.5960   -6.7495    1.7511 N   0  0  0  0  0  0  0  0  0  0  0  0
   -0.3970   -7.6012    1.9187 C   0  0  0  0  0  0  0  0  0  0  0  0
   -0.6857   -7.5468    3.2365 N   0  0  0  0  0  0  0  0  0  0  0  0
    0.2324   -6.6161    3.8607 N   0  0  0  0  0  0  0  0  0  0  0  0
    0.9838   -6.2155    2.8766 C   0  0  0  0  0  0  0  0  0  0  0  0
    1.9681   -5.3047    2.6619 O   0  0  0  0  0  0  0  0  0  0  0  0
    2.0698   -2.1255   -2.7037 H   0  0  0  0  0  0  0  0  0  0  0  0
    3.3398   -1.7754   -3.8428 H   0  0  0  0  0  0  0  0  0  0  0  0
    2.8055   -0.5461   -2.7079 H   0  0  0  0  0  0  0  0  0  0  0  0
    5.5335   -4.4125    1.3749 H   0  0  0  0  0  0  0  0  0  0  0  0
    6.4630   -2.9320    1.5568 H   0  0  0  0  0  0  0  0  0  0  0  0
    6.9884   -4.1553    0.4218 H   0  0  0  0  0  0  0  0  0  0  0  0
   -0.9145   -8.2058    1.1830 H   0  0  0  0  0  0  0  0  0  0  0  0
  1  2  1  0
  1 19  1  0
  1 20  1  0
  1 21  1  0
  2  7  1  0
  2  3  2  0
  3  4  1  0
  4  5  1  0
  5  6  1  0
  5  7  2  0
  6 22  1  0
  6 23  1  0
  6 24  1  0
  7  8  1  0
  8  9  2  0
  8 10  1  0
 10 11  1  0
 11 18  1  0
 11 12  2  0
 12 13  1  0
 13 17  1  0
 13 14  1  0
 14 15  2  0
 14 25  1  0
 15 16  1  0
 16 17  2  0
 17 18  1  0
M  CHG  1  10  -1
M  END
>  <i_m_ct_stereo_status>  (126) 
1

>  <s_m_source_file>  (126) 
/var/tmp/pbs.5076255.sched01/tmpjtt61wjg/4457_394l_.sdf

>  <i_m_source_file_index>  (126) 
17

>  <i_lp_mmshare_version>  (126) 
48012

>  <i_f3d_flags>  (126) 
0

>  <s_epik_input>  (126) 
W0NIM11jMW5vYyhbQ0gzXSljMUMoPU8pL049YygvW25IXTIpb2MobjIzKW5uW2NIXTM=

>  <s_epik_cmdline>  (126) 
J2VwaWtfcHl0aG9uJywgJy1waHQnLCAnMi4wJywgJy1waCcsICc3LjAnLCAnLXRuJywgJzgnLCAnLW1hJywgJzIwMCcsICctaW1hZScsICc8aW5maWxlLm1hZT4nLCAnLW9tYWUnLCAnPG91dGZpbGUubWFlPic=

>  <r_epik_Ionization_Penalty>  (126) 
2.42309

>  <r_epik_Ionization_Penalty_Charging>  (126) 
2.42309

>  <r_epik_Ionization_Penalty_Neutral>  (126) 
5.73416e-08

>  <r_epik_State_Penalty>  (126) 
2.58259

>  <r_epik_Charging_Adjusted_Penalty>  (126) 
5.00568

>  <i_epik_Tot_Q>  (126) 
-1

>  <i_epik_Tot_abs_Q>  (126) 
1

>  <s_lp_Force_Field>  (126) 
OPLS3e

>  <r_lp_Energy>  (126) 
17.1456

>  <b_lp_Chiralities_Consistent>  (126) 
1

>  <s_lp_Variant>  (126) 
47:0-2

>  <s_i_glide_gridfile>  (126) 
pfpi4k_grid

>  <i_i_glide_lignum>  (126) 
17

>  <i_i_glide_rotatable_bonds>  (126) 
3

>  <r_i_docking_score>  (126) 
-3.10324

>  <r_i_glide_ligand_efficiency>  (126) 
-0.172402

>  <r_i_glide_ligand_efficiency_sa>  (126) 
-0.451822

>  <r_i_glide_ligand_efficiency_ln>  (126) 
-0.797672

>  <r_i_glide_gscore>  (126) 
-3.10324

>  <r_i_glide_lipo>  (126) 
-0.111796

>  <r_i_glide_hbond>  (126) 
-0.135628

>  <r_i_glide_metal>  (126) 
-0

>  <r_i_glide_rewards>  (126) 
-1.7237

>  <r_i_glide_evdw>  (126) 
-23.0722

>  <r_i_glide_ecoul>  (126) 
-2.63639

>  <r_i_glide_erotb>  (126) 
0.856423

>  <r_i_glide_esite>  (126) 
-0.439468

>  <r_i_glide_emodel>  (126) 
-32.134

>  <r_i_glide_energy>  (126) 
-25.7086

>  <r_i_glide_einternal>  (126) 
0.60479

>  <r_i_glide_intrahb_reward>  (126) 
-0

>  <i_i_glide_confnum>  (126) 
1

>  <i_i_glide_posenum>  (126) 
10

>  <r_i_glide_eff_state_penalty>  (126) 
0

>  <ligand_id>  (126) 
47

>  <original_smiles>  (126) 
Cc1noc(C)c1C(=O)N=c1[nH]n2cnnc2o1

>  <smiles>  (126) 
[H]c1nnc2oc([N-]C(=O)c3c(C([H])([H])[H])noc3C([H])([H])[H])nn12

$$$$
48:3:0
     RDKit          3D

 52 57  0  0  1  0  0  0  0  0999 V2000
    5.2958   -2.1037    2.0159 C   0  0  0  0  0  0  0  0  0  0  0  0
    5.5645   -3.0547    0.8261 C   0  0  1  0  0  0  0  0  0  0  0  0
    6.5140   -4.2377    1.3361 C   0  0  0  0  0  0  0  0  0  0  0  0
    5.6811   -5.4127    1.8951 C   0  0  1  0  0  0  0  0  0  0  0  0
    4.8104   -5.8354    0.7080 C   0  0  1  0  0  0  0  0  0  0  0  0
    4.7175   -7.3735    0.6759 C   0  0  0  0  0  0  0  0  0  0  0  0
    5.7499   -7.8770    1.6531 C   0  0  1  0  0  0  0  0  0  0  0  0
    7.2155   -7.5186    1.6720 C   0  0  0  0  0  0  0  0  0  0  0  0
    6.2257   -6.7120    2.4829 C   0  0  1  0  0  0  0  0  0  0  0  0
    5.8503   -6.9167    3.9740 C   0  0  0  0  0  0  0  0  0  0  0  0
    4.3399   -6.6976    4.3591 C   0  0  0  0  0  0  0  0  0  0  0  0
    3.2373   -7.3988    3.5161 C   0  0  1  0  0  0  0  0  0  0  0  0
    1.7865   -7.3735    4.0965 C   0  0  0  0  0  0  0  0  0  0  0  0
    2.0676   -6.6965    2.8460 C   0  0  0  0  0  0  0  0  0  0  0  0
    1.5958   -6.0372    1.7179 C   0  0  0  0  0  0  0  0  0  0  0  0
    2.1715   -5.3644    0.4770 C   0  0  0  0  0  0  0  0  0  0  0  0
    3.6518   -4.8192    0.7506 C   0  0  2  0  0  0  0  0  0  0  0  0
    4.1704   -3.5115    0.1841 C   0  0  2  0  0  0  0  0  0  0  0  0
    4.3533   -3.4997   -1.3453 C   0  0  0  0  0  0  0  0  0  0  0  0
    5.8036   -3.1190   -1.6052 C   0  0  0  0  0  0  0  0  0  0  0  0
    6.2503   -2.3402   -0.3673 C   0  0  1  0  0  0  0  0  0  0  0  0
    5.8172   -1.0077   -0.5439 O   0  0  0  0  0  0  0  0  0  0  0  0
    6.2174   -1.6528    2.3870 H   0  0  0  0  0  0  0  0  0  0  0  0
    4.8310   -2.6296    2.8510 H   0  0  0  0  0  0  0  0  0  0  0  0
    4.6227   -1.2855    1.7542 H   0  0  0  0  0  0  0  0  0  0  0  0
    7.1448   -4.6088    0.5281 H   0  0  0  0  0  0  0  0  0  0  0  0
    7.2235   -3.8684    2.0785 H   0  0  0  0  0  0  0  0  0  0  0  0
    5.1508   -4.9536    2.7155 H   0  0  0  0  0  0  0  0  0  0  0  0
    5.3582   -5.6689   -0.2269 H   0  0  0  0  0  0  0  0  0  0  0  0
    3.7396   -7.7807    0.8962 H   0  0  0  0  0  0  0  0  0  0  0  0
    4.9639   -7.7588   -0.3101 H   0  0  0  0  0  0  0  0  0  0  0  0
    5.5027   -8.8209    2.1517 H   0  0  0  0  0  0  0  0  0  0  0  0
    7.9189   -8.1642    2.1924 H   0  0  0  0  0  0  0  0  0  0  0  0
    7.6104   -7.0639    0.7609 H   0  0  0  0  0  0  0  0  0  0  0  0
    6.1436   -7.9277    4.2797 H   0  0  0  0  0  0  0  0  0  0  0  0
    6.4773   -6.2653    4.5877 H   0  0  0  0  0  0  0  0  0  0  0  0
    4.2318   -7.0449    5.3885 H   0  0  0  0  0  0  0  0  0  0  0  0
    4.1107   -5.6338    4.4276 H   0  0  0  0  0  0  0  0  0  0  0  0
    3.5521   -8.4056    3.2178 H   0  0  0  0  0  0  0  0  0  0  0  0
    1.2805   -8.3455    4.1221 H   0  0  0  0  0  0  0  0  0  0  0  0
    1.6301   -6.7803    4.9982 H   0  0  0  0  0  0  0  0  0  0  0  0
    2.4401   -6.4646    1.4277 H   0  0  0  0  0  0  0  0  0  0  0  0
    2.1821   -6.0367   -0.3897 H   0  0  0  0  0  0  0  0  0  0  0  0
    1.5467   -4.5451    0.1571 H   0  0  0  0  0  0  0  0  0  0  0  0
    3.4743   -4.5138    1.7868 H   0  0  0  0  0  0  0  0  0  0  0  0
    3.4148   -2.7564    0.4056 H   0  0  0  0  0  0  0  0  0  0  0  0
    4.1222   -4.4629   -1.7945 H   0  0  0  0  0  0  0  0  0  0  0  0
    3.6766   -2.7720   -1.7882 H   0  0  0  0  0  0  0  0  0  0  0  0
    6.3976   -4.0243   -1.6765 H   0  0  0  0  0  0  0  0  0  0  0  0
    5.9359   -2.5847   -2.5455 H   0  0  0  0  0  0  0  0  0  0  0  0
    7.3366   -2.3275   -0.2804 H   0  0  0  0  0  0  0  0  0  0  0  0
    4.8663   -0.9921   -0.5676 H   0  0  0  0  0  0  0  0  0  0  0  0
  2  1  1  1
  1 23  1  0
  1 24  1  0
  1 25  1  0
  2 18  1  0
  2 21  1  0
  2  3  1  0
  3  4  1  0
  3 26  1  0
  3 27  1  0
  4  9  1  0
  4  5  1  0
  4 28  1  1
  5 17  1  0
  5  6  1  0
  5 29  1  6
  6  7  1  0
  6 30  1  0
  6 31  1  0
  7  9  1  0
  7  8  1  0
  7 32  1  1
  9  8  1  1
  8 33  1  0
  8 34  1  0
  9 10  1  0
 10 11  1  0
 10 35  1  0
 10 36  1  0
 11 12  1  0
 11 37  1  0
 11 38  1  0
 12 14  1  0
 12 13  1  0
 12 39  1  6
 13 14  1  0
 13 40  1  0
 13 41  1  0
 14 15  2  3
 15 16  1  0
 15 42  1  0
 16 17  1  0
 16 43  1  0
 16 44  1  0
 17 18  1  0
 17 45  1  1
 18 19  1  0
 18 46  1  6
 19 20  1  0
 19 47  1  0
 19 48  1  0
 20 21  1  0
 20 49  1  0
 20 50  1  0
 21 22  1  0
 21 51  1  1
 22 52  1  0
M  END
>  <i_m_ct_stereo_status>  (127) 
1

>  <s_m_source_file>  (127) 
/var/tmp/pbs.5076255.sched01/tmpjtt61wjg/4457_394l_.sdf

>  <i_m_source_file_index>  (127) 
21

>  <i_lp_mmshare_version>  (127) 
48012

>  <i_f3d_flags>  (127) 
0

>  <s_epik_input>  (127) 
W0NIMl0xW0NIMl1bQ0BASF0oW09IXSlbQ0BdKFtDSDNdKShbQ0gyXTIpW0NAQEhdMVtDQEhdKFtDQEBIXShbQ0BIXTJbQ0BAXTM0NSlbQ0gyXVtDQEhdM1tDSDJdNClbQ0gyXS9bQ0hdPUM2XFtDSF0oW0NIMl02KVtDSDJdW0NIMl01

>  <s_epik_cmdline>  (127) 
J2VwaWtfcHl0aG9uJywgJy1waHQnLCAnMi4wJywgJy1waCcsICc3LjAnLCAnLXRuJywgJzgnLCAnLW1hJywgJzIwMCcsICctaW1hZScsICc8aW5maWxlLm1hZT4nLCAnLW9tYWUnLCAnPG91dGZpbGUubWFlPic=

>  <r_lp_tautomer_probability>  (127) 
1

>  <r_epik_Ionization_Penalty>  (127) 
3.16836e-06

>  <r_epik_Ionization_Penalty_Charging>  (127) 
0

>  <r_epik_Ionization_Penalty_Neutral>  (127) 
3.16836e-06

>  <r_epik_State_Penalty>  (127) 
-0

>  <r_epik_Charging_Adjusted_Penalty>  (127) 
0

>  <i_epik_Tot_Q>  (127) 
0

>  <i_epik_Tot_abs_Q>  (127) 
0

>  <s_lp_Force_Field>  (127) 
OPLS3e

>  <r_lp_Energy>  (127) 
78.9876

>  <b_lp_Chiralities_Consistent>  (127) 
1

>  <s_lp_Variant>  (127) 
48:0-4

>  <s_i_glide_gridfile>  (127) 
pfpi4k_grid

>  <i_i_glide_lignum>  (127) 
21

>  <i_i_glide_rotatable_bonds>  (127) 
1

>  <r_i_docking_score>  (127) 
-1.04542

>  <r_i_glide_ligand_efficiency>  (127) 
-0.0475191

>  <r_i_glide_ligand_efficiency_sa>  (127) 
-0.13315

>  <r_i_glide_ligand_efficiency_ln>  (127) 
-0.255539

>  <r_i_glide_gscore>  (127) 
-1.04542

>  <r_i_glide_lipo>  (127) 
-0.703421

>  <r_i_glide_hbond>  (127) 
-0.0266055

>  <r_i_glide_metal>  (127) 
-0

>  <r_i_glide_rewards>  (127) 
-1.37412

>  <r_i_glide_evdw>  (127) 
-18.1617

>  <r_i_glide_ecoul>  (127) 
-1.43087

>  <r_i_glide_erotb>  (127) 
0

>  <r_i_glide_esite>  (127) 
0

>  <r_i_glide_emodel>  (127) 
-11.2024

>  <r_i_glide_energy>  (127) 
-19.5925

>  <r_i_glide_einternal>  (127) 
0.0252452

>  <r_i_glide_intrahb_reward>  (127) 
-0

>  <i_i_glide_confnum>  (127) 
1

>  <i_i_glide_posenum>  (127) 
36

>  <r_i_glide_eff_state_penalty>  (127) 
0

>  <ligand_id>  (127) 
48

>  <original_smiles>  (127) 
CC12CC3C4CC5CC53CCC3CC3=CCC4C1CCC2O

>  <smiles>  (127) 
[H]OC1([H])C([H])([H])C([H])([H])C2([H])C3([H])C([H])([H])C([H])=C4C([H])([H])C4([H])C([H])([H])C([H])([H])C45C([H])([H])C4([H])C([H])([H])C3([H])C5([H])C([H])([H])C12C([H])([H])[H]

$$$$
48:3:1
     RDKit          3D

 52 57  0  0  1  0  0  0  0  0999 V2000
    3.9187   -1.0243    0.5032 C   0  0  0  0  0  0  0  0  0  0  0  0
    4.3967   -2.0771   -0.5287 C   0  0  1  0  0  0  0  0  0  0  0  0
    5.6344   -2.8676    0.1148 C   0  0  0  0  0  0  0  0  0  0  0  0
    5.1408   -4.1021    0.9083 C   0  0  1  0  0  0  0  0  0  0  0  0
    4.3876   -4.9226   -0.1339 C   0  0  1  0  0  0  0  0  0  0  0  0
    4.6732   -6.4202    0.1010 C   0  0  0  0  0  0  0  0  0  0  0  0
    5.8271   -6.4795    1.0790 C   0  0  1  0  0  0  0  0  0  0  0  0
    7.1521   -5.7706    0.9356 C   0  0  0  0  0  0  0  0  0  0  0  0
    6.0097   -5.1031    1.6712 C   0  0  1  0  0  0  0  0  0  0  0  0
    5.7317   -5.1326    3.1937 C   0  0  0  0  0  0  0  0  0  0  0  0
    4.2218   -5.2227    3.6370 C   0  0  0  0  0  0  0  0  0  0  0  0
    3.3298   -6.3211    2.9914 C   0  0  1  0  0  0  0  0  0  0  0  0
    1.9361   -6.5668    3.6663 C   0  0  0  0  0  0  0  0  0  0  0  0
    1.9917   -6.0933    2.2814 C   0  0  0  0  0  0  0  0  0  0  0  0
    1.3172   -5.8230    1.1205 C   0  0  0  0  0  0  0  0  0  0  0  0
    1.7124   -5.2031   -0.2685 C   0  0  0  0  0  0  0  0  0  0  0  0
    2.9890   -4.2634   -0.1789 C   0  0  2  0  0  0  0  0  0  0  0  0
    3.1649   -2.9672   -0.9993 C   0  0  2  0  0  0  0  0  0  0  0  0
    3.2959   -3.1826   -2.5130 C   0  0  0  0  0  0  0  0  0  0  0  0
    4.6047   -2.5200   -2.9260 C   0  0  0  0  0  0  0  0  0  0  0  0
    4.8559   -1.4455   -1.8741 C   0  0  1  0  0  0  0  0  0  0  0  0
    4.1083   -0.3306   -2.2969 O   0  0  0  0  0  0  0  0  0  0  0  0
    4.7015   -0.3023    0.7325 H   0  0  0  0  0  0  0  0  0  0  0  0
    3.6206   -1.4957    1.4409 H   0  0  0  0  0  0  0  0  0  0  0  0
    3.0505   -0.4639    0.1532 H   0  0  0  0  0  0  0  0  0  0  0  0
    6.3133   -3.2159   -0.6621 H   0  0  0  0  0  0  0  0  0  0  0  0
    6.2438   -2.2053    0.7333 H   0  0  0  0  0  0  0  0  0  0  0  0
    4.5239   -3.6543    1.6731 H   0  0  0  0  0  0  0  0  0  0  0  0
    4.8444   -4.8056   -1.1195 H   0  0  0  0  0  0  0  0  0  0  0  0
    3.8311   -7.0069    0.4407 H   0  0  0  0  0  0  0  0  0  0  0  0
    4.9931   -6.8926   -0.8196 H   0  0  0  0  0  0  0  0  0  0  0  0
    5.8377   -7.3498    1.7388 H   0  0  0  0  0  0  0  0  0  0  0  0
    8.0115   -6.1172    1.5050 H   0  0  0  0  0  0  0  0  0  0  0  0
    7.3937   -5.3904   -0.0496 H   0  0  0  0  0  0  0  0  0  0  0  0
    6.2781   -5.9665    3.6451 H   0  0  0  0  0  0  0  0  0  0  0  0
    6.1785   -4.2502    3.6498 H   0  0  0  0  0  0  0  0  0  0  0  0
    4.2301   -5.3984    4.7173 H   0  0  0  0  0  0  0  0  0  0  0  0
    3.7318   -4.2558    3.5402 H   0  0  0  0  0  0  0  0  0  0  0  0
    3.8883   -7.2485    2.8485 H   0  0  0  0  0  0  0  0  0  0  0  0
    1.6817   -7.6049    3.8739 H   0  0  0  0  0  0  0  0  0  0  0  0
    1.6373   -5.8682    4.4401 H   0  0  0  0  0  0  0  0  0  0  0  0
    2.2697   -5.9428    0.7888 H   0  0  0  0  0  0  0  0  0  0  0  0
    1.7963   -6.0074   -1.0066 H   0  0  0  0  0  0  0  0  0  0  0  0
    0.8997   -4.6483   -0.7151 H   0  0  0  0  0  0  0  0  0  0  0  0
    2.7763   -3.8185    0.7930 H   0  0  0  0  0  0  0  0  0  0  0  0
    2.2388   -2.4205   -0.8478 H   0  0  0  0  0  0  0  0  0  0  0  0
    3.3004   -4.2280   -2.7996 H   0  0  0  0  0  0  0  0  0  0  0  0
    2.4446   -2.7322   -3.0221 H   0  0  0  0  0  0  0  0  0  0  0  0
    5.4112   -3.2505   -2.8889 H   0  0  0  0  0  0  0  0  0  0  0  0
    4.5650   -2.1357   -3.9443 H   0  0  0  0  0  0  0  0  0  0  0  0
    5.8988   -1.1425   -1.8572 H   0  0  0  0  0  0  0  0  0  0  0  0
    3.1863   -0.5037   -2.1392 H   0  0  0  0  0  0  0  0  0  0  0  0
  2  1  1  1
  1 23  1  0
  1 24  1  0
  1 25  1  0
  2 18  1  0
  2 21  1  0
  2  3  1  0
  3  4  1  0
  3 26  1  0
  3 27  1  0
  4  9  1  0
  4  5  1  0
  4 28  1  1
  5 17  1  0
  5  6  1  0
  5 29  1  6
  6  7  1  0
  6 30  1  0
  6 31  1  0
  7  9  1  0
  7  8  1  0
  7 32  1  1
  9  8  1  1
  8 33  1  0
  8 34  1  0
  9 10  1  0
 10 11  1  0
 10 35  1  0
 10 36  1  0
 11 12  1  0
 11 37  1  0
 11 38  1  0
 12 14  1  0
 12 13  1  0
 12 39  1  6
 13 14  1  0
 13 40  1  0
 13 41  1  0
 14 15  2  3
 15 16  1  0
 15 42  1  0
 16 17  1  0
 16 43  1  0
 16 44  1  0
 17 18  1  0
 17 45  1  1
 18 19  1  0
 18 46  1  6
 19 20  1  0
 19 47  1  0
 19 48  1  0
 20 21  1  0
 20 49  1  0
 20 50  1  0
 21 22  1  0
 21 51  1  1
 22 52  1  0
M  END
>  <i_m_ct_stereo_status>  (128) 
1

>  <s_m_source_file>  (128) 
/var/tmp/pbs.5076255.sched01/tmpjtt61wjg/4457_394l_.sdf

>  <i_m_source_file_index>  (128) 
21

>  <i_lp_mmshare_version>  (128) 
48012

>  <i_f3d_flags>  (128) 
0

>  <s_epik_input>  (128) 
W0NIMl0xW0NIMl1bQ0BASF0oW09IXSlbQ0BdKFtDSDNdKShbQ0gyXTIpW0NAQEhdMVtDQEhdKFtDQEBIXShbQ0BIXTJbQ0BAXTM0NSlbQ0gyXVtDQEhdM1tDSDJdNClbQ0gyXS9bQ0hdPUM2XFtDSF0oW0NIMl02KVtDSDJdW0NIMl01

>  <s_epik_cmdline>  (128) 
J2VwaWtfcHl0aG9uJywgJy1waHQnLCAnMi4wJywgJy1waCcsICc3LjAnLCAnLXRuJywgJzgnLCAnLW1hJywgJzIwMCcsICctaW1hZScsICc8aW5maWxlLm1hZT4nLCAnLW9tYWUnLCAnPG91dGZpbGUubWFlPic=

>  <r_lp_tautomer_probability>  (128) 
1

>  <r_epik_Ionization_Penalty>  (128) 
3.16836e-06

>  <r_epik_Ionization_Penalty_Charging>  (128) 
0

>  <r_epik_Ionization_Penalty_Neutral>  (128) 
3.16836e-06

>  <r_epik_State_Penalty>  (128) 
-0

>  <r_epik_Charging_Adjusted_Penalty>  (128) 
0

>  <i_epik_Tot_Q>  (128) 
0

>  <i_epik_Tot_abs_Q>  (128) 
0

>  <s_lp_Force_Field>  (128) 
OPLS3e

>  <r_lp_Energy>  (128) 
78.9876

>  <b_lp_Chiralities_Consistent>  (128) 
1

>  <s_lp_Variant>  (128) 
48:0-4

>  <s_i_glide_gridfile>  (128) 
pfpi4k_grid

>  <i_i_glide_lignum>  (128) 
21

>  <i_i_glide_rotatable_bonds>  (128) 
1

>  <r_i_docking_score>  (128) 
0.589865

>  <r_i_glide_ligand_efficiency>  (128) 
0.026812

>  <r_i_glide_ligand_efficiency_sa>  (128) 
0.0751284

>  <r_i_glide_ligand_efficiency_ln>  (128) 
0.144185

>  <r_i_glide_gscore>  (128) 
0.589865

>  <r_i_glide_lipo>  (128) 
-0.515775

>  <r_i_glide_hbond>  (128) 
0

>  <r_i_glide_metal>  (128) 
-0

>  <r_i_glide_rewards>  (128) 
-1.37412

>  <r_i_glide_evdw>  (128) 
-6.56983

>  <r_i_glide_ecoul>  (128) 
-1.15437

>  <r_i_glide_erotb>  (128) 
0

>  <r_i_glide_esite>  (128) 
0

>  <r_i_glide_emodel>  (128) 
5.01968

>  <r_i_glide_energy>  (128) 
-7.7242

>  <r_i_glide_einternal>  (128) 
0.0818421

>  <r_i_glide_intrahb_reward>  (128) 
-0

>  <i_i_glide_confnum>  (128) 
1

>  <i_i_glide_posenum>  (128) 
19

>  <r_i_glide_eff_state_penalty>  (128) 
0

>  <ligand_id>  (128) 
48

>  <original_smiles>  (128) 
CC12CC3C4CC5CC53CCC3CC3=CCC4C1CCC2O

>  <smiles>  (128) 
[H]OC1([H])C([H])([H])C([H])([H])C2([H])C3([H])C([H])([H])C([H])=C4C([H])([H])C4([H])C([H])([H])C([H])([H])C45C([H])([H])C4([H])C([H])([H])C3([H])C5([H])C([H])([H])C12C([H])([H])[H]

$$$$
49:0:0
     RDKit          3D

 74 79  0  0  1  0  0  0  0  0999 V2000
    1.3929   -3.7696    6.7308 C   0  0  0  0  0  0  0  0  0  0  0  0
    1.1247   -4.0887    5.2646 C   0  0  0  0  0  0  0  0  0  0  0  0
    0.2458   -3.4986    4.6368 O   0  0  0  0  0  0  0  0  0  0  0  0
    1.9343   -5.0527    4.8040 O   0  0  0  0  0  0  0  0  0  0  0  0
    1.9213   -5.4709    3.4448 C   0  0  2  0  0  0  0  0  0  0  0  0
    0.8451   -6.5742    3.2460 C   0  0  1  0  0  0  0  0  0  0  0  0
    0.1526   -6.2763    2.0427 O   0  0  0  0  0  0  0  0  0  0  0  0
    1.3418   -8.0593    3.1991 C   0  0  2  0  0  0  0  0  0  0  0  0
    0.2287   -9.0775    3.6528 C   0  0  0  0  0  0  0  0  0  0  0  0
   -0.2530   -8.8798    5.1210 C   0  0  0  0  0  0  0  0  0  0  0  0
   -1.0288   -8.9472    2.7556 C   0  0  0  0  0  0  0  0  0  0  0  0
    0.7249  -10.5306    3.4693 C   0  0  0  0  0  0  0  0  0  0  0  0
    2.0804  -10.8222    4.1264 C   0  0  0  0  0  0  0  0  0  0  0  0
    3.1596   -9.8330    3.6581 C   0  0  1  0  0  0  0  0  0  0  0  0
    3.3901  -10.1817    2.3112 O   0  0  0  0  0  0  0  0  0  0  0  0
    2.7450   -8.3144    3.8606 C   0  0  2  0  0  0  0  0  0  0  0  0
    2.7490   -8.0931    5.4031 C   0  0  0  0  0  0  0  0  0  0  0  0
    3.8318   -7.2983    3.1999 C   0  0  2  0  0  0  0  0  0  0  0  0
    4.4197   -7.8330    2.0285 O   0  0  0  0  0  0  0  0  0  0  0  0
    4.8971   -7.1271    4.1241 O   0  0  0  0  0  0  0  0  0  0  0  0
    4.8892   -5.7842    4.5671 C   0  0  1  0  0  0  0  0  0  0  0  0
    5.9648   -5.1373    5.4350 C   0  0  0  0  0  0  0  0  0  0  0  0
    5.3673   -3.7985    5.9658 C   0  0  1  0  0  0  0  0  0  0  0  0
    6.4300   -3.0019    6.7413 C   0  0  0  0  0  0  0  0  0  0  0  0
    4.7442   -2.9669    4.8344 C   0  0  0  0  0  0  0  0  0  0  0  0
    4.4008   -3.5069    3.6376 C   0  0  0  0  0  0  0  0  0  0  0  0
    4.7860   -2.8475    2.4161 C   0  0  0  0  0  0  0  0  0  0  0  0
    4.5898   -1.5401    1.9264 C   0  0  0  0  0  0  0  0  0  0  0  0
    5.1181   -1.2273    0.6478 C   0  0  0  0  0  0  0  0  0  0  0  0
    5.8310   -2.2035   -0.0968 C   0  0  0  0  0  0  0  0  0  0  0  0
    6.0306   -3.5019    0.4235 C   0  0  0  0  0  0  0  0  0  0  0  0
    5.4894   -3.8006    1.6788 C   0  0  0  0  0  0  0  0  0  0  0  0
    5.5436   -5.0226    2.3055 O   0  0  0  0  0  0  0  0  0  0  0  0
    4.5281   -4.9867    3.3270 C   0  0  1  0  0  0  0  0  0  0  0  0
    3.3133   -5.8194    2.8234 C   0  0  2  0  0  0  0  0  0  0  0  0
    3.0941   -5.6636    1.2729 C   0  0  0  0  0  0  0  0  0  0  0  0
    1.4884   -4.6930    7.3014 H   0  0  0  0  0  0  0  0  0  0  0  0
    0.5798   -3.1795    7.1517 H   0  0  0  0  0  0  0  0  0  0  0  0
    2.3225   -3.2028    6.8315 H   0  0  0  0  0  0  0  0  0  0  0  0
    1.5803   -4.6001    2.8945 H   0  0  0  0  0  0  0  0  0  0  0  0
    0.1022   -6.4428    4.0278 H   0  0  0  0  0  0  0  0  0  0  0  0
   -0.1610   -7.1171    1.6930 H   0  0  0  0  0  0  0  0  0  0  0  0
    1.5196   -8.2722    2.1447 H   0  0  0  0  0  0  0  0  0  0  0  0
   -1.3307   -9.0298    5.2088 H   0  0  0  0  0  0  0  0  0  0  0  0
   -0.0395   -7.9045    5.5449 H   0  0  0  0  0  0  0  0  0  0  0  0
    0.1740   -9.6244    5.7962 H   0  0  0  0  0  0  0  0  0  0  0  0
   -1.7240   -9.7729    2.9183 H   0  0  0  0  0  0  0  0  0  0  0  0
   -0.7584   -8.9786    1.6971 H   0  0  0  0  0  0  0  0  0  0  0  0
   -1.5868   -8.0255    2.9405 H   0  0  0  0  0  0  0  0  0  0  0  0
   -0.0118  -11.2320    3.8621 H   0  0  0  0  0  0  0  0  0  0  0  0
    0.7956  -10.7433    2.4032 H   0  0  0  0  0  0  0  0  0  0  0  0
    1.9777  -10.8290    5.2081 H   0  0  0  0  0  0  0  0  0  0  0  0
    2.3741  -11.8495    3.8921 H   0  0  0  0  0  0  0  0  0  0  0  0
    4.0840  -10.0278    4.2081 H   0  0  0  0  0  0  0  0  0  0  0  0
    3.5583  -11.1155    2.2293 H   0  0  0  0  0  0  0  0  0  0  0  0
    3.7455   -8.1736    5.8368 H   0  0  0  0  0  0  0  0  0  0  0  0
    2.1959   -8.8519    5.9441 H   0  0  0  0  0  0  0  0  0  0  0  0
    2.3216   -7.1565    5.7246 H   0  0  0  0  0  0  0  0  0  0  0  0
    4.4912   -8.7828    2.1592 H   0  0  0  0  0  0  0  0  0  0  0  0
    4.0605   -5.7920    5.2641 H   0  0  0  0  0  0  0  0  0  0  0  0
    6.2309   -5.7854    6.2627 H   0  0  0  0  0  0  0  0  0  0  0  0
    6.8713   -4.9836    4.8515 H   0  0  0  0  0  0  0  0  0  0  0  0
    4.5646   -4.0169    6.6737 H   0  0  0  0  0  0  0  0  0  0  0  0
    6.0103   -2.0974    7.1885 H   0  0  0  0  0  0  0  0  0  0  0  0
    7.2441   -2.6952    6.0877 H   0  0  0  0  0  0  0  0  0  0  0  0
    6.8687   -3.5867    7.5465 H   0  0  0  0  0  0  0  0  0  0  0  0
    4.8878   -1.9013    4.9140 H   0  0  0  0  0  0  0  0  0  0  0  0
    4.0400   -0.8021    2.4998 H   0  0  0  0  0  0  0  0  0  0  0  0
    4.9657   -0.2388    0.2275 H   0  0  0  0  0  0  0  0  0  0  0  0
    6.2051   -1.9643   -1.0823 H   0  0  0  0  0  0  0  0  0  0  0  0
    6.5493   -4.2582   -0.1429 H   0  0  0  0  0  0  0  0  0  0  0  0
    3.9902   -5.8141    0.6692 H   0  0  0  0  0  0  0  0  0  0  0  0
    2.7405   -4.6575    1.0316 H   0  0  0  0  0  0  0  0  0  0  0  0
    2.3663   -6.3694    0.8767 H   0  0  0  0  0  0  0  0  0  0  0  0
  1  2  1  0
  1 37  1  0
  1 38  1  0
  1 39  1  0
  2  3  2  0
  2  4  1  0
  4  5  1  0
  5 35  1  0
  5  6  1  0
  5 40  1  6
  6  7  1  0
  6  8  1  0
  6 41  1  1
  7 42  1  0
  8 16  1  0
  8  9  1  0
  8 43  1  6
  9 10  1  0
  9 11  1  0
  9 12  1  0
 10 44  1  0
 10 45  1  0
 10 46  1  0
 11 47  1  0
 11 48  1  0
 11 49  1  0
 12 13  1  0
 12 50  1  0
 12 51  1  0
 13 14  1  0
 13 52  1  0
 13 53  1  0
 14 15  1  0
 14 16  1  0
 14 54  1  1
 15 55  1  0
 16 17  1  1
 16 18  1  0
 17 56  1  0
 17 57  1  0
 17 58  1  0
 18 35  1  0
 18 19  1  6
 18 20  1  0
 19 59  1  0
 20 21  1  0
 21 34  1  0
 21 22  1  0
 21 60  1  1
 22 23  1  0
 22 61  1  0
 22 62  1  0
 23 24  1  0
 23 25  1  0
 23 63  1  1
 24 64  1  0
 24 65  1  0
 24 66  1  0
 25 26  2  0
 25 67  1  0
 26 34  1  0
 26 27  1  0
 27 32  2  0
 27 28  1  0
 28 29  2  0
 28 68  1  0
 29 30  1  0
 29 69  1  0
 30 31  2  0
 30 70  1  0
 31 32  1  0
 31 71  1  0
 32 33  1  0
 34 33  1  6
 34 35  1  0
 35 36  1  6
 36 72  1  0
 36 73  1  0
 36 74  1  0
M  END
>  <i_m_ct_stereo_status>  (129) 
1

>  <s_m_source_file>  (129) 
/var/tmp/pbs.5076255.sched01/tmpjtt61wjg/4457_394l_.sdf

>  <i_m_source_file_index>  (129) 
22

>  <i_lp_mmshare_version>  (129) 
48012

>  <i_f3d_flags>  (129) 
0

>  <s_epik_input>  (129) 
W0NIM11DKD1PKU9bQ0BASF0oW0NAXTEyW0NIM10pW0NAQEhdKFtPSF0pW0NASF0oQyhbQ0gzXSkoW0NIM10pW0NIMl1bQ0gyXVtDQEhdM1tPSF0pW0NAXTMoW0NIM10pW0NAXTEoW09IXSlPW0NASF0oW0NAQF0yNDUpW0NIMl1bQ0BASF0oW0NIM10pW0NIXT1DNGM2YyhPNSlbY0hdW2NIXVtjSF1bY0hdNg==

>  <s_epik_cmdline>  (129) 
J2VwaWtfcHl0aG9uJywgJy1waHQnLCAnMi4wJywgJy1waCcsICc3LjAnLCAnLXRuJywgJzgnLCAnLW1hJywgJzIwMCcsICctaW1hZScsICc8aW5maWxlLm1hZT4nLCAnLW9tYWUnLCAnPG91dGZpbGUubWFlPic=

>  <r_lp_tautomer_probability>  (129) 
1

>  <r_epik_Ionization_Penalty>  (129) 
9.09543e-06

>  <r_epik_Ionization_Penalty_Charging>  (129) 
0

>  <r_epik_Ionization_Penalty_Neutral>  (129) 
9.09543e-06

>  <r_epik_State_Penalty>  (129) 
-0

>  <r_epik_Charging_Adjusted_Penalty>  (129) 
0

>  <i_epik_Tot_Q>  (129) 
0

>  <i_epik_Tot_abs_Q>  (129) 
0

>  <s_epik_Chemistry_Notes>  (129) 
This compound has an ester and may undergo hydrolysis at high or low pH.

>  <s_lp_Force_Field>  (129) 
OPLS3e

>  <r_lp_Energy>  (129) 
101.444

>  <b_lp_Chiralities_Consistent>  (129) 
1

>  <s_lp_Variant>  (129) 
49:0-1

>  <s_i_glide_gridfile>  (129) 
pfpi4k_grid

>  <i_i_glide_lignum>  (129) 
22

>  <i_i_glide_rotatable_bonds>  (129) 
5

>  <r_i_docking_score>  (129) 
-2.63203

>  <r_i_glide_ligand_efficiency>  (129) 
-0.0731119

>  <r_i_glide_ligand_efficiency_sa>  (129) 
-0.24141

>  <r_i_glide_ligand_efficiency_ln>  (129) 
-0.574238

>  <r_i_glide_gscore>  (129) 
-2.63203

>  <r_i_glide_lipo>  (129) 
-0.386808

>  <r_i_glide_hbond>  (129) 
-0.25354

>  <r_i_glide_metal>  (129) 
-0

>  <r_i_glide_rewards>  (129) 
-0.0112173

>  <r_i_glide_evdw>  (129) 
-29.8035

>  <r_i_glide_ecoul>  (129) 
-3.81583

>  <r_i_glide_erotb>  (129) 
0.0820852

>  <r_i_glide_esite>  (129) 
0

>  <r_i_glide_emodel>  (129) 
-38.5545

>  <r_i_glide_energy>  (129) 
-33.6193

>  <r_i_glide_einternal>  (129) 
1.51818

>  <r_i_glide_intrahb_reward>  (129) 
-0

>  <i_i_glide_confnum>  (129) 
4

>  <i_i_glide_posenum>  (129) 
24

>  <r_i_glide_eff_state_penalty>  (129) 
0

>  <ligand_id>  (129) 
49

>  <original_smiles>  (129) 
CC(=O)OC1C(O)C2C(C)(C)CCC(O)C2(C)C2(O)OC3CC(C)C=C4c5ccccc5OC43C12C

>  <smiles>  (129) 
[H]OC1([H])C([H])(OC(=O)C([H])([H])[H])C2(C([H])([H])[H])C(O[H])(OC3([H])C([H])([H])C([H])(C([H])([H])[H])C([H])=C4c5c([H])c([H])c([H])c([H])c5OC432)C2(C([H])([H])[H])C([H])(O[H])C([H])([H])C([H])([H])C(C([H])([H])[H])(C([H])([H])[H])C12[H]

$$$$
49:0:1
     RDKit          3D

 74 79  0  0  1  0  0  0  0  0999 V2000
    8.3270   -6.3395    3.3397 C   0  0  0  0  0  0  0  0  0  0  0  0
    7.3894   -6.1681    2.1541 C   0  0  0  0  0  0  0  0  0  0  0  0
    7.7339   -6.4527    1.0091 O   0  0  0  0  0  0  0  0  0  0  0  0
    6.1932   -5.6923    2.5278 O   0  0  0  0  0  0  0  0  0  0  0  0
    5.0794   -5.6549    1.6396 C   0  0  2  0  0  0  0  0  0  0  0  0
    5.2094   -4.5415    0.5640 C   0  0  1  0  0  0  0  0  0  0  0  0
    4.8914   -5.0941   -0.6993 O   0  0  0  0  0  0  0  0  0  0  0  0
    4.3977   -3.2250    0.7908 C   0  0  2  0  0  0  0  0  0  0  0  0
    5.0618   -1.9772    0.0769 C   0  0  0  0  0  0  0  0  0  0  0  0
    6.4963   -1.6301    0.5713 C   0  0  0  0  0  0  0  0  0  0  0  0
    5.1679   -2.2290   -1.4456 C   0  0  0  0  0  0  0  0  0  0  0  0
    4.1497   -0.7400    0.2384 C   0  0  0  0  0  0  0  0  0  0  0  0
    3.7409   -0.4303    1.6840 C   0  0  0  0  0  0  0  0  0  0  0  0
    3.0732   -1.6512    2.3416 C   0  0  1  0  0  0  0  0  0  0  0  0
    1.8090   -1.7298    1.6966 O   0  0  0  0  0  0  0  0  0  0  0  0
    3.9599   -2.9623    2.2797 C   0  0  2  0  0  0  0  0  0  0  0  0
    5.1646   -2.6809    3.2193 C   0  0  0  0  0  0  0  0  0  0  0  0
    3.1860   -4.2600    2.8543 C   0  0  2  0  0  0  0  0  0  0  0  0
    1.8124   -4.1905    2.5773 O   0  0  0  0  0  0  0  0  0  0  0  0
    3.2903   -4.2672    4.2675 O   0  0  0  0  0  0  0  0  0  0  0  0
    4.0537   -5.3922    4.6477 C   0  0  1  0  0  0  0  0  0  0  0  0
    4.2606   -5.8752    6.0792 C   0  0  0  0  0  0  0  0  0  0  0  0
    5.4459   -6.8915    6.0433 C   0  0  1  0  0  0  0  0  0  0  0  0
    5.6413   -7.5416    7.4241 C   0  0  0  0  0  0  0  0  0  0  0  0
    5.2522   -7.9436    4.9436 C   0  0  0  0  0  0  0  0  0  0  0  0
    4.3846   -7.7710    3.9214 C   0  0  0  0  0  0  0  0  0  0  0  0
    3.4706   -8.8160    3.5427 C   0  0  0  0  0  0  0  0  0  0  0  0
    3.6497  -10.1730    3.2246 C   0  0  0  0  0  0  0  0  0  0  0  0
    2.4944  -10.9296    2.9182 C   0  0  0  0  0  0  0  0  0  0  0  0
    1.2098  -10.3382    2.9520 C   0  0  0  0  0  0  0  0  0  0  0  0
    1.0507   -8.9809    3.3011 C   0  0  0  0  0  0  0  0  0  0  0  0
    2.2072   -8.2383    3.5821 C   0  0  0  0  0  0  0  0  0  0  0  0
    2.2404   -6.8986    3.8879 O   0  0  0  0  0  0  0  0  0  0  0  0
    3.6062   -6.4851    3.6916 C   0  0  1  0  0  0  0  0  0  0  0  0
    3.6823   -5.7017    2.3447 C   0  0  2  0  0  0  0  0  0  0  0  0
    2.7160   -6.3085    1.2642 C   0  0  0  0  0  0  0  0  0  0  0  0
    8.3024   -5.4564    3.9812 H   0  0  0  0  0  0  0  0  0  0  0  0
    9.3532   -6.5038    3.0066 H   0  0  0  0  0  0  0  0  0  0  0  0
    8.0087   -7.1964    3.9345 H   0  0  0  0  0  0  0  0  0  0  0  0
    5.1682   -6.6081    1.1167 H   0  0  0  0  0  0  0  0  0  0  0  0
    6.2640   -4.3097    0.4667 H   0  0  0  0  0  0  0  0  0  0  0  0
    3.9583   -5.2766   -0.7581 H   0  0  0  0  0  0  0  0  0  0  0  0
    3.4459   -3.3857    0.2834 H   0  0  0  0  0  0  0  0  0  0  0  0
    7.1470   -1.3325   -0.2502 H   0  0  0  0  0  0  0  0  0  0  0  0
    6.9963   -2.4535    1.0776 H   0  0  0  0  0  0  0  0  0  0  0  0
    6.4995   -0.7914    1.2666 H   0  0  0  0  0  0  0  0  0  0  0  0
    5.4297   -1.3173   -1.9847 H   0  0  0  0  0  0  0  0  0  0  0  0
    4.2148   -2.5766   -1.8478 H   0  0  0  0  0  0  0  0  0  0  0  0
    5.9258   -2.9764   -1.6894 H   0  0  0  0  0  0  0  0  0  0  0  0
    4.6359    0.1373   -0.1841 H   0  0  0  0  0  0  0  0  0  0  0  0
    3.2501   -0.8864   -0.3608 H   0  0  0  0  0  0  0  0  0  0  0  0
    4.5973   -0.0878    2.2544 H   0  0  0  0  0  0  0  0  0  0  0  0
    3.0580    0.4196    1.6913 H   0  0  0  0  0  0  0  0  0  0  0  0
    2.8774   -1.4264    3.3925 H   0  0  0  0  0  0  0  0  0  0  0  0
    1.8705   -1.4533    0.7879 H   0  0  0  0  0  0  0  0  0  0  0  0
    4.8798   -2.6021    4.2700 H   0  0  0  0  0  0  0  0  0  0  0  0
    5.6638   -1.7383    3.0324 H   0  0  0  0  0  0  0  0  0  0  0  0
    5.9322   -3.4365    3.1415 H   0  0  0  0  0  0  0  0  0  0  0  0
    1.5560   -3.2736    2.6567 H   0  0  0  0  0  0  0  0  0  0  0  0
    5.0556   -5.0652    4.4127 H   0  0  0  0  0  0  0  0  0  0  0  0
    4.5071   -5.0422    6.7330 H   0  0  0  0  0  0  0  0  0  0  0  0
    3.3484   -6.3340    6.4663 H   0  0  0  0  0  0  0  0  0  0  0  0
    6.3717   -6.3661    5.8057 H   0  0  0  0  0  0  0  0  0  0  0  0
    6.5163   -8.1927    7.4390 H   0  0  0  0  0  0  0  0  0  0  0  0
    4.7764   -8.1400    7.7140 H   0  0  0  0  0  0  0  0  0  0  0  0
    5.7912   -6.7909    8.2002 H   0  0  0  0  0  0  0  0  0  0  0  0
    5.5600   -8.9434    5.2049 H   0  0  0  0  0  0  0  0  0  0  0  0
    4.6330  -10.6179    3.1860 H   0  0  0  0  0  0  0  0  0  0  0  0
    2.6031  -11.9702    2.6376 H   0  0  0  0  0  0  0  0  0  0  0  0
    0.3423  -10.9279    2.6929 H   0  0  0  0  0  0  0  0  0  0  0  0
    0.0770   -8.5207    3.3076 H   0  0  0  0  0  0  0  0  0  0  0  0
    1.6969   -6.4722    1.6142 H   0  0  0  0  0  0  0  0  0  0  0  0
    3.0744   -7.2858    0.9354 H   0  0  0  0  0  0  0  0  0  0  0  0
    2.6193   -5.6764    0.3839 H   0  0  0  0  0  0  0  0  0  0  0  0
  1  2  1  0
  1 37  1  0
  1 38  1  0
  1 39  1  0
  2  3  2  0
  2  4  1  0
  4  5  1  0
  5 35  1  0
  5  6  1  0
  5 40  1  6
  6  7  1  0
  6  8  1  0
  6 41  1  6
  7 42  1  0
  8 16  1  0
  8  9  1  0
  8 43  1  6
  9 10  1  0
  9 11  1  0
  9 12  1  0
 10 44  1  0
 10 45  1  0
 10 46  1  0
 11 47  1  0
 11 48  1  0
 11 49  1  0
 12 13  1  0
 12 50  1  0
 12 51  1  0
 13 14  1  0
 13 52  1  0
 13 53  1  0
 14 15  1  0
 14 16  1  0
 14 54  1  1
 15 55  1  0
 16 17  1  1
 16 18  1  0
 17 56  1  0
 17 57  1  0
 17 58  1  0
 18 35  1  0
 18 19  1  1
 18 20  1  0
 19 59  1  0
 20 21  1  0
 21 34  1  0
 21 22  1  0
 21 60  1  6
 22 23  1  0
 22 61  1  0
 22 62  1  0
 23 24  1  0
 23 25  1  0
 23 63  1  6
 24 64  1  0
 24 65  1  0
 24 66  1  0
 25 26  2  0
 25 67  1  0
 26 34  1  0
 26 27  1  0
 27 32  2  0
 27 28  1  0
 28 29  2  0
 28 68  1  0
 29 30  1  0
 29 69  1  0
 30 31  2  0
 30 70  1  0
 31 32  1  0
 31 71  1  0
 32 33  1  0
 34 33  1  1
 34 35  1  0
 35 36  1  6
 36 72  1  0
 36 73  1  0
 36 74  1  0
M  END
>  <i_m_ct_stereo_status>  (130) 
1

>  <s_m_source_file>  (130) 
/var/tmp/pbs.5076255.sched01/tmpjtt61wjg/4457_394l_.sdf

>  <i_m_source_file_index>  (130) 
22

>  <i_lp_mmshare_version>  (130) 
48012

>  <i_f3d_flags>  (130) 
0

>  <s_epik_input>  (130) 
W0NIM11DKD1PKU9bQ0BASF0oW0NAXTEyW0NIM10pW0NAQEhdKFtPSF0pW0NASF0oQyhbQ0gzXSkoW0NIM10pW0NIMl1bQ0gyXVtDQEhdM1tPSF0pW0NAXTMoW0NIM10pW0NAXTEoW09IXSlPW0NASF0oW0NAQF0yNDUpW0NIMl1bQ0BASF0oW0NIM10pW0NIXT1DNGM2YyhPNSlbY0hdW2NIXVtjSF1bY0hdNg==

>  <s_epik_cmdline>  (130) 
J2VwaWtfcHl0aG9uJywgJy1waHQnLCAnMi4wJywgJy1waCcsICc3LjAnLCAnLXRuJywgJzgnLCAnLW1hJywgJzIwMCcsICctaW1hZScsICc8aW5maWxlLm1hZT4nLCAnLW9tYWUnLCAnPG91dGZpbGUubWFlPic=

>  <r_lp_tautomer_probability>  (130) 
1

>  <r_epik_Ionization_Penalty>  (130) 
9.09543e-06

>  <r_epik_Ionization_Penalty_Charging>  (130) 
0

>  <r_epik_Ionization_Penalty_Neutral>  (130) 
9.09543e-06

>  <r_epik_State_Penalty>  (130) 
-0

>  <r_epik_Charging_Adjusted_Penalty>  (130) 
0

>  <i_epik_Tot_Q>  (130) 
0

>  <i_epik_Tot_abs_Q>  (130) 
0

>  <s_epik_Chemistry_Notes>  (130) 
This compound has an ester and may undergo hydrolysis at high or low pH.

>  <s_lp_Force_Field>  (130) 
OPLS3e

>  <r_lp_Energy>  (130) 
101.444

>  <b_lp_Chiralities_Consistent>  (130) 
1

>  <s_lp_Variant>  (130) 
49:0-1

>  <s_i_glide_gridfile>  (130) 
pfpi4k_grid

>  <i_i_glide_lignum>  (130) 
22

>  <i_i_glide_rotatable_bonds>  (130) 
5

>  <r_i_docking_score>  (130) 
-2.44552

>  <r_i_glide_ligand_efficiency>  (130) 
-0.067931

>  <r_i_glide_ligand_efficiency_sa>  (130) 
-0.224303

>  <r_i_glide_ligand_efficiency_ln>  (130) 
-0.533546

>  <r_i_glide_gscore>  (130) 
-2.44552

>  <r_i_glide_lipo>  (130) 
-0.434841

>  <r_i_glide_hbond>  (130) 
-0.0683341

>  <r_i_glide_metal>  (130) 
-0

>  <r_i_glide_rewards>  (130) 
-0.0257098

>  <r_i_glide_evdw>  (130) 
-29.9438

>  <r_i_glide_ecoul>  (130) 
-3.34352

>  <r_i_glide_erotb>  (130) 
0.0820852

>  <r_i_glide_esite>  (130) 
0

>  <r_i_glide_emodel>  (130) 
-37.7394

>  <r_i_glide_energy>  (130) 
-33.2873

>  <r_i_glide_einternal>  (130) 
1.27215

>  <r_i_glide_intrahb_reward>  (130) 
-0

>  <i_i_glide_confnum>  (130) 
4

>  <i_i_glide_posenum>  (130) 
15

>  <r_i_glide_eff_state_penalty>  (130) 
0

>  <ligand_id>  (130) 
49

>  <original_smiles>  (130) 
CC(=O)OC1C(O)C2C(C)(C)CCC(O)C2(C)C2(O)OC3CC(C)C=C4c5ccccc5OC43C12C

>  <smiles>  (130) 
[H]OC1([H])C([H])(OC(=O)C([H])([H])[H])C2(C([H])([H])[H])C(O[H])(OC3([H])C([H])([H])C([H])(C([H])([H])[H])C([H])=C4c5c([H])c([H])c([H])c([H])c5OC432)C2(C([H])([H])[H])C([H])(O[H])C([H])([H])C([H])([H])C(C([H])([H])[H])(C([H])([H])[H])C12[H]

$$$$
50:0:0
     RDKit          3D

 51 54  0  0  1  0  0  0  0  0999 V2000
    1.5133   -4.0276    3.4072 C   0  0  0  0  0  0  0  0  0  0  0  0
    2.3016   -5.2644    3.8329 C   0  0  0  0  0  0  0  0  0  0  0  0
    1.7376   -6.3459    3.9344 O   0  0  0  0  0  0  0  0  0  0  0  0
    3.8173   -5.1482    4.1224 C   0  0  2  0  0  0  0  0  0  0  0  0
    4.1711   -3.8834    4.9356 C   0  0  0  0  0  0  0  0  0  0  0  0
    4.8002   -2.8807    3.9436 C   0  0  0  0  0  0  0  0  0  0  0  0
    4.7438   -3.5538    2.5609 C   0  0  1  0  0  0  0  0  0  0  0  0
    5.7459   -3.1647    1.4459 C   0  0  2  0  0  0  0  0  0  0  0  0
    5.8978   -1.6427    1.2452 C   0  0  0  0  0  0  0  0  0  0  0  0
    5.2592   -1.0743   -0.0041 C   0  0  0  0  0  0  0  0  0  0  0  0
    4.6067   -1.7659   -0.9533 C   0  0  0  0  0  0  0  0  0  0  0  0
    3.9756   -1.0488   -2.1455 C   0  0  0  0  0  0  0  0  0  0  0  0
    4.2125   -1.7550   -3.4782 C   0  0  0  0  0  0  0  0  0  0  0  0
    4.0842   -1.1177   -4.5202 O   0  0  0  0  0  0  0  0  0  0  0  0
    4.6097   -3.1619   -3.4639 C   0  0  0  0  0  0  0  0  0  0  0  0
    4.7180   -3.8461   -2.3069 C   0  0  0  0  0  0  0  0  0  0  0  0
    4.4444   -3.2914   -0.8988 C   0  0  2  0  0  0  0  0  0  0  0  0
    2.9645   -3.5799   -0.5953 C   0  0  0  0  0  0  0  0  0  0  0  0
    5.4530   -3.9503    0.1205 C   0  0  2  0  0  0  0  0  0  0  0  0
    5.2170   -5.4725    0.3916 C   0  0  0  0  0  0  0  0  0  0  0  0
    4.3125   -5.8140    1.5984 C   0  0  0  0  0  0  0  0  0  0  0  0
    4.7473   -5.0646    2.8800 C   0  0  2  0  0  0  0  0  0  0  0  0
    6.1432   -5.6002    3.3308 C   0  0  0  0  0  0  0  0  0  0  0  0
    1.8585   -3.6551    2.4459 H   0  0  0  0  0  0  0  0  0  0  0  0
    1.6004   -3.2276    4.1363 H   0  0  0  0  0  0  0  0  0  0  0  0
    0.4551   -4.2715    3.3158 H   0  0  0  0  0  0  0  0  0  0  0  0
    4.0700   -6.0307    4.7104 H   0  0  0  0  0  0  0  0  0  0  0  0
    3.3138   -3.4602    5.4548 H   0  0  0  0  0  0  0  0  0  0  0  0
    4.8868   -4.1279    5.7240 H   0  0  0  0  0  0  0  0  0  0  0  0
    4.2561   -1.9402    3.9413 H   0  0  0  0  0  0  0  0  0  0  0  0
    5.8196   -2.6625    4.2482 H   0  0  0  0  0  0  0  0  0  0  0  0
    3.7723   -3.2796    2.1566 H   0  0  0  0  0  0  0  0  0  0  0  0
    6.7304   -3.4839    1.7950 H   0  0  0  0  0  0  0  0  0  0  0  0
    5.4915   -1.0912    2.0929 H   0  0  0  0  0  0  0  0  0  0  0  0
    6.9551   -1.3939    1.2018 H   0  0  0  0  0  0  0  0  0  0  0  0
    5.3336    0.0019   -0.0935 H   0  0  0  0  0  0  0  0  0  0  0  0
    2.9010   -0.9480   -1.9887 H   0  0  0  0  0  0  0  0  0  0  0  0
    4.3847   -0.0379   -2.2176 H   0  0  0  0  0  0  0  0  0  0  0  0
    4.8121   -3.6483   -4.4087 H   0  0  0  0  0  0  0  0  0  0  0  0
    5.0161   -4.8819   -2.3650 H   0  0  0  0  0  0  0  0  0  0  0  0
    2.3100   -3.1286   -1.3434 H   0  0  0  0  0  0  0  0  0  0  0  0
    2.6589   -3.1632    0.3593 H   0  0  0  0  0  0  0  0  0  0  0  0
    2.7467   -4.6461   -0.6107 H   0  0  0  0  0  0  0  0  0  0  0  0
    6.4024   -3.9037   -0.4108 H   0  0  0  0  0  0  0  0  0  0  0  0
    4.8137   -5.9658   -0.4884 H   0  0  0  0  0  0  0  0  0  0  0  0
    6.1890   -5.9409    0.5423 H   0  0  0  0  0  0  0  0  0  0  0  0
    3.2852   -5.5622    1.3448 H   0  0  0  0  0  0  0  0  0  0  0  0
    4.3102   -6.8910    1.7729 H   0  0  0  0  0  0  0  0  0  0  0  0
    6.9103   -5.5208    2.5648 H   0  0  0  0  0  0  0  0  0  0  0  0
    6.0899   -6.6550    3.6074 H   0  0  0  0  0  0  0  0  0  0  0  0
    6.5251   -5.0645    4.1990 H   0  0  0  0  0  0  0  0  0  0  0  0
  1  2  1  0
  1 24  1  0
  1 25  1  0
  1 26  1  0
  2  3  2  0
  2  4  1  0
  4 22  1  0
  4  5  1  0
  4 27  1  1
  5  6  1  0
  5 28  1  0
  5 29  1  0
  6  7  1  0
  6 30  1  0
  6 31  1  0
  7 22  1  0
  7  8  1  0
  7 32  1  6
  8 19  1  0
  8  9  1  0
  8 33  1  1
  9 10  1  0
  9 34  1  0
  9 35  1  0
 10 11  2  0
 10 36  1  0
 11 17  1  0
 11 12  1  0
 12 13  1  0
 12 37  1  0
 12 38  1  0
 13 14  2  0
 13 15  1  0
 15 16  2  0
 15 39  1  0
 16 17  1  0
 16 40  1  0
 17 18  1  1
 17 19  1  0
 18 41  1  0
 18 42  1  0
 18 43  1  0
 19 20  1  0
 19 44  1  6
 20 21  1  0
 20 45  1  0
 20 46  1  0
 21 22  1  0
 21 47  1  0
 21 48  1  0
 22 23  1  1
 23 49  1  0
 23 50  1  0
 23 51  1  0
M  END
>  <i_m_ct_stereo_status>  (131) 
1

>  <s_m_source_file>  (131) 
/var/tmp/pbs.5076255.sched01/tmpjtt61wjg/4457_394l_.sdf

>  <i_m_source_file_index>  (131) 
23

>  <i_lp_mmshare_version>  (131) 
48012

>  <i_f3d_flags>  (131) 
0

>  <s_epik_input>  (131) 
W0NIM11DKD1PKVtDQEhdKFtDSDJdW0NIMl0xKVtDQEBdKFtDSDNdKShbQ0gyXVtDSDJdW0NASF0yMylbQ0BASF0xW0NAQEhdMltDSDJdW0NIXT1DKFtDQF0zNFtDSDNdKVtDSDJdQyg9TylbQ0hdPVtDSF00

>  <s_epik_cmdline>  (131) 
J2VwaWtfcHl0aG9uJywgJy1waHQnLCAnMi4wJywgJy1waCcsICc3LjAnLCAnLXRuJywgJzgnLCAnLW1hJywgJzIwMCcsICctaW1hZScsICc8aW5maWxlLm1hZT4nLCAnLW9tYWUnLCAnPG91dGZpbGUubWFlPic=

>  <r_lp_tautomer_probability>  (131) 
1

>  <r_epik_Ionization_Penalty>  (131) 
1.0893e-13

>  <r_epik_Ionization_Penalty_Charging>  (131) 
0

>  <r_epik_Ionization_Penalty_Neutral>  (131) 
1.0893e-13

>  <r_epik_State_Penalty>  (131) 
-0

>  <r_epik_Charging_Adjusted_Penalty>  (131) 
0

>  <i_epik_Tot_Q>  (131) 
0

>  <i_epik_Tot_abs_Q>  (131) 
0

>  <s_lp_Force_Field>  (131) 
OPLS3e

>  <r_lp_Energy>  (131) 
50.7536

>  <b_lp_Chiralities_Consistent>  (131) 
1

>  <s_lp_Variant>  (131) 
50:0-1

>  <s_i_glide_gridfile>  (131) 
pfpi4k_grid

>  <i_i_glide_lignum>  (131) 
23

>  <i_i_glide_rotatable_bonds>  (131) 
1

>  <r_i_docking_score>  (131) 
-4.36123

>  <r_i_glide_ligand_efficiency>  (131) 
-0.189619

>  <r_i_glide_ligand_efficiency_sa>  (131) 
-0.53925

>  <r_i_glide_ligand_efficiency_ln>  (131) 
-1.05458

>  <r_i_glide_gscore>  (131) 
-4.36123

>  <r_i_glide_lipo>  (131) 
-0.739998

>  <r_i_glide_hbond>  (131) 
-0.285407

>  <r_i_glide_metal>  (131) 
-0

>  <r_i_glide_rewards>  (131) 
-1.50657

>  <r_i_glide_evdw>  (131) 
-27.4791

>  <r_i_glide_ecoul>  (131) 
-3.03532

>  <r_i_glide_erotb>  (131) 
0

>  <r_i_glide_esite>  (131) 
0

>  <r_i_glide_emodel>  (131) 
-38.2145

>  <r_i_glide_energy>  (131) 
-30.5144

>  <r_i_glide_einternal>  (131) 
1.91657

>  <r_i_glide_intrahb_reward>  (131) 
-0

>  <i_i_glide_confnum>  (131) 
2

>  <i_i_glide_posenum>  (131) 
6

>  <r_i_glide_eff_state_penalty>  (131) 
0

>  <ligand_id>  (131) 
50

>  <original_smiles>  (131) 
CC(=O)C1CCC2C3CC=C4CC(=O)C=CC4(C)C3CCC12C

>  <smiles>  (131) 
[H]C1=C([H])C2(C([H])([H])[H])C(=C([H])C([H])([H])C3([H])C2([H])C([H])([H])C([H])([H])C2(C([H])([H])[H])C([H])(C(=O)C([H])([H])[H])C([H])([H])C([H])([H])C32[H])C([H])([H])C1=O

$$$$
50:0:1
     RDKit          3D

 51 54  0  0  1  0  0  0  0  0999 V2000
    1.5312   -6.8827    3.4676 C   0  0  0  0  0  0  0  0  0  0  0  0
    2.0151   -5.4532    3.6862 C   0  0  0  0  0  0  0  0  0  0  0  0
    1.2405   -4.5080    3.5610 O   0  0  0  0  0  0  0  0  0  0  0  0
    3.5011   -5.2659    4.0680 C   0  0  2  0  0  0  0  0  0  0  0  0
    3.7376   -3.9752    4.8943 C   0  0  0  0  0  0  0  0  0  0  0  0
    4.3786   -2.9381    3.9490 C   0  0  0  0  0  0  0  0  0  0  0  0
    4.3936   -3.6030    2.5658 C   0  0  1  0  0  0  0  0  0  0  0  0
    5.4350   -3.1488    1.5105 C   0  0  2  0  0  0  0  0  0  0  0  0
    5.5597   -1.6199    1.3327 C   0  0  0  0  0  0  0  0  0  0  0  0
    4.9811   -1.0608    0.0516 C   0  0  0  0  0  0  0  0  0  0  0  0
    4.4139   -1.7729   -0.9363 C   0  0  0  0  0  0  0  0  0  0  0  0
    3.8293   -1.0647   -2.1594 C   0  0  0  0  0  0  0  0  0  0  0  0
    4.1934   -1.7441   -3.4751 C   0  0  0  0  0  0  0  0  0  0  0  0
    4.0907   -1.1048   -4.5219 O   0  0  0  0  0  0  0  0  0  0  0  0
    4.6353   -3.1395   -3.4514 C   0  0  0  0  0  0  0  0  0  0  0  0
    4.6908   -3.8317   -2.2990 C   0  0  0  0  0  0  0  0  0  0  0  0
    4.3166   -3.3036   -0.9091 C   0  0  2  0  0  0  0  0  0  0  0  0
    2.8359   -3.6591   -0.6825 C   0  0  0  0  0  0  0  0  0  0  0  0
    5.2853   -3.9287    0.1638 C   0  0  2  0  0  0  0  0  0  0  0  0
    5.1169   -5.4624    0.4057 C   0  0  0  0  0  0  0  0  0  0  0  0
    4.1616   -5.8618    1.5577 C   0  0  0  0  0  0  0  0  0  0  0  0
    4.4843   -5.1106    2.8720 C   0  0  2  0  0  0  0  0  0  0  0  0
    5.8790   -5.5749    3.3909 C   0  0  0  0  0  0  0  0  0  0  0  0
    1.6527   -7.4724    4.3761 H   0  0  0  0  0  0  0  0  0  0  0  0
    2.0965   -7.3607    2.6697 H   0  0  0  0  0  0  0  0  0  0  0  0
    0.4770   -6.8851    3.1930 H   0  0  0  0  0  0  0  0  0  0  0  0
    3.7723   -6.1335    4.6698 H   0  0  0  0  0  0  0  0  0  0  0  0
    2.8243   -3.5852    5.3471 H   0  0  0  0  0  0  0  0  0  0  0  0
    4.4150   -4.1821    5.7246 H   0  0  0  0  0  0  0  0  0  0  0  0
    3.8016   -2.0123    3.9350 H   0  0  0  0  0  0  0  0  0  0  0  0
    5.3886   -2.6959    4.2832 H   0  0  0  0  0  0  0  0  0  0  0  0
    3.4092   -3.4055    2.1523 H   0  0  0  0  0  0  0  0  0  0  0  0
    6.4036   -3.4258    1.9228 H   0  0  0  0  0  0  0  0  0  0  0  0
    5.0930   -1.0895    2.1609 H   0  0  0  0  0  0  0  0  0  0  0  0
    6.6141   -1.3395    1.3474 H   0  0  0  0  0  0  0  0  0  0  0  0
    5.0188    0.0181   -0.0267 H   0  0  0  0  0  0  0  0  0  0  0  0
    2.7435   -1.0201   -2.0695 H   0  0  0  0  0  0  0  0  0  0  0  0
    4.2048   -0.0391   -2.1930 H   0  0  0  0  0  0  0  0  0  0  0  0
    4.9015   -3.6072   -4.3881 H   0  0  0  0  0  0  0  0  0  0  0  0
    5.0123   -4.8636   -2.3512 H   0  0  0  0  0  0  0  0  0  0  0  0
    2.2062   -3.2308   -1.4648 H   0  0  0  0  0  0  0  0  0  0  0  0
    2.4628   -3.2666    0.2605 H   0  0  0  0  0  0  0  0  0  0  0  0
    2.6685   -4.7334   -0.7187 H   0  0  0  0  0  0  0  0  0  0  0  0
    6.2666   -3.8280   -0.3046 H   0  0  0  0  0  0  0  0  0  0  0  0
    4.7850   -5.9646   -0.4994 H   0  0  0  0  0  0  0  0  0  0  0  0
    6.1001   -5.8874    0.6047 H   0  0  0  0  0  0  0  0  0  0  0  0
    3.1422   -5.6523    1.2418 H   0  0  0  0  0  0  0  0  0  0  0  0
    4.2101   -6.9390    1.7166 H   0  0  0  0  0  0  0  0  0  0  0  0
    6.6803   -5.4530    2.6641 H   0  0  0  0  0  0  0  0  0  0  0  0
    5.8591   -6.6338    3.6523 H   0  0  0  0  0  0  0  0  0  0  0  0
    6.1891   -5.0318    4.2833 H   0  0  0  0  0  0  0  0  0  0  0  0
  1  2  1  0
  1 24  1  0
  1 25  1  0
  1 26  1  0
  2  3  2  0
  2  4  1  0
  4 22  1  0
  4  5  1  0
  4 27  1  1
  5  6  1  0
  5 28  1  0
  5 29  1  0
  6  7  1  0
  6 30  1  0
  6 31  1  0
  7 22  1  0
  7  8  1  0
  7 32  1  6
  8 19  1  0
  8  9  1  0
  8 33  1  1
  9 10  1  0
  9 34  1  0
  9 35  1  0
 10 11  2  0
 10 36  1  0
 11 17  1  0
 11 12  1  0
 12 13  1  0
 12 37  1  0
 12 38  1  0
 13 14  2  0
 13 15  1  0
 15 16  2  0
 15 39  1  0
 16 17  1  0
 16 40  1  0
 17 18  1  1
 17 19  1  0
 18 41  1  0
 18 42  1  0
 18 43  1  0
 19 20  1  0
 19 44  1  6
 20 21  1  0
 20 45  1  0
 20 46  1  0
 21 22  1  0
 21 47  1  0
 21 48  1  0
 22 23  1  1
 23 49  1  0
 23 50  1  0
 23 51  1  0
M  END
>  <i_m_ct_stereo_status>  (132) 
1

>  <s_m_source_file>  (132) 
/var/tmp/pbs.5076255.sched01/tmpjtt61wjg/4457_394l_.sdf

>  <i_m_source_file_index>  (132) 
23

>  <i_lp_mmshare_version>  (132) 
48012

>  <i_f3d_flags>  (132) 
0

>  <s_epik_input>  (132) 
W0NIM11DKD1PKVtDQEhdKFtDSDJdW0NIMl0xKVtDQEBdKFtDSDNdKShbQ0gyXVtDSDJdW0NASF0yMylbQ0BASF0xW0NAQEhdMltDSDJdW0NIXT1DKFtDQF0zNFtDSDNdKVtDSDJdQyg9TylbQ0hdPVtDSF00

>  <s_epik_cmdline>  (132) 
J2VwaWtfcHl0aG9uJywgJy1waHQnLCAnMi4wJywgJy1waCcsICc3LjAnLCAnLXRuJywgJzgnLCAnLW1hJywgJzIwMCcsICctaW1hZScsICc8aW5maWxlLm1hZT4nLCAnLW9tYWUnLCAnPG91dGZpbGUubWFlPic=

>  <r_lp_tautomer_probability>  (132) 
1

>  <r_epik_Ionization_Penalty>  (132) 
1.0893e-13

>  <r_epik_Ionization_Penalty_Charging>  (132) 
0

>  <r_epik_Ionization_Penalty_Neutral>  (132) 
1.0893e-13

>  <r_epik_State_Penalty>  (132) 
-0

>  <r_epik_Charging_Adjusted_Penalty>  (132) 
0

>  <i_epik_Tot_Q>  (132) 
0

>  <i_epik_Tot_abs_Q>  (132) 
0

>  <s_lp_Force_Field>  (132) 
OPLS3e

>  <r_lp_Energy>  (132) 
50.7536

>  <b_lp_Chiralities_Consistent>  (132) 
1

>  <s_lp_Variant>  (132) 
50:0-1

>  <s_i_glide_gridfile>  (132) 
pfpi4k_grid

>  <i_i_glide_lignum>  (132) 
23

>  <i_i_glide_rotatable_bonds>  (132) 
1

>  <r_i_docking_score>  (132) 
-4.02218

>  <r_i_glide_ligand_efficiency>  (132) 
-0.174877

>  <r_i_glide_ligand_efficiency_sa>  (132) 
-0.497327

>  <r_i_glide_ligand_efficiency_ln>  (132) 
-0.972598

>  <r_i_glide_gscore>  (132) 
-4.02218

>  <r_i_glide_lipo>  (132) 
-0.641983

>  <r_i_glide_hbond>  (132) 
-0.280401

>  <r_i_glide_metal>  (132) 
-0

>  <r_i_glide_rewards>  (132) 
-1.51121

>  <r_i_glide_evdw>  (132) 
-27.9539

>  <r_i_glide_ecoul>  (132) 
-1.25959

>  <r_i_glide_erotb>  (132) 
0

>  <r_i_glide_esite>  (132) 
-0.00194788

>  <r_i_glide_emodel>  (132) 
-37.244

>  <r_i_glide_energy>  (132) 
-29.2135

>  <r_i_glide_einternal>  (132) 
0.0016209

>  <r_i_glide_intrahb_reward>  (132) 
-0

>  <i_i_glide_confnum>  (132) 
2

>  <i_i_glide_posenum>  (132) 
28

>  <r_i_glide_eff_state_penalty>  (132) 
0

>  <ligand_id>  (132) 
50

>  <original_smiles>  (132) 
CC(=O)C1CCC2C3CC=C4CC(=O)C=CC4(C)C3CCC12C

>  <smiles>  (132) 
[H]C1=C([H])C2(C([H])([H])[H])C(=C([H])C([H])([H])C3([H])C2([H])C([H])([H])C([H])([H])C2(C([H])([H])[H])C([H])(C(=O)C([H])([H])[H])C([H])([H])C([H])([H])C32[H])C([H])([H])C1=O

$$$$
50:0:2
     RDKit          3D

 51 54  0  0  1  0  0  0  0  0999 V2000
   -1.1847   -8.9146    2.4468 C   0  0  0  0  0  0  0  0  0  0  0  0
   -0.4079   -7.6259    2.6546 C   0  0  0  0  0  0  0  0  0  0  0  0
   -0.5925   -6.6580    1.9225 O   0  0  0  0  0  0  0  0  0  0  0  0
    0.5754   -7.5773    3.8349 C   0  0  2  0  0  0  0  0  0  0  0  0
    0.1256   -6.5384    4.8923 C   0  0  0  0  0  0  0  0  0  0  0  0
    1.0583   -5.3142    4.7624 C   0  0  0  0  0  0  0  0  0  0  0  0
    1.9539   -5.6118    3.5518 C   0  0  1  0  0  0  0  0  0  0  0  0
    3.3444   -4.9398    3.4326 C   0  0  2  0  0  0  0  0  0  0  0  0
    3.3498   -3.4181    3.6940 C   0  0  0  0  0  0  0  0  0  0  0  0
    3.5398   -2.5447    2.4766 C   0  0  0  0  0  0  0  0  0  0  0  0
    3.7349   -2.9729    1.2157 C   0  0  0  0  0  0  0  0  0  0  0  0
    3.8707   -1.9575    0.0790 C   0  0  0  0  0  0  0  0  0  0  0  0
    5.0118   -2.2922   -0.8785 C   0  0  0  0  0  0  0  0  0  0  0  0
    5.4473   -1.4089   -1.6152 O   0  0  0  0  0  0  0  0  0  0  0  0
    5.5344   -3.6583   -0.9077 C   0  0  0  0  0  0  0  0  0  0  0  0
    5.0049   -4.6308   -0.1409 C   0  0  0  0  0  0  0  0  0  0  0  0
    3.8472   -4.4605    0.8493 C   0  0  2  0  0  0  0  0  0  0  0  0
    2.5702   -4.8317    0.0830 C   0  0  0  0  0  0  0  0  0  0  0  0
    4.0864   -5.3568    2.1191 C   0  0  2  0  0  0  0  0  0  0  0  0
    4.0008   -6.8987    1.8794 C   0  0  0  0  0  0  0  0  0  0  0  0
    2.6159   -7.5490    2.1341 C   0  0  0  0  0  0  0  0  0  0  0  0
    2.0364   -7.1500    3.5119 C   0  0  2  0  0  0  0  0  0  0  0  0
    2.9261   -7.7654    4.6341 C   0  0  0  0  0  0  0  0  0  0  0  0
   -1.8209   -9.1325    3.3072 H   0  0  0  0  0  0  0  0  0  0  0  0
   -0.4981   -9.7498    2.2981 H   0  0  0  0  0  0  0  0  0  0  0  0
   -1.8075   -8.8319    1.5600 H   0  0  0  0  0  0  0  0  0  0  0  0
    0.5683   -8.5747    4.2809 H   0  0  0  0  0  0  0  0  0  0  0  0
   -0.9235   -6.2581    4.7765 H   0  0  0  0  0  0  0  0  0  0  0  0
    0.2199   -6.9616    5.8930 H   0  0  0  0  0  0  0  0  0  0  0  0
    0.4843   -4.3982    4.6170 H   0  0  0  0  0  0  0  0  0  0  0  0
    1.6508   -5.1939    5.6708 H   0  0  0  0  0  0  0  0  0  0  0  0
    1.3813   -5.2729    2.6982 H   0  0  0  0  0  0  0  0  0  0  0  0
    3.9294   -5.3341    4.2631 H   0  0  0  0  0  0  0  0  0  0  0  0
    2.4311   -3.0996    4.1840 H   0  0  0  0  0  0  0  0  0  0  0  0
    4.1618   -3.1757    4.3795 H   0  0  0  0  0  0  0  0  0  0  0  0
    3.4933   -1.4796    2.6678 H   0  0  0  0  0  0  0  0  0  0  0  0
    2.9389   -1.9060   -0.4831 H   0  0  0  0  0  0  0  0  0  0  0  0
    4.0474   -0.9645    0.4906 H   0  0  0  0  0  0  0  0  0  0  0  0
    6.3426   -3.8514   -1.5978 H   0  0  0  0  0  0  0  0  0  0  0  0
    5.4106   -5.6304   -0.2264 H   0  0  0  0  0  0  0  0  0  0  0  0
    2.4332   -4.1979   -0.7994 H   0  0  0  0  0  0  0  0  0  0  0  0
    1.6998   -4.6940    0.7102 H   0  0  0  0  0  0  0  0  0  0  0  0
    2.5873   -5.8571   -0.2804 H   0  0  0  0  0  0  0  0  0  0  0  0
    5.1345   -5.1665    2.3482 H   0  0  0  0  0  0  0  0  0  0  0  0
    4.3129   -7.1531    0.8692 H   0  0  0  0  0  0  0  0  0  0  0  0
    4.7371   -7.3835    2.5203 H   0  0  0  0  0  0  0  0  0  0  0  0
    1.9473   -7.2455    1.3336 H   0  0  0  0  0  0  0  0  0  0  0  0
    2.6932   -8.6345    2.0540 H   0  0  0  0  0  0  0  0  0  0  0  0
    3.9760   -7.4903    4.5619 H   0  0  0  0  0  0  0  0  0  0  0  0
    2.8915   -8.8559    4.5976 H   0  0  0  0  0  0  0  0  0  0  0  0
    2.5997   -7.4701    5.6324 H   0  0  0  0  0  0  0  0  0  0  0  0
  1  2  1  0
  1 24  1  0
  1 25  1  0
  1 26  1  0
  2  3  2  0
  2  4  1  0
  4 22  1  0
  4  5  1  0
  4 27  1  1
  5  6  1  0
  5 28  1  0
  5 29  1  0
  6  7  1  0
  6 30  1  0
  6 31  1  0
  7 22  1  0
  7  8  1  0
  7 32  1  6
  8 19  1  0
  8  9  1  0
  8 33  1  1
  9 10  1  0
  9 34  1  0
  9 35  1  0
 10 11  2  0
 10 36  1  0
 11 17  1  0
 11 12  1  0
 12 13  1  0
 12 37  1  0
 12 38  1  0
 13 14  2  0
 13 15  1  0
 15 16  2  0
 15 39  1  0
 16 17  1  0
 16 40  1  0
 17 18  1  6
 17 19  1  0
 18 41  1  0
 18 42  1  0
 18 43  1  0
 19 20  1  0
 19 44  1  1
 20 21  1  0
 20 45  1  0
 20 46  1  0
 21 22  1  0
 21 47  1  0
 21 48  1  0
 22 23  1  1
 23 49  1  0
 23 50  1  0
 23 51  1  0
M  END
>  <i_m_ct_stereo_status>  (133) 
1

>  <s_m_source_file>  (133) 
/var/tmp/pbs.5076255.sched01/tmpjtt61wjg/4457_394l_.sdf

>  <i_m_source_file_index>  (133) 
23

>  <i_lp_mmshare_version>  (133) 
48012

>  <i_f3d_flags>  (133) 
0

>  <s_epik_input>  (133) 
W0NIM11DKD1PKVtDQEhdKFtDSDJdW0NIMl0xKVtDQEBdKFtDSDNdKShbQ0gyXVtDSDJdW0NASF0yMylbQ0BASF0xW0NAQEhdMltDSDJdW0NIXT1DKFtDQF0zNFtDSDNdKVtDSDJdQyg9TylbQ0hdPVtDSF00

>  <s_epik_cmdline>  (133) 
J2VwaWtfcHl0aG9uJywgJy1waHQnLCAnMi4wJywgJy1waCcsICc3LjAnLCAnLXRuJywgJzgnLCAnLW1hJywgJzIwMCcsICctaW1hZScsICc8aW5maWxlLm1hZT4nLCAnLW9tYWUnLCAnPG91dGZpbGUubWFlPic=

>  <r_lp_tautomer_probability>  (133) 
1

>  <r_epik_Ionization_Penalty>  (133) 
1.0893e-13

>  <r_epik_Ionization_Penalty_Charging>  (133) 
0

>  <r_epik_Ionization_Penalty_Neutral>  (133) 
1.0893e-13

>  <r_epik_State_Penalty>  (133) 
-0

>  <r_epik_Charging_Adjusted_Penalty>  (133) 
0

>  <i_epik_Tot_Q>  (133) 
0

>  <i_epik_Tot_abs_Q>  (133) 
0

>  <s_lp_Force_Field>  (133) 
OPLS3e

>  <r_lp_Energy>  (133) 
50.7536

>  <b_lp_Chiralities_Consistent>  (133) 
1

>  <s_lp_Variant>  (133) 
50:0-1

>  <s_i_glide_gridfile>  (133) 
pfpi4k_grid

>  <i_i_glide_lignum>  (133) 
23

>  <i_i_glide_rotatable_bonds>  (133) 
1

>  <r_i_docking_score>  (133) 
-3.78044

>  <r_i_glide_ligand_efficiency>  (133) 
-0.164367

>  <r_i_glide_ligand_efficiency_sa>  (133) 
-0.467438

>  <r_i_glide_ligand_efficiency_ln>  (133) 
-0.914145

>  <r_i_glide_gscore>  (133) 
-3.78044

>  <r_i_glide_lipo>  (133) 
-0.268971

>  <r_i_glide_hbond>  (133) 
-0.177553

>  <r_i_glide_metal>  (133) 
-0

>  <r_i_glide_rewards>  (133) 
-1.27878

>  <r_i_glide_evdw>  (133) 
-24.9322

>  <r_i_glide_ecoul>  (133) 
-4.84446

>  <r_i_glide_erotb>  (133) 
0

>  <r_i_glide_esite>  (133) 
-0.0818593

>  <r_i_glide_emodel>  (133) 
-36.9669

>  <r_i_glide_energy>  (133) 
-29.7766

>  <r_i_glide_einternal>  (133) 
0.62145

>  <r_i_glide_intrahb_reward>  (133) 
-0

>  <i_i_glide_confnum>  (133) 
1

>  <i_i_glide_posenum>  (133) 
39

>  <r_i_glide_eff_state_penalty>  (133) 
0

>  <ligand_id>  (133) 
50

>  <original_smiles>  (133) 
CC(=O)C1CCC2C3CC=C4CC(=O)C=CC4(C)C3CCC12C

>  <smiles>  (133) 
[H]C1=C([H])C2(C([H])([H])[H])C(=C([H])C([H])([H])C3([H])C2([H])C([H])([H])C([H])([H])C2(C([H])([H])[H])C([H])(C(=O)C([H])([H])[H])C([H])([H])C([H])([H])C32[H])C([H])([H])C1=O

$$$$
51:0:0
     RDKit          3D

 49 54  0  0  1  0  0  0  0  0999 V2000
   -0.0855   -6.6736    1.7656 C   0  0  0  0  0  0  0  0  0  0  0  0
    1.1835   -6.0292    1.7163 O   0  0  0  0  0  0  0  0  0  0  0  0
    2.3352   -6.7258    2.2274 C   0  0  1  0  0  0  0  0  0  0  0  0
    2.2488   -6.7975    3.7944 C   0  0  0  0  0  0  0  0  0  0  0  0
    1.8549   -8.2156    4.0953 C   0  0  0  0  0  0  0  0  0  0  0  0
    1.4764   -8.7751    5.3284 C   0  0  0  0  0  0  0  0  0  0  0  0
    1.1454  -10.1512    5.3202 C   0  0  0  0  0  0  0  0  0  0  0  0
    1.1817  -10.9232    4.2088 N   0  0  0  0  0  0  0  0  0  0  0  0
    1.5674  -10.3598    3.0456 C   0  0  0  0  0  0  0  0  0  0  0  0
    1.9150   -9.0025    2.9609 C   0  0  0  0  0  0  0  0  0  0  0  0
    2.3878   -8.2458    1.7476 C   0  0  2  0  0  0  0  0  0  0  0  0
    3.6554   -8.7577    1.3204 O   0  0  0  0  0  0  0  0  0  0  0  0
    4.7781   -8.1173    1.7868 C   0  0  0  0  0  0  0  0  0  0  0  0
    6.0022   -8.7701    2.0529 C   0  0  0  0  0  0  0  0  0  0  0  0
    6.0898  -10.1208    1.8665 O   0  0  0  0  0  0  0  0  0  0  0  0
    7.1355   -8.0466    2.5129 C   0  0  0  0  0  0  0  0  0  0  0  0
    7.0878   -6.6424    2.7154 C   0  0  0  0  0  0  0  0  0  0  0  0
    5.8751   -5.9833    2.4535 C   0  0  0  0  0  0  0  0  0  0  0  0
    4.8026   -6.7378    1.9951 C   0  0  0  0  0  0  0  0  0  0  0  0
    3.5738   -5.9274    1.7213 C   0  0  1  0  0  0  0  0  0  0  0  0
    3.4682   -5.5545    0.2286 C   0  0  0  0  0  0  0  0  0  0  0  0
    2.9351   -4.1151    0.1896 C   0  0  0  0  0  0  0  0  0  0  0  0
    3.2620   -3.5025    1.4967 N   0  0  2  0  0  0  0  0  0  0  0  0
    3.9648   -2.1977    1.4039 C   0  0  0  0  0  0  0  0  0  0  0  0
    3.8858   -4.5581    2.3488 C   0  0  2  0  0  0  0  0  0  0  0  0
    5.4320   -4.5335    2.4839 C   0  0  0  0  0  0  0  0  0  0  0  0
   -0.8226   -6.0101    1.3231 H   0  0  0  0  0  0  0  0  0  0  0  0
   -0.3917   -6.9132    2.7842 H   0  0  0  0  0  0  0  0  0  0  0  0
   -0.1395   -7.5713    1.1561 H   0  0  0  0  0  0  0  0  0  0  0  0
    3.2256   -6.6501    4.2604 H   0  0  0  0  0  0  0  0  0  0  0  0
    1.5563   -6.0759    4.2263 H   0  0  0  0  0  0  0  0  0  0  0  0
    1.4437   -8.1995    6.2433 H   0  0  0  0  0  0  0  0  0  0  0  0
    0.8486  -10.6538    6.2273 H   0  0  0  0  0  0  0  0  0  0  0  0
    1.6069  -10.9985    2.1855 H   0  0  0  0  0  0  0  0  0  0  0  0
    1.7367   -8.4364    0.8954 H   0  0  0  0  0  0  0  0  0  0  0  0
    5.2863  -10.5223    1.5542 H   0  0  0  0  0  0  0  0  0  0  0  0
    8.0555   -8.5722    2.7044 H   0  0  0  0  0  0  0  0  0  0  0  0
    7.9612   -6.0944    3.0470 H   0  0  0  0  0  0  0  0  0  0  0  0
    4.4602   -5.5481   -0.2363 H   0  0  0  0  0  0  0  0  0  0  0  0
    2.8400   -6.2542   -0.3159 H   0  0  0  0  0  0  0  0  0  0  0  0
    3.3334   -3.5548   -0.6561 H   0  0  0  0  0  0  0  0  0  0  0  0
    1.8520   -4.1139    0.0642 H   0  0  0  0  0  0  0  0  0  0  0  0
    4.8747   -2.2661    0.8086 H   0  0  0  0  0  0  0  0  0  0  0  0
    4.2211   -1.8220    2.3946 H   0  0  0  0  0  0  0  0  0  0  0  0
    3.3196   -1.4582    0.9255 H   0  0  0  0  0  0  0  0  0  0  0  0
    3.4570   -4.4830    3.3473 H   0  0  0  0  0  0  0  0  0  0  0  0
    5.7417   -4.0452    3.4066 H   0  0  0  0  0  0  0  0  0  0  0  0
    5.9235   -4.0358    1.6454 H   0  0  0  0  0  0  0  0  0  0  0  0
    2.3651   -3.2959    1.9164 H   0  0  0  0  0  0  0  0  0  0  0  0
  1  2  1  0
  1 27  1  0
  1 28  1  0
  1 29  1  0
  3  2  1  6
  3 11  1  0
  3 20  1  0
  3  4  1  0
  4  5  1  0
  4 30  1  0
  4 31  1  0
  5 10  2  0
  5  6  1  0
  6  7  2  0
  6 32  1  0
  7  8  1  0
  7 33  1  0
  8  9  2  0
  9 10  1  0
  9 34  1  0
 10 11  1  0
 11 12  1  0
 11 35  1  6
 12 13  1  0
 13 19  2  0
 13 14  1  0
 14 15  1  0
 14 16  2  0
 15 36  1  0
 16 17  1  0
 16 37  1  0
 17 18  2  0
 17 38  1  0
 18 26  1  0
 18 19  1  0
 19 20  1  0
 20 25  1  0
 20 21  1  6
 21 22  1  0
 21 39  1  0
 21 40  1  0
 22 23  1  0
 22 41  1  0
 22 42  1  0
 23 24  1  0
 23 25  1  0
 23 49  1  1
 24 43  1  0
 24 44  1  0
 24 45  1  0
 25 26  1  0
 25 46  1  1
 26 47  1  0
 26 48  1  0
M  CHG  1  23   1
M  END
>  <i_m_ct_stereo_status>  (134) 
1

>  <s_m_source_file>  (134) 
/var/tmp/pbs.5076255.sched01/tmpjtt61wjg/4457_394l_.sdf

>  <i_m_source_file_index>  (134) 
24

>  <i_lp_mmshare_version>  (134) 
48012

>  <i_f3d_flags>  (134) 
0

>  <s_epik_input>  (134) 
W2NIXTFuW2NIXVtjSF1jKFtDSDJdMiljMVtDQEBIXShbQ0BAXTIoW0NAQF0zNDUpT1tDSDNdKU9jNmMzYyhbY0hdW2NIXWM2W09IXSlbQ0gyXVtDQEhdNU4oW0NIM10pW0NIMl1bQ0gyXTQ=

>  <s_epik_cmdline>  (134) 
J2VwaWtfcHl0aG9uJywgJy1waHQnLCAnMi4wJywgJy1waCcsICc3LjAnLCAnLXRuJywgJzgnLCAnLW1hJywgJzIwMCcsICctaW1hZScsICc8aW5maWxlLm1hZT4nLCAnLW9tYWUnLCAnPG91dGZpbGUubWFlPic=

>  <r_lp_tautomer_probability>  (134) 
1

>  <r_epik_Ionization_Penalty>  (134) 
0.0434054

>  <r_epik_Ionization_Penalty_Charging>  (134) 
0.021031

>  <r_epik_Ionization_Penalty_Neutral>  (134) 
0.0223745

>  <r_epik_State_Penalty>  (134) 
0.03094

>  <r_epik_Charging_Adjusted_Penalty>  (134) 
0.0519709

>  <i_epik_Tot_Q>  (134) 
1

>  <i_epik_Tot_abs_Q>  (134) 
1

>  <s_lp_Force_Field>  (134) 
OPLS3e

>  <r_lp_Energy>  (134) 
60.5007

>  <b_lp_Chiralities_Consistent>  (134) 
1

>  <s_lp_Variant>  (134) 
51:0-1

>  <s_i_glide_gridfile>  (134) 
pfpi4k_grid

>  <i_i_glide_lignum>  (134) 
24

>  <i_i_glide_rotatable_bonds>  (134) 
2

>  <r_i_docking_score>  (134) 
-3.33524

>  <r_i_glide_ligand_efficiency>  (134) 
-0.128278

>  <r_i_glide_ligand_efficiency_sa>  (134) 
-0.380024

>  <r_i_glide_ligand_efficiency_ln>  (134) 
-0.78327

>  <r_i_glide_gscore>  (134) 
-3.33524

>  <r_i_glide_lipo>  (134) 
-0.343683

>  <r_i_glide_hbond>  (134) 
-0.111811

>  <r_i_glide_metal>  (134) 
-0

>  <r_i_glide_rewards>  (134) 
-1.01305

>  <r_i_glide_evdw>  (134) 
-21.6688

>  <r_i_glide_ecoul>  (134) 
-5.22167

>  <r_i_glide_erotb>  (134) 
0

>  <r_i_glide_esite>  (134) 
0

>  <r_i_glide_emodel>  (134) 
-32.6911

>  <r_i_glide_energy>  (134) 
-26.8905

>  <r_i_glide_einternal>  (134) 
0.647246

>  <r_i_glide_intrahb_reward>  (134) 
-0

>  <i_i_glide_confnum>  (134) 
1

>  <i_i_glide_posenum>  (134) 
18

>  <r_i_glide_eff_state_penalty>  (134) 
0

>  <ligand_id>  (134) 
51

>  <original_smiles>  (134) 
COC12Cc3ccncc3C1Oc1c(O)ccc3c1C21CCN(C)C1C3

>  <smiles>  (134) 
[H]Oc1c([H])c([H])c2c3c1OC1([H])c4c([H])nc([H])c([H])c4C([H])([H])C1(OC([H])([H])[H])C31C([H])([H])C([H])([H])[N+]([H])(C([H])([H])[H])C1([H])C2([H])[H]

$$$$
51:0:1
     RDKit          3D

 49 54  0  0  1  0  0  0  0  0999 V2000
    3.8719   -7.2145    0.9936 C   0  0  0  0  0  0  0  0  0  0  0  0
    4.0995   -5.8453    0.6753 O   0  0  0  0  0  0  0  0  0  0  0  0
    3.9009   -4.8496    1.6891 C   0  0  1  0  0  0  0  0  0  0  0  0
    2.3886   -4.8233    2.1072 C   0  0  0  0  0  0  0  0  0  0  0  0
    2.3481   -5.5064    3.4455 C   0  0  0  0  0  0  0  0  0  0  0  0
    1.2229   -5.9027    4.1887 C   0  0  0  0  0  0  0  0  0  0  0  0
    1.4771   -6.5303    5.4295 C   0  0  0  0  0  0  0  0  0  0  0  0
    2.7216   -6.7503    5.9198 N   0  0  0  0  0  0  0  0  0  0  0  0
    3.7860   -6.3538    5.1858 C   0  0  0  0  0  0  0  0  0  0  0  0
    3.6224   -5.7206    3.9415 C   0  0  0  0  0  0  0  0  0  0  0  0
    4.6936   -5.1864    3.0271 C   0  0  2  0  0  0  0  0  0  0  0  0
    5.3664   -4.0992    3.6798 O   0  0  0  0  0  0  0  0  0  0  0  0
    4.9227   -2.8284    3.4004 C   0  0  0  0  0  0  0  0  0  0  0  0
    4.9434   -1.7606    4.3277 C   0  0  0  0  0  0  0  0  0  0  0  0
    5.3921   -1.9900    5.5956 O   0  0  0  0  0  0  0  0  0  0  0  0
    4.4998   -0.4613    3.9699 C   0  0  0  0  0  0  0  0  0  0  0  0
    4.0072   -0.1843    2.6702 C   0  0  0  0  0  0  0  0  0  0  0  0
    3.9773   -1.2352    1.7396 C   0  0  0  0  0  0  0  0  0  0  0  0
    4.4463   -2.4806    2.1359 C   0  0  0  0  0  0  0  0  0  0  0  0
    4.3931   -3.5146    1.0550 C   0  0  1  0  0  0  0  0  0  0  0  0
    5.7515   -3.6482    0.3281 C   0  0  0  0  0  0  0  0  0  0  0  0
    5.4053   -3.8537   -1.1550 C   0  0  0  0  0  0  0  0  0  0  0  0
    4.0504   -3.2957   -1.3660 N   0  0  2  0  0  0  0  0  0  0  0  0
    3.9509   -2.3239   -2.4849 C   0  0  0  0  0  0  0  0  0  0  0  0
    3.5294   -2.8582   -0.0385 C   0  0  2  0  0  0  0  0  0  0  0  0
    3.5861   -1.3368    0.2800 C   0  0  0  0  0  0  0  0  0  0  0  0
    4.0875   -7.8113    0.1094 H   0  0  0  0  0  0  0  0  0  0  0  0
    2.8412   -7.4091    1.2888 H   0  0  0  0  0  0  0  0  0  0  0  0
    4.5335   -7.5804    1.7759 H   0  0  0  0  0  0  0  0  0  0  0  0
    2.0282   -3.8048    2.2649 H   0  0  0  0  0  0  0  0  0  0  0  0
    1.7383   -5.3033    1.3775 H   0  0  0  0  0  0  0  0  0  0  0  0
    0.2129   -5.7382    3.8437 H   0  0  0  0  0  0  0  0  0  0  0  0
    0.6606   -6.8556    6.0565 H   0  0  0  0  0  0  0  0  0  0  0  0
    4.7654   -6.5309    5.6048 H   0  0  0  0  0  0  0  0  0  0  0  0
    5.4637   -5.9381    2.8510 H   0  0  0  0  0  0  0  0  0  0  0  0
    5.6195   -2.8966    5.7387 H   0  0  0  0  0  0  0  0  0  0  0  0
    4.5393    0.3293    4.7001 H   0  0  0  0  0  0  0  0  0  0  0  0
    3.6785    0.8104    2.3999 H   0  0  0  0  0  0  0  0  0  0  0  0
    6.3096   -2.7112    0.4108 H   0  0  0  0  0  0  0  0  0  0  0  0
    6.3890   -4.4390    0.7304 H   0  0  0  0  0  0  0  0  0  0  0  0
    6.1561   -3.4049   -1.8068 H   0  0  0  0  0  0  0  0  0  0  0  0
    5.3758   -4.9166   -1.3983 H   0  0  0  0  0  0  0  0  0  0  0  0
    4.6570   -1.5001   -2.3745 H   0  0  0  0  0  0  0  0  0  0  0  0
    2.9434   -1.9126   -2.5593 H   0  0  0  0  0  0  0  0  0  0  0  0
    4.1793   -2.8181   -3.4312 H   0  0  0  0  0  0  0  0  0  0  0  0
    2.4904   -3.1746    0.0331 H   0  0  0  0  0  0  0  0  0  0  0  0
    2.6302   -0.8447    0.1012 H   0  0  0  0  0  0  0  0  0  0  0  0
    4.3547   -0.8091   -0.2892 H   0  0  0  0  0  0  0  0  0  0  0  0
    3.4888   -4.0930   -1.6448 H   0  0  0  0  0  0  0  0  0  0  0  0
  1  2  1  0
  1 27  1  0
  1 28  1  0
  1 29  1  0
  3  2  1  6
  3 11  1  0
  3 20  1  0
  3  4  1  0
  4  5  1  0
  4 30  1  0
  4 31  1  0
  5 10  2  0
  5  6  1  0
  6  7  2  0
  6 32  1  0
  7  8  1  0
  7 33  1  0
  8  9  2  0
  9 10  1  0
  9 34  1  0
 10 11  1  0
 11 12  1  0
 11 35  1  6
 12 13  1  0
 13 19  2  0
 13 14  1  0
 14 15  1  0
 14 16  2  0
 15 36  1  0
 16 17  1  0
 16 37  1  0
 17 18  2  0
 17 38  1  0
 18 26  1  0
 18 19  1  0
 19 20  1  0
 20 25  1  0
 20 21  1  6
 21 22  1  0
 21 39  1  0
 21 40  1  0
 22 23  1  0
 22 41  1  0
 22 42  1  0
 23 24  1  0
 23 25  1  0
 23 49  1  6
 24 43  1  0
 24 44  1  0
 24 45  1  0
 25 26  1  0
 25 46  1  1
 26 47  1  0
 26 48  1  0
M  CHG  1  23   1
M  END
>  <i_m_ct_stereo_status>  (135) 
1

>  <s_m_source_file>  (135) 
/var/tmp/pbs.5076255.sched01/tmpjtt61wjg/4457_394l_.sdf

>  <i_m_source_file_index>  (135) 
24

>  <i_lp_mmshare_version>  (135) 
48012

>  <i_f3d_flags>  (135) 
0

>  <s_epik_input>  (135) 
W2NIXTFuW2NIXVtjSF1jKFtDSDJdMiljMVtDQEBIXShbQ0BAXTIoW0NAQF0zNDUpT1tDSDNdKU9jNmMzYyhbY0hdW2NIXWM2W09IXSlbQ0gyXVtDQEhdNU4oW0NIM10pW0NIMl1bQ0gyXTQ=

>  <s_epik_cmdline>  (135) 
J2VwaWtfcHl0aG9uJywgJy1waHQnLCAnMi4wJywgJy1waCcsICc3LjAnLCAnLXRuJywgJzgnLCAnLW1hJywgJzIwMCcsICctaW1hZScsICc8aW5maWxlLm1hZT4nLCAnLW9tYWUnLCAnPG91dGZpbGUubWFlPic=

>  <r_lp_tautomer_probability>  (135) 
1

>  <r_epik_Ionization_Penalty>  (135) 
0.0434054

>  <r_epik_Ionization_Penalty_Charging>  (135) 
0.021031

>  <r_epik_Ionization_Penalty_Neutral>  (135) 
0.0223745

>  <r_epik_State_Penalty>  (135) 
0.03094

>  <r_epik_Charging_Adjusted_Penalty>  (135) 
0.0519709

>  <i_epik_Tot_Q>  (135) 
1

>  <i_epik_Tot_abs_Q>  (135) 
1

>  <s_lp_Force_Field>  (135) 
OPLS3e

>  <r_lp_Energy>  (135) 
60.5007

>  <b_lp_Chiralities_Consistent>  (135) 
1

>  <s_lp_Variant>  (135) 
51:0-1

>  <s_i_glide_gridfile>  (135) 
pfpi4k_grid

>  <i_i_glide_lignum>  (135) 
24

>  <i_i_glide_rotatable_bonds>  (135) 
2

>  <r_i_docking_score>  (135) 
-2.95314

>  <r_i_glide_ligand_efficiency>  (135) 
-0.113582

>  <r_i_glide_ligand_efficiency_sa>  (135) 
-0.336487

>  <r_i_glide_ligand_efficiency_ln>  (135) 
-0.693536

>  <r_i_glide_gscore>  (135) 
-2.95314

>  <r_i_glide_lipo>  (135) 
-0.469263

>  <r_i_glide_hbond>  (135) 
0

>  <r_i_glide_metal>  (135) 
-0

>  <r_i_glide_rewards>  (135) 
-1.01305

>  <r_i_glide_evdw>  (135) 
-17.5583

>  <r_i_glide_ecoul>  (135) 
-3.88523

>  <r_i_glide_erotb>  (135) 
0

>  <r_i_glide_esite>  (135) 
-0.0101261

>  <r_i_glide_emodel>  (135) 
-27.007

>  <r_i_glide_energy>  (135) 
-21.4435

>  <r_i_glide_einternal>  (135) 
0.0631273

>  <r_i_glide_intrahb_reward>  (135) 
-0

>  <i_i_glide_confnum>  (135) 
1

>  <i_i_glide_posenum>  (135) 
3

>  <r_i_glide_eff_state_penalty>  (135) 
0

>  <ligand_id>  (135) 
51

>  <original_smiles>  (135) 
COC12Cc3ccncc3C1Oc1c(O)ccc3c1C21CCN(C)C1C3

>  <smiles>  (135) 
[H]Oc1c([H])c([H])c2c3c1OC1([H])c4c([H])nc([H])c([H])c4C([H])([H])C1(OC([H])([H])[H])C31C([H])([H])C([H])([H])[N+]([H])(C([H])([H])[H])C1([H])C2([H])[H]

$$$$
51:0:2
     RDKit          3D

 49 54  0  0  1  0  0  0  0  0999 V2000
    0.3116   -6.6660    0.5969 C   0  0  0  0  0  0  0  0  0  0  0  0
    1.4509   -5.8635    0.8751 O   0  0  0  0  0  0  0  0  0  0  0  0
    2.2962   -6.2349    1.9769 C   0  0  1  0  0  0  0  0  0  0  0  0
    1.4697   -6.1290    3.3066 C   0  0  0  0  0  0  0  0  0  0  0  0
    1.1700   -7.5534    3.6807 C   0  0  0  0  0  0  0  0  0  0  0  0
    0.3114   -8.0225    4.6884 C   0  0  0  0  0  0  0  0  0  0  0  0
    0.2291   -9.4265    4.8371 C   0  0  0  0  0  0  0  0  0  0  0  0
    0.9154  -10.3067    4.0663 N   0  0  0  0  0  0  0  0  0  0  0  0
    1.7362   -9.8283    3.1063 C   0  0  0  0  0  0  0  0  0  0  0  0
    1.8843   -8.4441    2.8979 C   0  0  0  0  0  0  0  0  0  0  0  0
    2.7793   -7.7510    1.9074 C   0  0  2  0  0  0  0  0  0  0  0  0
    4.1509   -8.0184    2.2455 O   0  0  0  0  0  0  0  0  0  0  0  0
    4.7953   -7.0920    3.0272 C   0  0  0  0  0  0  0  0  0  0  0  0
    5.7983   -7.4068    3.9747 C   0  0  0  0  0  0  0  0  0  0  0  0
    6.1438   -8.7093    4.1759 O   0  0  0  0  0  0  0  0  0  0  0  0
    6.4433   -6.3980    4.7349 C   0  0  0  0  0  0  0  0  0  0  0  0
    6.0948   -5.0372    4.5853 C   0  0  0  0  0  0  0  0  0  0  0  0
    5.1092   -4.7006    3.6425 C   0  0  0  0  0  0  0  0  0  0  0  0
    4.5281   -5.7264    2.9070 C   0  0  0  0  0  0  0  0  0  0  0  0
    3.5064   -5.2549    1.9187 C   0  0  1  0  0  0  0  0  0  0  0  0
    4.1071   -5.1050    0.5024 C   0  0  0  0  0  0  0  0  0  0  0  0
    3.4633   -3.8399   -0.0887 C   0  0  0  0  0  0  0  0  0  0  0  0
    3.0215   -3.0083    1.0550 N   0  0  2  0  0  0  0  0  0  0  0  0
    3.4880   -1.5994    1.0137 C   0  0  0  0  0  0  0  0  0  0  0  0
    3.2745   -3.7822    2.3043 C   0  0  2  0  0  0  0  0  0  0  0  0
    4.5275   -3.3917    3.1364 C   0  0  0  0  0  0  0  0  0  0  0  0
   -0.1842   -6.2585   -0.2807 H   0  0  0  0  0  0  0  0  0  0  0  0
   -0.4113   -6.6628    1.4097 H   0  0  0  0  0  0  0  0  0  0  0  0
    0.5742   -7.6963    0.3726 H   0  0  0  0  0  0  0  0  0  0  0  0
    2.0594   -5.7080    4.1223 H   0  0  0  0  0  0  0  0  0  0  0  0
    0.5661   -5.5281    3.2074 H   0  0  0  0  0  0  0  0  0  0  0  0
   -0.2504   -7.3592    5.3315 H   0  0  0  0  0  0  0  0  0  0  0  0
   -0.3919   -9.8526    5.6091 H   0  0  0  0  0  0  0  0  0  0  0  0
    2.2848  -10.5534    2.5238 H   0  0  0  0  0  0  0  0  0  0  0  0
    2.6409   -8.1699    0.9118 H   0  0  0  0  0  0  0  0  0  0  0  0
    5.6225   -9.3049    3.6580 H   0  0  0  0  0  0  0  0  0  0  0  0
    7.2139   -6.6715    5.4365 H   0  0  0  0  0  0  0  0  0  0  0  0
    6.5995   -4.2678    5.1553 H   0  0  0  0  0  0  0  0  0  0  0  0
    5.1838   -4.9218    0.5763 H   0  0  0  0  0  0  0  0  0  0  0  0
    3.9715   -5.9868   -0.1318 H   0  0  0  0  0  0  0  0  0  0  0  0
    4.1518   -3.3144   -0.7504 H   0  0  0  0  0  0  0  0  0  0  0  0
    2.5918   -4.0986   -0.6905 H   0  0  0  0  0  0  0  0  0  0  0  0
    4.5742   -1.5296    0.9398 H   0  0  0  0  0  0  0  0  0  0  0  0
    3.1619   -1.0536    1.9000 H   0  0  0  0  0  0  0  0  0  0  0  0
    3.0700   -1.0903    0.1421 H   0  0  0  0  0  0  0  0  0  0  0  0
    2.4042   -3.6768    2.9469 H   0  0  0  0  0  0  0  0  0  0  0  0
    4.2718   -2.7273    3.9628 H   0  0  0  0  0  0  0  0  0  0  0  0
    5.2999   -2.9066    2.5367 H   0  0  0  0  0  0  0  0  0  0  0  0
    2.0197   -2.9465    0.9560 H   0  0  0  0  0  0  0  0  0  0  0  0
  1  2  1  0
  1 27  1  0
  1 28  1  0
  1 29  1  0
  3  2  1  6
  3 11  1  0
  3 20  1  0
  3  4  1  0
  4  5  1  0
  4 30  1  0
  4 31  1  0
  5 10  2  0
  5  6  1  0
  6  7  2  0
  6 32  1  0
  7  8  1  0
  7 33  1  0
  8  9  2  0
  9 10  1  0
  9 34  1  0
 10 11  1  0
 11 12  1  0
 11 35  1  6
 12 13  1  0
 13 19  2  0
 13 14  1  0
 14 15  1  0
 14 16  2  0
 15 36  1  0
 16 17  1  0
 16 37  1  0
 17 18  2  0
 17 38  1  0
 18 26  1  0
 18 19  1  0
 19 20  1  0
 20 25  1  0
 20 21  1  6
 21 22  1  0
 21 39  1  0
 21 40  1  0
 22 23  1  0
 22 41  1  0
 22 42  1  0
 23 24  1  0
 23 25  1  0
 23 49  1  6
 24 43  1  0
 24 44  1  0
 24 45  1  0
 25 26  1  0
 25 46  1  1
 26 47  1  0
 26 48  1  0
M  CHG  1  23   1
M  END
>  <i_m_ct_stereo_status>  (136) 
1

>  <s_m_source_file>  (136) 
/var/tmp/pbs.5076255.sched01/tmpjtt61wjg/4457_394l_.sdf

>  <i_m_source_file_index>  (136) 
24

>  <i_lp_mmshare_version>  (136) 
48012

>  <i_f3d_flags>  (136) 
0

>  <s_epik_input>  (136) 
W2NIXTFuW2NIXVtjSF1jKFtDSDJdMiljMVtDQEBIXShbQ0BAXTIoW0NAQF0zNDUpT1tDSDNdKU9jNmMzYyhbY0hdW2NIXWM2W09IXSlbQ0gyXVtDQEhdNU4oW0NIM10pW0NIMl1bQ0gyXTQ=

>  <s_epik_cmdline>  (136) 
J2VwaWtfcHl0aG9uJywgJy1waHQnLCAnMi4wJywgJy1waCcsICc3LjAnLCAnLXRuJywgJzgnLCAnLW1hJywgJzIwMCcsICctaW1hZScsICc8aW5maWxlLm1hZT4nLCAnLW9tYWUnLCAnPG91dGZpbGUubWFlPic=

>  <r_lp_tautomer_probability>  (136) 
1

>  <r_epik_Ionization_Penalty>  (136) 
0.0434054

>  <r_epik_Ionization_Penalty_Charging>  (136) 
0.021031

>  <r_epik_Ionization_Penalty_Neutral>  (136) 
0.0223745

>  <r_epik_State_Penalty>  (136) 
0.03094

>  <r_epik_Charging_Adjusted_Penalty>  (136) 
0.0519709

>  <i_epik_Tot_Q>  (136) 
1

>  <i_epik_Tot_abs_Q>  (136) 
1

>  <s_lp_Force_Field>  (136) 
OPLS3e

>  <r_lp_Energy>  (136) 
60.5007

>  <b_lp_Chiralities_Consistent>  (136) 
1

>  <s_lp_Variant>  (136) 
51:0-1

>  <s_i_glide_gridfile>  (136) 
pfpi4k_grid

>  <i_i_glide_lignum>  (136) 
24

>  <i_i_glide_rotatable_bonds>  (136) 
2

>  <r_i_docking_score>  (136) 
-2.83601

>  <r_i_glide_ligand_efficiency>  (136) 
-0.109077

>  <r_i_glide_ligand_efficiency_sa>  (136) 
-0.323141

>  <r_i_glide_ligand_efficiency_ln>  (136) 
-0.666027

>  <r_i_glide_gscore>  (136) 
-2.83601

>  <r_i_glide_lipo>  (136) 
-0.112296

>  <r_i_glide_hbond>  (136) 
-0.15307

>  <r_i_glide_metal>  (136) 
-0

>  <r_i_glide_rewards>  (136) 
-1.01305

>  <r_i_glide_evdw>  (136) 
-18.1956

>  <r_i_glide_ecoul>  (136) 
-4.22317

>  <r_i_glide_erotb>  (136) 
0

>  <r_i_glide_esite>  (136) 
-0.0143345

>  <r_i_glide_emodel>  (136) 
-27.8139

>  <r_i_glide_energy>  (136) 
-22.4187

>  <r_i_glide_einternal>  (136) 
0.00698677

>  <r_i_glide_intrahb_reward>  (136) 
-0

>  <i_i_glide_confnum>  (136) 
2

>  <i_i_glide_posenum>  (136) 
22

>  <r_i_glide_eff_state_penalty>  (136) 
0

>  <ligand_id>  (136) 
51

>  <original_smiles>  (136) 
COC12Cc3ccncc3C1Oc1c(O)ccc3c1C21CCN(C)C1C3

>  <smiles>  (136) 
[H]Oc1c([H])c([H])c2c3c1OC1([H])c4c([H])nc([H])c([H])c4C([H])([H])C1(OC([H])([H])[H])C31C([H])([H])C([H])([H])[N+]([H])(C([H])([H])[H])C1([H])C2([H])[H]

$$$$
51:1:0
     RDKit          3D

 48 53  0  0  1  0  0  0  0  0999 V2000
    2.5120    0.0115    1.5641 C   0  0  0  0  0  0  0  0  0  0  0  0
    2.7229   -1.3976    1.6383 O   0  0  0  0  0  0  0  0  0  0  0  0
    3.8346   -1.9942    0.9482 C   0  0  1  0  0  0  0  0  0  0  0  0
    3.1831   -3.0963    0.0223 C   0  0  0  0  0  0  0  0  0  0  0  0
    3.3206   -2.5649   -1.3774 C   0  0  0  0  0  0  0  0  0  0  0  0
    2.7286   -3.0484   -2.5582 C   0  0  0  0  0  0  0  0  0  0  0  0
    3.0160   -2.3437   -3.7448 C   0  0  0  0  0  0  0  0  0  0  0  0
    3.7806   -1.2282   -3.7906 N   0  0  0  0  0  0  0  0  0  0  0  0
    4.3119   -0.7736   -2.6384 C   0  0  0  0  0  0  0  0  0  0  0  0
    4.1262   -1.4522   -1.4210 C   0  0  0  0  0  0  0  0  0  0  0  0
    4.6642   -1.0563   -0.0798 C   0  0  2  0  0  0  0  0  0  0  0  0
    6.0937   -1.1792   -0.0403 O   0  0  0  0  0  0  0  0  0  0  0  0
    6.5884   -2.3869    0.3242 C   0  0  0  0  0  0  0  0  0  0  0  0
    7.7358   -2.9745   -0.2684 C   0  0  0  0  0  0  0  0  0  0  0  0
    8.3704   -2.2666   -1.2462 O   0  0  0  0  0  0  0  0  0  0  0  0
    8.1861   -4.2632    0.0959 C   0  0  0  0  0  0  0  0  0  0  0  0
    7.4760   -5.0465    1.0516 C   0  0  0  0  0  0  0  0  0  0  0  0
    6.3342   -4.4749    1.6569 C   0  0  0  0  0  0  0  0  0  0  0  0
    5.9776   -3.1899    1.3041 C   0  0  0  0  0  0  0  0  0  0  0  0
    4.7753   -2.6335    2.0164 C   0  0  1  0  0  0  0  0  0  0  0  0
    5.1730   -1.6314    3.1034 C   0  0  0  0  0  0  0  0  0  0  0  0
    4.2811   -1.9649    4.3001 C   0  0  0  0  0  0  0  0  0  0  0  0
    4.0927   -3.4101    4.2530 N   0  0  0  0  0  0  0  0  0  0  0  0
    4.8704   -4.0739    5.2948 C   0  0  0  0  0  0  0  0  0  0  0  0
    4.2658   -3.8459    2.8469 C   0  0  2  0  0  0  0  0  0  0  0  0
    5.2634   -5.0103    2.5715 C   0  0  0  0  0  0  0  0  0  0  0  0
    1.6772    0.3347    2.1781 H   0  0  0  0  0  0  0  0  0  0  0  0
    2.2856    0.2832    0.5335 H   0  0  0  0  0  0  0  0  0  0  0  0
    3.3825    0.5765    1.9065 H   0  0  0  0  0  0  0  0  0  0  0  0
    3.7292   -4.0440    0.0427 H   0  0  0  0  0  0  0  0  0  0  0  0
    2.1471   -3.3119    0.2814 H   0  0  0  0  0  0  0  0  0  0  0  0
    2.1013   -3.9365   -2.5760 H   0  0  0  0  0  0  0  0  0  0  0  0
    2.6309   -2.6881   -4.6881 H   0  0  0  0  0  0  0  0  0  0  0  0
    4.8931    0.1301   -2.6720 H   0  0  0  0  0  0  0  0  0  0  0  0
    4.5483    0.0207   -0.0117 H   0  0  0  0  0  0  0  0  0  0  0  0
    9.2149   -2.6033   -1.5333 H   0  0  0  0  0  0  0  0  0  0  0  0
    9.0371   -4.6891   -0.4059 H   0  0  0  0  0  0  0  0  0  0  0  0
    7.7869   -6.0528    1.2846 H   0  0  0  0  0  0  0  0  0  0  0  0
    6.2124   -1.7929    3.3659 H   0  0  0  0  0  0  0  0  0  0  0  0
    5.0834   -0.5912    2.7971 H   0  0  0  0  0  0  0  0  0  0  0  0
    4.6854   -1.6019    5.2456 H   0  0  0  0  0  0  0  0  0  0  0  0
    3.3026   -1.5012    4.1701 H   0  0  0  0  0  0  0  0  0  0  0  0
    4.6416   -5.1400    5.3311 H   0  0  0  0  0  0  0  0  0  0  0  0
    4.6171   -3.6689    6.2765 H   0  0  0  0  0  0  0  0  0  0  0  0
    5.9430   -3.9453    5.1471 H   0  0  0  0  0  0  0  0  0  0  0  0
    3.2755   -4.1424    2.5005 H   0  0  0  0  0  0  0  0  0  0  0  0
    4.7504   -5.7978    2.0199 H   0  0  0  0  0  0  0  0  0  0  0  0
    5.7250   -5.4850    3.4342 H   0  0  0  0  0  0  0  0  0  0  0  0
  1  2  1  0
  1 27  1  0
  1 28  1  0
  1 29  1  0
  3  2  1  1
  3 11  1  0
  3 20  1  0
  3  4  1  0
  4  5  1  0
  4 30  1  0
  4 31  1  0
  5 10  2  0
  5  6  1  0
  6  7  2  0
  6 32  1  0
  7  8  1  0
  7 33  1  0
  8  9  2  0
  9 10  1  0
  9 34  1  0
 10 11  1  0
 11 12  1  0
 11 35  1  1
 12 13  1  0
 13 19  2  0
 13 14  1  0
 14 15  1  0
 14 16  2  0
 15 36  1  0
 16 17  1  0
 16 37  1  0
 17 18  2  0
 17 38  1  0
 18 26  1  0
 18 19  1  0
 19 20  1  0
 20 25  1  0
 20 21  1  1
 21 22  1  0
 21 39  1  0
 21 40  1  0
 22 23  1  0
 22 41  1  0
 22 42  1  0
 23 24  1  0
 23 25  1  0
 24 43  1  0
 24 44  1  0
 24 45  1  0
 25 26  1  0
 25 46  1  6
 26 47  1  0
 26 48  1  0
M  END
>  <i_m_ct_stereo_status>  (137) 
1

>  <s_m_source_file>  (137) 
/var/tmp/pbs.5076255.sched01/tmpjtt61wjg/4457_394l_.sdf

>  <i_m_source_file_index>  (137) 
25

>  <i_lp_mmshare_version>  (137) 
48012

>  <i_f3d_flags>  (137) 
0

>  <s_epik_input>  (137) 
W2NIXTFuW2NIXVtjSF1jKFtDSDJdMiljMVtDQEBIXShbQ0BAXTIoW0NAQF0zNDUpT1tDSDNdKU9jNmMzYyhbY0hdW2NIXWM2W09IXSlbQ0gyXVtDQEhdNU4oW0NIM10pW0NIMl1bQ0gyXTQ=

>  <s_epik_cmdline>  (137) 
J2VwaWtfcHl0aG9uJywgJy1waHQnLCAnMi4wJywgJy1waCcsICc3LjAnLCAnLXRuJywgJzgnLCAnLW1hJywgJzIwMCcsICctaW1hZScsICc8aW5maWxlLm1hZT4nLCAnLW9tYWUnLCAnPG91dGZpbGUubWFlPic=

>  <r_lp_tautomer_probability>  (137) 
1

>  <r_epik_Ionization_Penalty>  (137) 
2.03453

>  <r_epik_Ionization_Penalty_Charging>  (137) 
0

>  <r_epik_Ionization_Penalty_Neutral>  (137) 
2.03453

>  <r_epik_State_Penalty>  (137) 
2.13028

>  <r_epik_Charging_Adjusted_Penalty>  (137) 
2.13028

>  <i_epik_Tot_Q>  (137) 
0

>  <i_epik_Tot_abs_Q>  (137) 
0

>  <s_lp_Force_Field>  (137) 
OPLS3e

>  <r_lp_Energy>  (137) 
59.6428

>  <b_lp_Chiralities_Consistent>  (137) 
1

>  <s_lp_Variant>  (137) 
51:0-2

>  <s_i_glide_gridfile>  (137) 
pfpi4k_grid

>  <i_i_glide_lignum>  (137) 
25

>  <i_i_glide_rotatable_bonds>  (137) 
2

>  <r_i_docking_score>  (137) 
-4.23272

>  <r_i_glide_ligand_efficiency>  (137) 
-0.162797

>  <r_i_glide_ligand_efficiency_sa>  (137) 
-0.482285

>  <r_i_glide_ligand_efficiency_ln>  (137) 
-0.99404

>  <r_i_glide_gscore>  (137) 
-4.23272

>  <r_i_glide_lipo>  (137) 
-0.966373

>  <r_i_glide_hbond>  (137) 
-0.00710877

>  <r_i_glide_metal>  (137) 
-0

>  <r_i_glide_rewards>  (137) 
-1.01993

>  <r_i_glide_evdw>  (137) 
-26.4738

>  <r_i_glide_ecoul>  (137) 
-6.10415

>  <r_i_glide_erotb>  (137) 
0

>  <r_i_glide_esite>  (137) 
0

>  <r_i_glide_emodel>  (137) 
-38.2939

>  <r_i_glide_energy>  (137) 
-32.5779

>  <r_i_glide_einternal>  (137) 
6.21025

>  <r_i_glide_intrahb_reward>  (137) 
-0

>  <i_i_glide_confnum>  (137) 
1

>  <i_i_glide_posenum>  (137) 
5

>  <r_i_glide_eff_state_penalty>  (137) 
0

>  <ligand_id>  (137) 
51

>  <original_smiles>  (137) 
COC12Cc3ccncc3C1Oc1c(O)ccc3c1C21CCN(C)C1C3

>  <smiles>  (137) 
[H]Oc1c([H])c([H])c2c3c1OC1([H])c4c([H])nc([H])c([H])c4C([H])([H])C1(OC([H])([H])[H])C31C([H])([H])C([H])([H])N(C([H])([H])[H])C1([H])C2([H])[H]

$$$$
51:1:1
     RDKit          3D

 48 53  0  0  1  0  0  0  0  0999 V2000
    2.3029   -0.6770    1.6592 C   0  0  0  0  0  0  0  0  0  0  0  0
    2.5147   -2.0768    1.4874 O   0  0  0  0  0  0  0  0  0  0  0  0
    3.7199   -2.5363    0.8459 C   0  0  1  0  0  0  0  0  0  0  0  0
    3.2180   -3.4997   -0.2975 C   0  0  0  0  0  0  0  0  0  0  0  0
    3.4439   -2.7424   -1.5761 C   0  0  0  0  0  0  0  0  0  0  0  0
    3.0174   -3.0548   -2.8760 C   0  0  0  0  0  0  0  0  0  0  0  0
    3.3831   -2.1667   -3.8966 C   0  0  0  0  0  0  0  0  0  0  0  0
    4.0990   -1.0341   -3.6901 N   0  0  0  0  0  0  0  0  0  0  0  0
    4.4926   -0.7590   -2.4285 C   0  0  0  0  0  0  0  0  0  0  0  0
    4.2042   -1.5982   -1.3553 C   0  0  0  0  0  0  0  0  0  0  0  0
    4.5857   -1.4162    0.0836 C   0  0  2  0  0  0  0  0  0  0  0  0
    6.0115   -1.4791    0.2357 O   0  0  0  0  0  0  0  0  0  0  0  0
    6.5467   -2.7304    0.4748 C   0  0  0  0  0  0  0  0  0  0  0  0
    7.7659   -3.1494   -0.0825 C   0  0  0  0  0  0  0  0  0  0  0  0
    8.4666   -2.2870   -0.8773 O   0  0  0  0  0  0  0  0  0  0  0  0
    8.2451   -4.4709    0.1330 C   0  0  0  0  0  0  0  0  0  0  0  0
    7.4879   -5.4097    0.8813 C   0  0  0  0  0  0  0  0  0  0  0  0
    6.2669   -4.9910    1.4422 C   0  0  0  0  0  0  0  0  0  0  0  0
    5.8758   -3.6696    1.2509 C   0  0  0  0  0  0  0  0  0  0  0  0
    4.5833   -3.2989    1.9141 C   0  0  1  0  0  0  0  0  0  0  0  0
    4.8219   -2.4753    3.1851 C   0  0  0  0  0  0  0  0  0  0  0  0
    3.8144   -3.0156    4.1931 C   0  0  0  0  0  0  0  0  0  0  0  0
    3.7087   -4.4407    3.9047 N   0  0  0  0  0  0  0  0  0  0  0  0
    4.4112   -5.2304    4.9148 C   0  0  0  0  0  0  0  0  0  0  0  0
    4.0511   -4.6421    2.4811 C   0  0  2  0  0  0  0  0  0  0  0  0
    5.1354   -5.7101    2.1381 C   0  0  0  0  0  0  0  0  0  0  0  0
    1.3904   -0.4874    2.2274 H   0  0  0  0  0  0  0  0  0  0  0  0
    2.1985   -0.1819    0.6962 H   0  0  0  0  0  0  0  0  0  0  0  0
    3.1136   -0.1950    2.2019 H   0  0  0  0  0  0  0  0  0  0  0  0
    3.8145   -4.4154   -0.3717 H   0  0  0  0  0  0  0  0  0  0  0  0
    2.1722   -3.8023   -0.1868 H   0  0  0  0  0  0  0  0  0  0  0  0
    2.4457   -3.9502   -3.1029 H   0  0  0  0  0  0  0  0  0  0  0  0
    3.1306   -2.3694   -4.9192 H   0  0  0  0  0  0  0  0  0  0  0  0
    5.0640    0.1425   -2.2815 H   0  0  0  0  0  0  0  0  0  0  0  0
    4.3699   -0.3789    0.3404 H   0  0  0  0  0  0  0  0  0  0  0  0
    9.2894   -2.6164   -1.2338 H   0  0  0  0  0  0  0  0  0  0  0  0
    9.1637   -4.7831   -0.3339 H   0  0  0  0  0  0  0  0  0  0  0  0
    7.8278   -6.4290    0.9881 H   0  0  0  0  0  0  0  0  0  0  0  0
    5.8194   -2.6550    3.5701 H   0  0  0  0  0  0  0  0  0  0  0  0
    4.7318   -1.4025    3.0326 H   0  0  0  0  0  0  0  0  0  0  0  0
    4.0966   -2.7921    5.2247 H   0  0  0  0  0  0  0  0  0  0  0  0
    2.8336   -2.5667    4.0256 H   0  0  0  0  0  0  0  0  0  0  0  0
    4.2387   -6.2975    4.7612 H   0  0  0  0  0  0  0  0  0  0  0  0
    4.0379   -4.9955    5.9149 H   0  0  0  0  0  0  0  0  0  0  0  0
    5.4853   -5.0390    4.9065 H   0  0  0  0  0  0  0  0  0  0  0  0
    3.1196   -4.9170    1.9857 H   0  0  0  0  0  0  0  0  0  0  0  0
    4.7218   -6.4135    1.4185 H   0  0  0  0  0  0  0  0  0  0  0  0
    5.5224   -6.3027    2.9601 H   0  0  0  0  0  0  0  0  0  0  0  0
  1  2  1  0
  1 27  1  0
  1 28  1  0
  1 29  1  0
  3  2  1  1
  3 11  1  0
  3 20  1  0
  3  4  1  0
  4  5  1  0
  4 30  1  0
  4 31  1  0
  5 10  2  0
  5  6  1  0
  6  7  2  0
  6 32  1  0
  7  8  1  0
  7 33  1  0
  8  9  2  0
  9 10  1  0
  9 34  1  0
 10 11  1  0
 11 12  1  0
 11 35  1  1
 12 13  1  0
 13 19  2  0
 13 14  1  0
 14 15  1  0
 14 16  2  0
 15 36  1  0
 16 17  1  0
 16 37  1  0
 17 18  2  0
 17 38  1  0
 18 26  1  0
 18 19  1  0
 19 20  1  0
 20 25  1  0
 20 21  1  1
 21 22  1  0
 21 39  1  0
 21 40  1  0
 22 23  1  0
 22 41  1  0
 22 42  1  0
 23 24  1  0
 23 25  1  0
 24 43  1  0
 24 44  1  0
 24 45  1  0
 25 26  1  0
 25 46  1  6
 26 47  1  0
 26 48  1  0
M  END
>  <i_m_ct_stereo_status>  (138) 
1

>  <s_m_source_file>  (138) 
/var/tmp/pbs.5076255.sched01/tmpjtt61wjg/4457_394l_.sdf

>  <i_m_source_file_index>  (138) 
25

>  <i_lp_mmshare_version>  (138) 
48012

>  <i_f3d_flags>  (138) 
0

>  <s_epik_input>  (138) 
W2NIXTFuW2NIXVtjSF1jKFtDSDJdMiljMVtDQEBIXShbQ0BAXTIoW0NAQF0zNDUpT1tDSDNdKU9jNmMzYyhbY0hdW2NIXWM2W09IXSlbQ0gyXVtDQEhdNU4oW0NIM10pW0NIMl1bQ0gyXTQ=

>  <s_epik_cmdline>  (138) 
J2VwaWtfcHl0aG9uJywgJy1waHQnLCAnMi4wJywgJy1waCcsICc3LjAnLCAnLXRuJywgJzgnLCAnLW1hJywgJzIwMCcsICctaW1hZScsICc8aW5maWxlLm1hZT4nLCAnLW9tYWUnLCAnPG91dGZpbGUubWFlPic=

>  <r_lp_tautomer_probability>  (138) 
1

>  <r_epik_Ionization_Penalty>  (138) 
2.03453

>  <r_epik_Ionization_Penalty_Charging>  (138) 
0

>  <r_epik_Ionization_Penalty_Neutral>  (138) 
2.03453

>  <r_epik_State_Penalty>  (138) 
2.13028

>  <r_epik_Charging_Adjusted_Penalty>  (138) 
2.13028

>  <i_epik_Tot_Q>  (138) 
0

>  <i_epik_Tot_abs_Q>  (138) 
0

>  <s_lp_Force_Field>  (138) 
OPLS3e

>  <r_lp_Energy>  (138) 
59.6428

>  <b_lp_Chiralities_Consistent>  (138) 
1

>  <s_lp_Variant>  (138) 
51:0-2

>  <s_i_glide_gridfile>  (138) 
pfpi4k_grid

>  <i_i_glide_lignum>  (138) 
25

>  <i_i_glide_rotatable_bonds>  (138) 
2

>  <r_i_docking_score>  (138) 
-3.83731

>  <r_i_glide_ligand_efficiency>  (138) 
-0.147589

>  <r_i_glide_ligand_efficiency_sa>  (138) 
-0.437231

>  <r_i_glide_ligand_efficiency_ln>  (138) 
-0.90118

>  <r_i_glide_gscore>  (138) 
-3.83731

>  <r_i_glide_lipo>  (138) 
-0.817167

>  <r_i_glide_hbond>  (138) 
0

>  <r_i_glide_metal>  (138) 
-0

>  <r_i_glide_rewards>  (138) 
-1.01993

>  <r_i_glide_evdw>  (138) 
-26.6013

>  <r_i_glide_ecoul>  (138) 
-4.46768

>  <r_i_glide_erotb>  (138) 
0

>  <r_i_glide_esite>  (138) 
0

>  <r_i_glide_emodel>  (138) 
-35.8831

>  <r_i_glide_energy>  (138) 
-31.069

>  <r_i_glide_einternal>  (138) 
6.61247

>  <r_i_glide_intrahb_reward>  (138) 
-0

>  <i_i_glide_confnum>  (138) 
2

>  <i_i_glide_posenum>  (138) 
31

>  <r_i_glide_eff_state_penalty>  (138) 
0

>  <ligand_id>  (138) 
51

>  <original_smiles>  (138) 
COC12Cc3ccncc3C1Oc1c(O)ccc3c1C21CCN(C)C1C3

>  <smiles>  (138) 
[H]Oc1c([H])c([H])c2c3c1OC1([H])c4c([H])nc([H])c([H])c4C([H])([H])C1(OC([H])([H])[H])C31C([H])([H])C([H])([H])N(C([H])([H])[H])C1([H])C2([H])[H]

$$$$
51:1:2
     RDKit          3D

 48 53  0  0  1  0  0  0  0  0999 V2000
    2.1827   -2.0989    1.8744 C   0  0  0  0  0  0  0  0  0  0  0  0
    2.9240   -3.2159    2.3512 O   0  0  0  0  0  0  0  0  0  0  0  0
    4.0490   -3.6789    1.5922 C   0  0  1  0  0  0  0  0  0  0  0  0
    3.5636   -4.2270    0.1998 C   0  0  0  0  0  0  0  0  0  0  0  0
    3.9850   -3.1797   -0.7909 C   0  0  0  0  0  0  0  0  0  0  0  0
    3.6651   -3.0922   -2.1560 C   0  0  0  0  0  0  0  0  0  0  0  0
    4.2076   -1.9961   -2.8605 C   0  0  0  0  0  0  0  0  0  0  0  0
    5.0079   -1.0575   -2.2946 N   0  0  0  0  0  0  0  0  0  0  0  0
    5.2827   -1.1643   -0.9758 C   0  0  0  0  0  0  0  0  0  0  0  0
    4.7967   -2.2270   -0.2008 C   0  0  0  0  0  0  0  0  0  0  0  0
    5.0616   -2.4972    1.2525 C   0  0  2  0  0  0  0  0  0  0  0  0
    6.4627   -2.7619    1.4409 O   0  0  0  0  0  0  0  0  0  0  0  0
    6.8518   -4.0768    1.3284 C   0  0  0  0  0  0  0  0  0  0  0  0
    8.0855   -4.5012    0.7770 C   0  0  0  0  0  0  0  0  0  0  0  0
    8.9760   -3.5737    0.3207 O   0  0  0  0  0  0  0  0  0  0  0  0
    8.4048   -5.8782    0.6702 C   0  0  0  0  0  0  0  0  0  0  0  0
    7.4980   -6.8780    1.1042 C   0  0  0  0  0  0  0  0  0  0  0  0
    6.2787   -6.4706    1.6687 C   0  0  0  0  0  0  0  0  0  0  0  0
    6.0369   -5.1099    1.7964 C   0  0  0  0  0  0  0  0  0  0  0  0
    4.7396   -4.7711    2.4663 C   0  0  1  0  0  0  0  0  0  0  0  0
    4.9512   -4.3261    3.9220 C   0  0  0  0  0  0  0  0  0  0  0  0
    3.8198   -4.9878    4.7009 C   0  0  0  0  0  0  0  0  0  0  0  0
    3.5877   -6.2630    4.0336 N   0  0  0  0  0  0  0  0  0  0  0  0
    4.1022   -7.3737    4.8289 C   0  0  0  0  0  0  0  0  0  0  0  0
    4.0275   -6.1344    2.6265 C   0  0  2  0  0  0  0  0  0  0  0  0
    5.0202   -7.2000    2.0752 C   0  0  0  0  0  0  0  0  0  0  0  0
    1.3574   -1.9202    2.5585 H   0  0  0  0  0  0  0  0  0  0  0  0
    1.7725   -2.2673    0.8823 H   0  0  0  0  0  0  0  0  0  0  0  0
    2.7652   -1.1823    1.8477 H   0  0  0  0  0  0  0  0  0  0  0  0
    4.0694   -5.1532   -0.0839 H   0  0  0  0  0  0  0  0  0  0  0  0
    2.4894   -4.4089    0.1578 H   0  0  0  0  0  0  0  0  0  0  0  0
    3.0470   -3.8368   -2.6442 H   0  0  0  0  0  0  0  0  0  0  0  0
    4.0201   -1.8778   -3.9161 H   0  0  0  0  0  0  0  0  0  0  0  0
    5.9235   -0.4127   -0.5473 H   0  0  0  0  0  0  0  0  0  0  0  0
    4.8506   -1.5993    1.8333 H   0  0  0  0  0  0  0  0  0  0  0  0
    8.6430   -2.6932    0.4112 H   0  0  0  0  0  0  0  0  0  0  0  0
    9.3327   -6.1784    0.2102 H   0  0  0  0  0  0  0  0  0  0  0  0
    7.7242   -7.9245    0.9504 H   0  0  0  0  0  0  0  0  0  0  0  0
    5.8966   -4.7121    4.3050 H   0  0  0  0  0  0  0  0  0  0  0  0
    4.9558   -3.2425    4.0481 H   0  0  0  0  0  0  0  0  0  0  0  0
    4.0376   -5.0811    5.7671 H   0  0  0  0  0  0  0  0  0  0  0  0
    2.9108   -4.3930    4.6138 H   0  0  0  0  0  0  0  0  0  0  0  0
    3.8275   -8.3305    4.3840 H   0  0  0  0  0  0  0  0  0  0  0  0
    3.6710   -7.3622    5.8315 H   0  0  0  0  0  0  0  0  0  0  0  0
    5.1869   -7.3288    4.9318 H   0  0  0  0  0  0  0  0  0  0  0  0
    3.1196   -6.1472    2.0265 H   0  0  0  0  0  0  0  0  0  0  0  0
    4.5992   -7.6330    1.1696 H   0  0  0  0  0  0  0  0  0  0  0  0
    5.2632   -8.0316    2.7286 H   0  0  0  0  0  0  0  0  0  0  0  0
  1  2  1  0
  1 27  1  0
  1 28  1  0
  1 29  1  0
  3  2  1  1
  3 11  1  0
  3 20  1  0
  3  4  1  0
  4  5  1  0
  4 30  1  0
  4 31  1  0
  5 10  2  0
  5  6  1  0
  6  7  2  0
  6 32  1  0
  7  8  1  0
  7 33  1  0
  8  9  2  0
  9 10  1  0
  9 34  1  0
 10 11  1  0
 11 12  1  0
 11 35  1  1
 12 13  1  0
 13 19  2  0
 13 14  1  0
 14 15  1  0
 14 16  2  0
 15 36  1  0
 16 17  1  0
 16 37  1  0
 17 18  2  0
 17 38  1  0
 18 26  1  0
 18 19  1  0
 19 20  1  0
 20 25  1  0
 20 21  1  1
 21 22  1  0
 21 39  1  0
 21 40  1  0
 22 23  1  0
 22 41  1  0
 22 42  1  0
 23 24  1  0
 23 25  1  0
 24 43  1  0
 24 44  1  0
 24 45  1  0
 25 26  1  0
 25 46  1  6
 26 47  1  0
 26 48  1  0
M  END
>  <i_m_ct_stereo_status>  (139) 
1

>  <s_m_source_file>  (139) 
/var/tmp/pbs.5076255.sched01/tmpjtt61wjg/4457_394l_.sdf

>  <i_m_source_file_index>  (139) 
25

>  <i_lp_mmshare_version>  (139) 
48012

>  <i_f3d_flags>  (139) 
0

>  <s_epik_input>  (139) 
W2NIXTFuW2NIXVtjSF1jKFtDSDJdMiljMVtDQEBIXShbQ0BAXTIoW0NAQF0zNDUpT1tDSDNdKU9jNmMzYyhbY0hdW2NIXWM2W09IXSlbQ0gyXVtDQEhdNU4oW0NIM10pW0NIMl1bQ0gyXTQ=

>  <s_epik_cmdline>  (139) 
J2VwaWtfcHl0aG9uJywgJy1waHQnLCAnMi4wJywgJy1waCcsICc3LjAnLCAnLXRuJywgJzgnLCAnLW1hJywgJzIwMCcsICctaW1hZScsICc8aW5maWxlLm1hZT4nLCAnLW9tYWUnLCAnPG91dGZpbGUubWFlPic=

>  <r_lp_tautomer_probability>  (139) 
1

>  <r_epik_Ionization_Penalty>  (139) 
2.03453

>  <r_epik_Ionization_Penalty_Charging>  (139) 
0

>  <r_epik_Ionization_Penalty_Neutral>  (139) 
2.03453

>  <r_epik_State_Penalty>  (139) 
2.13028

>  <r_epik_Charging_Adjusted_Penalty>  (139) 
2.13028

>  <i_epik_Tot_Q>  (139) 
0

>  <i_epik_Tot_abs_Q>  (139) 
0

>  <s_lp_Force_Field>  (139) 
OPLS3e

>  <r_lp_Energy>  (139) 
59.6428

>  <b_lp_Chiralities_Consistent>  (139) 
1

>  <s_lp_Variant>  (139) 
51:0-2

>  <s_i_glide_gridfile>  (139) 
pfpi4k_grid

>  <i_i_glide_lignum>  (139) 
25

>  <i_i_glide_rotatable_bonds>  (139) 
2

>  <r_i_docking_score>  (139) 
-3.02386

>  <r_i_glide_ligand_efficiency>  (139) 
-0.116302

>  <r_i_glide_ligand_efficiency_sa>  (139) 
-0.344545

>  <r_i_glide_ligand_efficiency_ln>  (139) 
-0.710144

>  <r_i_glide_gscore>  (139) 
-3.02386

>  <r_i_glide_lipo>  (139) 
-0.554771

>  <r_i_glide_hbond>  (139) 
0

>  <r_i_glide_metal>  (139) 
-0

>  <r_i_glide_rewards>  (139) 
-1.01993

>  <r_i_glide_evdw>  (139) 
-22.7023

>  <r_i_glide_ecoul>  (139) 
-2.09369

>  <r_i_glide_erotb>  (139) 
0

>  <r_i_glide_esite>  (139) 
0

>  <r_i_glide_emodel>  (139) 
-31.2265

>  <r_i_glide_energy>  (139) 
-24.7959

>  <r_i_glide_einternal>  (139) 
0.139142

>  <r_i_glide_intrahb_reward>  (139) 
-0

>  <i_i_glide_confnum>  (139) 
1

>  <i_i_glide_posenum>  (139) 
39

>  <r_i_glide_eff_state_penalty>  (139) 
0

>  <ligand_id>  (139) 
51

>  <original_smiles>  (139) 
COC12Cc3ccncc3C1Oc1c(O)ccc3c1C21CCN(C)C1C3

>  <smiles>  (139) 
[H]Oc1c([H])c([H])c2c3c1OC1([H])c4c([H])nc([H])c([H])c4C([H])([H])C1(OC([H])([H])[H])C31C([H])([H])C([H])([H])N(C([H])([H])[H])C1([H])C2([H])[H]

$$$$
51:2:0
     RDKit          3D

 50 55  0  0  1  0  0  0  0  0999 V2000
    2.2092   -2.1141    2.0859 C   0  0  0  0  0  0  0  0  0  0  0  0
    2.5798   -3.3778    1.5321 O   0  0  0  0  0  0  0  0  0  0  0  0
    3.8254   -3.5047    0.8219 C   0  0  1  0  0  0  0  0  0  0  0  0
    3.4472   -4.1872   -0.5468 C   0  0  0  0  0  0  0  0  0  0  0  0
    3.5086   -3.0818   -1.5695 C   0  0  0  0  0  0  0  0  0  0  0  0
    3.0931   -3.0992   -2.9211 C   0  0  0  0  0  0  0  0  0  0  0  0
    3.2686   -1.9199   -3.6764 C   0  0  0  0  0  0  0  0  0  0  0  0
    3.8166   -0.8182   -3.0989 N   0  0  0  0  0  0  0  0  0  0  0  0
    4.2390   -0.7901   -1.8151 C   0  0  0  0  0  0  0  0  0  0  0  0
    4.0957   -1.9478   -1.0380 C   0  0  0  0  0  0  0  0  0  0  0  0
    4.5164   -2.1251    0.3906 C   0  0  2  0  0  0  0  0  0  0  0  0
    5.9423   -2.0507    0.4828 O   0  0  0  0  0  0  0  0  0  0  0  0
    6.6426   -3.2220    0.4662 C   0  0  0  0  0  0  0  0  0  0  0  0
    7.9248   -3.3485   -0.1021 C   0  0  0  0  0  0  0  0  0  0  0  0
    8.4866   -2.2631   -0.7171 O   0  0  0  0  0  0  0  0  0  0  0  0
    8.6183   -4.5803   -0.0779 C   0  0  0  0  0  0  0  0  0  0  0  0
    8.0516   -5.7388    0.5026 C   0  0  0  0  0  0  0  0  0  0  0  0
    6.7595   -5.6346    1.0538 C   0  0  0  0  0  0  0  0  0  0  0  0
    6.1343   -4.3955    1.0377 C   0  0  0  0  0  0  0  0  0  0  0  0
    4.7841   -4.3814    1.6924 C   0  0  1  0  0  0  0  0  0  0  0  0
    4.8770   -3.9151    3.1635 C   0  0  0  0  0  0  0  0  0  0  0  0
    3.8812   -4.7887    3.9381 C   0  0  0  0  0  0  0  0  0  0  0  0
    3.7151   -6.0412    3.1607 N   0  0  2  0  0  0  0  0  0  0  0  0
    3.9438   -7.2861    3.9435 C   0  0  0  0  0  0  0  0  0  0  0  0
    4.4654   -5.8826    1.8790 C   0  0  2  0  0  0  0  0  0  0  0  0
    5.8435   -6.5984    1.7808 C   0  0  0  0  0  0  0  0  0  0  0  0
    1.2956   -2.1958    2.6740 H   0  0  0  0  0  0  0  0  0  0  0  0
    2.0223   -1.3895    1.2939 H   0  0  0  0  0  0  0  0  0  0  0  0
    2.9675   -1.7066    2.7539 H   0  0  0  0  0  0  0  0  0  0  0  0
    4.1956   -4.9269   -0.8465 H   0  0  0  0  0  0  0  0  0  0  0  0
    2.4748   -4.6856   -0.5300 H   0  0  0  0  0  0  0  0  0  0  0  0
    2.6608   -3.9874   -3.3683 H   0  0  0  0  0  0  0  0  0  0  0  0
    2.9855   -1.8213   -4.7161 H   0  0  0  0  0  0  0  0  0  0  0  0
    4.6405    0.1378   -1.4423 H   0  0  0  0  0  0  0  0  0  0  0  0
    4.2173   -1.2441    0.9573 H   0  0  0  0  0  0  0  0  0  0  0  0
    9.3577   -2.4068   -1.0801 H   0  0  0  0  0  0  0  0  0  0  0  0
    9.5636   -4.6389   -0.5721 H   0  0  0  0  0  0  0  0  0  0  0  0
    8.5786   -6.6883    0.4981 H   0  0  0  0  0  0  0  0  0  0  0  0
    5.8707   -4.1327    3.5580 H   0  0  0  0  0  0  0  0  0  0  0  0
    4.7182   -2.8472    3.2983 H   0  0  0  0  0  0  0  0  0  0  0  0
    4.2230   -4.9685    4.9587 H   0  0  0  0  0  0  0  0  0  0  0  0
    2.9072   -4.3013    4.0137 H   0  0  0  0  0  0  0  0  0  0  0  0
    4.9318   -7.2996    4.4083 H   0  0  0  0  0  0  0  0  0  0  0  0
    3.8362   -8.1705    3.3126 H   0  0  0  0  0  0  0  0  0  0  0  0
    3.2087   -7.3610    4.7482 H   0  0  0  0  0  0  0  0  0  0  0  0
    3.8340   -6.2581    1.0736 H   0  0  0  0  0  0  0  0  0  0  0  0
    5.7633   -7.5534    1.2597 H   0  0  0  0  0  0  0  0  0  0  0  0
    6.2997   -6.7745    2.7571 H   0  0  0  0  0  0  0  0  0  0  0  0
    2.7326   -6.0583    2.9090 H   0  0  0  0  0  0  0  0  0  0  0  0
    3.9067    0.0307   -3.6542 H   0  0  0  0  0  0  0  0  0  0  0  0
  1  2  1  0
  1 27  1  0
  1 28  1  0
  1 29  1  0
  3  2  1  1
  3 11  1  0
  3 20  1  0
  3  4  1  0
  4  5  1  0
  4 30  1  0
  4 31  1  0
  5 10  2  0
  5  6  1  0
  6  7  2  0
  6 32  1  0
  7  8  1  0
  7 33  1  0
  8  9  2  0
  8 50  1  0
  9 10  1  0
  9 34  1  0
 10 11  1  0
 11 12  1  0
 11 35  1  1
 12 13  1  0
 13 19  2  0
 13 14  1  0
 14 15  1  0
 14 16  2  0
 15 36  1  0
 16 17  1  0
 16 37  1  0
 17 18  2  0
 17 38  1  0
 18 26  1  0
 18 19  1  0
 19 20  1  0
 20 25  1  0
 20 21  1  1
 21 22  1  0
 21 39  1  0
 21 40  1  0
 22 23  1  0
 22 41  1  0
 22 42  1  0
 23 24  1  0
 23 25  1  0
 23 49  1  6
 24 43  1  0
 24 44  1  0
 24 45  1  0
 25 26  1  0
 25 46  1  6
 26 47  1  0
 26 48  1  0
M  CHG  2   8   1  23   1
M  END
>  <i_m_ct_stereo_status>  (140) 
1

>  <s_m_source_file>  (140) 
/var/tmp/pbs.5076255.sched01/tmpjtt61wjg/4457_394l_.sdf

>  <i_m_source_file_index>  (140) 
26

>  <i_lp_mmshare_version>  (140) 
48012

>  <i_f3d_flags>  (140) 
0

>  <s_epik_input>  (140) 
W2NIXTFuW2NIXVtjSF1jKFtDSDJdMiljMVtDQEBIXShbQ0BAXTIoW0NAQF0zNDUpT1tDSDNdKU9jNmMzYyhbY0hdW2NIXWM2W09IXSlbQ0gyXVtDQEhdNU4oW0NIM10pW0NIMl1bQ0gyXTQ=

>  <s_epik_cmdline>  (140) 
J2VwaWtfcHl0aG9uJywgJy1waHQnLCAnMi4wJywgJy1waCcsICc3LjAnLCAnLXRuJywgJzgnLCAnLW1hJywgJzIwMCcsICctaW1hZScsICc8aW5maWxlLm1hZT4nLCAnLW9tYWUnLCAnPG91dGZpbGUubWFlPic=

>  <r_lp_tautomer_probability>  (140) 
1

>  <r_epik_Ionization_Penalty>  (140) 
2.11254

>  <r_epik_Ionization_Penalty_Charging>  (140) 
2.10587

>  <r_epik_Ionization_Penalty_Neutral>  (140) 
0.00667252

>  <r_epik_State_Penalty>  (140) 
2.22395

>  <r_epik_Charging_Adjusted_Penalty>  (140) 
4.32982

>  <i_epik_Tot_Q>  (140) 
2

>  <i_epik_Tot_abs_Q>  (140) 
2

>  <s_lp_Force_Field>  (140) 
OPLS3e

>  <r_lp_Energy>  (140) 
66.4997

>  <b_lp_Chiralities_Consistent>  (140) 
1

>  <s_lp_Variant>  (140) 
51:0-3

>  <s_i_glide_gridfile>  (140) 
pfpi4k_grid

>  <i_i_glide_lignum>  (140) 
26

>  <i_i_glide_rotatable_bonds>  (140) 
2

>  <r_i_docking_score>  (140) 
-4.34696

>  <r_i_glide_ligand_efficiency>  (140) 
-0.167191

>  <r_i_glide_ligand_efficiency_sa>  (140) 
-0.495302

>  <r_i_glide_ligand_efficiency_ln>  (140) 
-1.02087

>  <r_i_glide_gscore>  (140) 
-4.34696

>  <r_i_glide_lipo>  (140) 
-0.910282

>  <r_i_glide_hbond>  (140) 
0

>  <r_i_glide_metal>  (140) 
-0

>  <r_i_glide_rewards>  (140) 
-1.00618

>  <r_i_glide_evdw>  (140) 
-21.8632

>  <r_i_glide_ecoul>  (140) 
-8.91557

>  <r_i_glide_erotb>  (140) 
0

>  <r_i_glide_esite>  (140) 
0

>  <r_i_glide_emodel>  (140) 
-37.2095

>  <r_i_glide_energy>  (140) 
-30.7788

>  <r_i_glide_einternal>  (140) 
5.7092

>  <r_i_glide_intrahb_reward>  (140) 
-0

>  <i_i_glide_confnum>  (140) 
2

>  <i_i_glide_posenum>  (140) 
1

>  <r_i_glide_eff_state_penalty>  (140) 
0

>  <ligand_id>  (140) 
51

>  <original_smiles>  (140) 
COC12Cc3ccncc3C1Oc1c(O)ccc3c1C21CCN(C)C1C3

>  <smiles>  (140) 
[H]Oc1c([H])c([H])c2c3c1OC1([H])c4c(c([H])c([H])[n+]([H])c4[H])C([H])([H])C1(OC([H])([H])[H])C31C([H])([H])C([H])([H])[N+]([H])(C([H])([H])[H])C1([H])C2([H])[H]

$$$$
51:2:1
     RDKit          3D

 50 55  0  0  1  0  0  0  0  0999 V2000
    1.8689   -5.4809    1.4212 C   0  0  0  0  0  0  0  0  0  0  0  0
    2.7493   -4.4037    1.7463 O   0  0  0  0  0  0  0  0  0  0  0  0
    4.0055   -4.2740    1.0510 C   0  0  1  0  0  0  0  0  0  0  0  0
    3.9151   -4.7258   -0.4614 C   0  0  0  0  0  0  0  0  0  0  0  0
    3.6912   -3.4625   -1.2290 C   0  0  0  0  0  0  0  0  0  0  0  0
    3.3245   -3.3247   -2.5821 C   0  0  0  0  0  0  0  0  0  0  0  0
    3.2156   -2.0225   -3.1056 C   0  0  0  0  0  0  0  0  0  0  0  0
    3.4859   -0.9592   -2.3177 N   0  0  0  0  0  0  0  0  0  0  0  0
    3.8429   -1.0637   -1.0064 C   0  0  0  0  0  0  0  0  0  0  0  0
    3.9304   -2.3500   -0.4483 C   0  0  0  0  0  0  0  0  0  0  0  0
    4.3204   -2.7129    0.9601 C   0  0  2  0  0  0  0  0  0  0  0  0
    5.6810   -2.3030    1.1732 O   0  0  0  0  0  0  0  0  0  0  0  0
    6.6515   -3.2466    0.9533 C   0  0  0  0  0  0  0  0  0  0  0  0
    7.9407   -2.9631    0.4436 C   0  0  0  0  0  0  0  0  0  0  0  0
    8.2997   -1.6893    0.1064 O   0  0  0  0  0  0  0  0  0  0  0  0
    8.8901   -3.9908    0.2763 C   0  0  0  0  0  0  0  0  0  0  0  0
    8.6175   -5.3369    0.6257 C   0  0  0  0  0  0  0  0  0  0  0  0
    7.3445   -5.6307    1.1321 C   0  0  0  0  0  0  0  0  0  0  0  0
    6.4411   -4.5837    1.2870 C   0  0  0  0  0  0  0  0  0  0  0  0
    5.1224   -5.0060    1.8552 C   0  0  1  0  0  0  0  0  0  0  0  0
    5.0746   -4.7672    3.3855 C   0  0  0  0  0  0  0  0  0  0  0  0
    4.3118   -5.9724    3.9555 C   0  0  0  0  0  0  0  0  0  0  0  0
    4.4665   -7.0761    2.9795 N   0  0  2  0  0  0  0  0  0  0  0  0
    4.9559   -8.3541    3.5547 C   0  0  0  0  0  0  0  0  0  0  0  0
    5.1783   -6.5404    1.7864 C   0  0  2  0  0  0  0  0  0  0  0  0
    6.6886   -6.8886    1.6504 C   0  0  0  0  0  0  0  0  0  0  0  0
    1.0609   -5.5567    2.1505 H   0  0  0  0  0  0  0  0  0  0  0  0
    2.3651   -6.4482    1.3869 H   0  0  0  0  0  0  0  0  0  0  0  0
    1.4114   -5.3131    0.4505 H   0  0  0  0  0  0  0  0  0  0  0  0
    4.8635   -5.1544   -0.8020 H   0  0  0  0  0  0  0  0  0  0  0  0
    3.1468   -5.4601   -0.6888 H   0  0  0  0  0  0  0  0  0  0  0  0
    3.1245   -4.1815   -3.2045 H   0  0  0  0  0  0  0  0  0  0  0  0
    2.9277   -1.8076   -4.1246 H   0  0  0  0  0  0  0  0  0  0  0  0
    4.0540   -0.1650   -0.4557 H   0  0  0  0  0  0  0  0  0  0  0  0
    3.7264   -2.1505    1.6864 H   0  0  0  0  0  0  0  0  0  0  0  0
    9.2070   -1.6011   -0.1725 H   0  0  0  0  0  0  0  0  0  0  0  0
    9.8275   -3.7001   -0.1298 H   0  0  0  0  0  0  0  0  0  0  0  0
    9.3601   -6.1177    0.5223 H   0  0  0  0  0  0  0  0  0  0  0  0
    6.0880   -4.7932    3.8038 H   0  0  0  0  0  0  0  0  0  0  0  0
    4.6364   -3.8067    3.6643 H   0  0  0  0  0  0  0  0  0  0  0  0
    4.6731   -6.2383    4.9542 H   0  0  0  0  0  0  0  0  0  0  0  0
    3.2505   -5.7347    4.0517 H   0  0  0  0  0  0  0  0  0  0  0  0
    5.9139   -8.2205    4.0695 H   0  0  0  0  0  0  0  0  0  0  0  0
    5.0697   -9.1122    2.7746 H   0  0  0  0  0  0  0  0  0  0  0  0
    4.2361   -8.7312    4.2881 H   0  0  0  0  0  0  0  0  0  0  0  0
    4.6776   -6.8994    0.8890 H   0  0  0  0  0  0  0  0  0  0  0  0
    6.8470   -7.7321    0.9742 H   0  0  0  0  0  0  0  0  0  0  0  0
    7.1593   -7.1211    2.6096 H   0  0  0  0  0  0  0  0  0  0  0  0
    3.5191   -7.2726    2.6661 H   0  0  0  0  0  0  0  0  0  0  0  0
    3.3864   -0.0229   -2.7138 H   0  0  0  0  0  0  0  0  0  0  0  0
  1  2  1  0
  1 27  1  0
  1 28  1  0
  1 29  1  0
  3  2  1  1
  3 11  1  0
  3 20  1  0
  3  4  1  0
  4  5  1  0
  4 30  1  0
  4 31  1  0
  5 10  2  0
  5  6  1  0
  6  7  2  0
  6 32  1  0
  7  8  1  0
  7 33  1  0
  8  9  2  0
  8 50  1  0
  9 10  1  0
  9 34  1  0
 10 11  1  0
 11 12  1  0
 11 35  1  1
 12 13  1  0
 13 19  2  0
 13 14  1  0
 14 15  1  0
 14 16  2  0
 15 36  1  0
 16 17  1  0
 16 37  1  0
 17 18  2  0
 17 38  1  0
 18 26  1  0
 18 19  1  0
 19 20  1  0
 20 25  1  0
 20 21  1  1
 21 22  1  0
 21 39  1  0
 21 40  1  0
 22 23  1  0
 22 41  1  0
 22 42  1  0
 23 24  1  0
 23 25  1  0
 23 49  1  6
 24 43  1  0
 24 44  1  0
 24 45  1  0
 25 26  1  0
 25 46  1  6
 26 47  1  0
 26 48  1  0
M  CHG  2   8   1  23   1
M  END
>  <i_m_ct_stereo_status>  (141) 
1

>  <s_m_source_file>  (141) 
/var/tmp/pbs.5076255.sched01/tmpjtt61wjg/4457_394l_.sdf

>  <i_m_source_file_index>  (141) 
26

>  <i_lp_mmshare_version>  (141) 
48012

>  <i_f3d_flags>  (141) 
0

>  <s_epik_input>  (141) 
W2NIXTFuW2NIXVtjSF1jKFtDSDJdMiljMVtDQEBIXShbQ0BAXTIoW0NAQF0zNDUpT1tDSDNdKU9jNmMzYyhbY0hdW2NIXWM2W09IXSlbQ0gyXVtDQEhdNU4oW0NIM10pW0NIMl1bQ0gyXTQ=

>  <s_epik_cmdline>  (141) 
J2VwaWtfcHl0aG9uJywgJy1waHQnLCAnMi4wJywgJy1waCcsICc3LjAnLCAnLXRuJywgJzgnLCAnLW1hJywgJzIwMCcsICctaW1hZScsICc8aW5maWxlLm1hZT4nLCAnLW9tYWUnLCAnPG91dGZpbGUubWFlPic=

>  <r_lp_tautomer_probability>  (141) 
1

>  <r_epik_Ionization_Penalty>  (141) 
2.11254

>  <r_epik_Ionization_Penalty_Charging>  (141) 
2.10587

>  <r_epik_Ionization_Penalty_Neutral>  (141) 
0.00667252

>  <r_epik_State_Penalty>  (141) 
2.22395

>  <r_epik_Charging_Adjusted_Penalty>  (141) 
4.32982

>  <i_epik_Tot_Q>  (141) 
2

>  <i_epik_Tot_abs_Q>  (141) 
2

>  <s_lp_Force_Field>  (141) 
OPLS3e

>  <r_lp_Energy>  (141) 
66.4997

>  <b_lp_Chiralities_Consistent>  (141) 
1

>  <s_lp_Variant>  (141) 
51:0-3

>  <s_i_glide_gridfile>  (141) 
pfpi4k_grid

>  <i_i_glide_lignum>  (141) 
26

>  <i_i_glide_rotatable_bonds>  (141) 
2

>  <r_i_docking_score>  (141) 
-3.54368

>  <r_i_glide_ligand_efficiency>  (141) 
-0.136295

>  <r_i_glide_ligand_efficiency_sa>  (141) 
-0.403775

>  <r_i_glide_ligand_efficiency_ln>  (141) 
-0.832222

>  <r_i_glide_gscore>  (141) 
-3.54368

>  <r_i_glide_lipo>  (141) 
-0.712702

>  <r_i_glide_hbond>  (141) 
0

>  <r_i_glide_metal>  (141) 
-0

>  <r_i_glide_rewards>  (141) 
-1.00618

>  <r_i_glide_evdw>  (141) 
-17.797

>  <r_i_glide_ecoul>  (141) 
-5.91351

>  <r_i_glide_erotb>  (141) 
0

>  <r_i_glide_esite>  (141) 
-0.0479241

>  <r_i_glide_emodel>  (141) 
-26.9143

>  <r_i_glide_energy>  (141) 
-23.7105

>  <r_i_glide_einternal>  (141) 
8.86924

>  <r_i_glide_intrahb_reward>  (141) 
-0

>  <i_i_glide_confnum>  (141) 
1

>  <i_i_glide_posenum>  (141) 
24

>  <r_i_glide_eff_state_penalty>  (141) 
0

>  <ligand_id>  (141) 
51

>  <original_smiles>  (141) 
COC12Cc3ccncc3C1Oc1c(O)ccc3c1C21CCN(C)C1C3

>  <smiles>  (141) 
[H]Oc1c([H])c([H])c2c3c1OC1([H])c4c(c([H])c([H])[n+]([H])c4[H])C([H])([H])C1(OC([H])([H])[H])C31C([H])([H])C([H])([H])[N+]([H])(C([H])([H])[H])C1([H])C2([H])[H]

$$$$
51:2:2
     RDKit          3D

 50 55  0  0  1  0  0  0  0  0999 V2000
    1.4289   -4.5569   -1.0266 C   0  0  0  0  0  0  0  0  0  0  0  0
    1.7923   -5.3872    0.0768 O   0  0  0  0  0  0  0  0  0  0  0  0
    2.8822   -4.9995    0.9213 C   0  0  1  0  0  0  0  0  0  0  0  0
    4.2254   -5.1258    0.1305 C   0  0  0  0  0  0  0  0  0  0  0  0
    4.5895   -3.7154   -0.2165 C   0  0  0  0  0  0  0  0  0  0  0  0
    5.6039   -3.2826   -1.0928 C   0  0  0  0  0  0  0  0  0  0  0  0
    5.7606   -1.8939   -1.2562 C   0  0  0  0  0  0  0  0  0  0  0  0
    4.9626   -1.0214   -0.5836 N   0  0  0  0  0  0  0  0  0  0  0  0
    3.9825   -1.4199    0.2670 C   0  0  0  0  0  0  0  0  0  0  0  0
    3.8030   -2.8000    0.4506 C   0  0  0  0  0  0  0  0  0  0  0  0
    2.8036   -3.4666    1.3525 C   0  0  2  0  0  0  0  0  0  0  0  0
    3.1000   -3.1609    2.7171 O   0  0  0  0  0  0  0  0  0  0  0  0
    3.8915   -4.0604    3.3998 C   0  0  0  0  0  0  0  0  0  0  0  0
    4.8235   -3.6954    4.3991 C   0  0  0  0  0  0  0  0  0  0  0  0
    4.9956   -2.3810    4.6897 O   0  0  0  0  0  0  0  0  0  0  0  0
    5.5800   -4.6744    5.0951 C   0  0  0  0  0  0  0  0  0  0  0  0
    5.4406   -6.0542    4.8120 C   0  0  0  0  0  0  0  0  0  0  0  0
    4.5200   -6.4306    3.8173 C   0  0  0  0  0  0  0  0  0  0  0  0
    3.7906   -5.4274    3.1837 C   0  0  0  0  0  0  0  0  0  0  0  0
    2.8204   -5.9365    2.1599 C   0  0  1  0  0  0  0  0  0  0  0  0
    1.3878   -6.0778    2.7462 C   0  0  0  0  0  0  0  0  0  0  0  0
    0.8194   -7.3738    2.1415 C   0  0  0  0  0  0  0  0  0  0  0  0
    1.9738   -8.2177    1.7624 N   0  0  2  0  0  0  0  0  0  0  0  0
    1.9344   -9.6035    2.3016 C   0  0  0  0  0  0  0  0  0  0  0  0
    3.2164   -7.4157    1.9934 C   0  0  2  0  0  0  0  0  0  0  0  0
    4.0315   -7.7553    3.2677 C   0  0  0  0  0  0  0  0  0  0  0  0
    0.6095   -5.0485   -1.5413 H   0  0  0  0  0  0  0  0  0  0  0  0
    2.2316   -4.3283   -1.7140 H   0  0  0  0  0  0  0  0  0  0  0  0
    1.1086   -3.5632   -0.7544 H   0  0  0  0  0  0  0  0  0  0  0  0
    5.0395   -5.5128    0.7518 H   0  0  0  0  0  0  0  0  0  0  0  0
    4.1570   -5.7916   -0.7251 H   0  0  0  0  0  0  0  0  0  0  0  0
    6.2326   -3.9800   -1.6286 H   0  0  0  0  0  0  0  0  0  0  0  0
    6.5020   -1.4759   -1.9214 H   0  0  0  0  0  0  0  0  0  0  0  0
    3.3933   -0.6514    0.7472 H   0  0  0  0  0  0  0  0  0  0  0  0
    1.8360   -3.0273    1.1629 H   0  0  0  0  0  0  0  0  0  0  0  0
    5.6022   -2.2151    5.3916 H   0  0  0  0  0  0  0  0  0  0  0  0
    6.2781   -4.3720    5.8550 H   0  0  0  0  0  0  0  0  0  0  0  0
    6.0068   -6.8047    5.3462 H   0  0  0  0  0  0  0  0  0  0  0  0
    1.4633   -6.2208    3.8331 H   0  0  0  0  0  0  0  0  0  0  0  0
    0.7611   -5.1994    2.5700 H   0  0  0  0  0  0  0  0  0  0  0  0
    0.1477   -7.8710    2.8423 H   0  0  0  0  0  0  0  0  0  0  0  0
    0.2417   -7.1583    1.2388 H   0  0  0  0  0  0  0  0  0  0  0  0
    1.8501   -9.6121    3.3892 H   0  0  0  0  0  0  0  0  0  0  0  0
    2.8221  -10.1597    1.9980 H   0  0  0  0  0  0  0  0  0  0  0  0
    1.0596  -10.1190    1.9005 H   0  0  0  0  0  0  0  0  0  0  0  0
    3.8748   -7.5509    1.1372 H   0  0  0  0  0  0  0  0  0  0  0  0
    4.8671   -8.4122    3.0374 H   0  0  0  0  0  0  0  0  0  0  0  0
    3.4267   -8.2198    4.0548 H   0  0  0  0  0  0  0  0  0  0  0  0
    1.8801   -8.3227    0.7575 H   0  0  0  0  0  0  0  0  0  0  0  0
    5.0930   -0.0131   -0.7190 H   0  0  0  0  0  0  0  0  0  0  0  0
  1  2  1  0
  1 27  1  0
  1 28  1  0
  1 29  1  0
  3  2  1  6
  3 11  1  0
  3 20  1  0
  3  4  1  0
  4  5  1  0
  4 30  1  0
  4 31  1  0
  5 10  2  0
  5  6  1  0
  6  7  2  0
  6 32  1  0
  7  8  1  0
  7 33  1  0
  8  9  2  0
  8 50  1  0
  9 10  1  0
  9 34  1  0
 10 11  1  0
 11 12  1  0
 11 35  1  6
 12 13  1  0
 13 19  2  0
 13 14  1  0
 14 15  1  0
 14 16  2  0
 15 36  1  0
 16 17  1  0
 16 37  1  0
 17 18  2  0
 17 38  1  0
 18 26  1  0
 18 19  1  0
 19 20  1  0
 20 25  1  0
 20 21  1  1
 21 22  1  0
 21 39  1  0
 21 40  1  0
 22 23  1  0
 22 41  1  0
 22 42  1  0
 23 24  1  0
 23 25  1  0
 23 49  1  6
 24 43  1  0
 24 44  1  0
 24 45  1  0
 25 26  1  0
 25 46  1  6
 26 47  1  0
 26 48  1  0
M  CHG  2   8   1  23   1
M  END
>  <i_m_ct_stereo_status>  (142) 
1

>  <s_m_source_file>  (142) 
/var/tmp/pbs.5076255.sched01/tmpjtt61wjg/4457_394l_.sdf

>  <i_m_source_file_index>  (142) 
26

>  <i_lp_mmshare_version>  (142) 
48012

>  <i_f3d_flags>  (142) 
0

>  <s_epik_input>  (142) 
W2NIXTFuW2NIXVtjSF1jKFtDSDJdMiljMVtDQEBIXShbQ0BAXTIoW0NAQF0zNDUpT1tDSDNdKU9jNmMzYyhbY0hdW2NIXWM2W09IXSlbQ0gyXVtDQEhdNU4oW0NIM10pW0NIMl1bQ0gyXTQ=

>  <s_epik_cmdline>  (142) 
J2VwaWtfcHl0aG9uJywgJy1waHQnLCAnMi4wJywgJy1waCcsICc3LjAnLCAnLXRuJywgJzgnLCAnLW1hJywgJzIwMCcsICctaW1hZScsICc8aW5maWxlLm1hZT4nLCAnLW9tYWUnLCAnPG91dGZpbGUubWFlPic=

>  <r_lp_tautomer_probability>  (142) 
1

>  <r_epik_Ionization_Penalty>  (142) 
2.11254

>  <r_epik_Ionization_Penalty_Charging>  (142) 
2.10587

>  <r_epik_Ionization_Penalty_Neutral>  (142) 
0.00667252

>  <r_epik_State_Penalty>  (142) 
2.22395

>  <r_epik_Charging_Adjusted_Penalty>  (142) 
4.32982

>  <i_epik_Tot_Q>  (142) 
2

>  <i_epik_Tot_abs_Q>  (142) 
2

>  <s_lp_Force_Field>  (142) 
OPLS3e

>  <r_lp_Energy>  (142) 
66.4997

>  <b_lp_Chiralities_Consistent>  (142) 
1

>  <s_lp_Variant>  (142) 
51:0-3

>  <s_i_glide_gridfile>  (142) 
pfpi4k_grid

>  <i_i_glide_lignum>  (142) 
26

>  <i_i_glide_rotatable_bonds>  (142) 
2

>  <r_i_docking_score>  (142) 
-3.00899

>  <r_i_glide_ligand_efficiency>  (142) 
-0.115731

>  <r_i_glide_ligand_efficiency_sa>  (142) 
-0.342851

>  <r_i_glide_ligand_efficiency_ln>  (142) 
-0.706652

>  <r_i_glide_gscore>  (142) 
-3.00899

>  <r_i_glide_lipo>  (142) 
-0.240497

>  <r_i_glide_hbond>  (142) 
-0.0827319

>  <r_i_glide_metal>  (142) 
-0

>  <r_i_glide_rewards>  (142) 
-1.00618

>  <r_i_glide_evdw>  (142) 
-16.8438

>  <r_i_glide_ecoul>  (142) 
-5.19023

>  <r_i_glide_erotb>  (142) 
0

>  <r_i_glide_esite>  (142) 
-0.05886

>  <r_i_glide_emodel>  (142) 
-28.1927

>  <r_i_glide_energy>  (142) 
-22.034

>  <r_i_glide_einternal>  (142) 
0.307009

>  <r_i_glide_intrahb_reward>  (142) 
-0

>  <i_i_glide_confnum>  (142) 
1

>  <i_i_glide_posenum>  (142) 
3

>  <r_i_glide_eff_state_penalty>  (142) 
0

>  <ligand_id>  (142) 
51

>  <original_smiles>  (142) 
COC12Cc3ccncc3C1Oc1c(O)ccc3c1C21CCN(C)C1C3

>  <smiles>  (142) 
[H]Oc1c([H])c([H])c2c3c1OC1([H])c4c(c([H])c([H])[n+]([H])c4[H])C([H])([H])C1(OC([H])([H])[H])C31C([H])([H])C([H])([H])[N+]([H])(C([H])([H])[H])C1([H])C2([H])[H]

$$$$
52:0:0
     RDKit          3D

 35 37  0  0  1  0  0  0  0  0999 V2000
    7.5746   -4.4751    0.1603 C   0  0  0  0  0  0  0  0  0  0  0  0
    6.0772   -4.7791    0.2402 C   0  0  0  0  0  0  0  0  0  0  0  0
    5.2236   -3.5036    0.3860 C   0  0  0  0  0  0  0  0  0  0  0  0
    3.7063   -3.7754    0.5711 C   0  0  2  0  0  0  0  0  0  0  0  0
    2.9065   -2.4697    0.7373 C   0  0  0  0  0  0  0  0  0  0  0  0
    3.3686   -4.7522    1.6450 N   0  0  0  0  0  0  0  0  0  0  0  0
    4.0523   -4.6411    2.8803 C   0  0  0  0  0  0  0  0  0  0  0  0
    3.8805   -5.4375    3.8899 N   0  0  0  0  0  0  0  0  0  0  0  0
    2.9488   -6.4741    3.7697 C   0  0  0  0  0  0  0  0  0  0  0  0
    2.7608   -7.3482    4.8655 C   0  0  0  0  0  0  0  0  0  0  0  0
    1.7819   -8.3470    4.7499 C   0  0  0  0  0  0  0  0  0  0  0  0
    1.0336   -8.5112    3.6003 C   0  0  0  0  0  0  0  0  0  0  0  0
    1.2150   -7.6845    2.4872 C   0  0  0  0  0  0  0  0  0  0  0  0
    2.1768   -6.6478    2.5865 C   0  0  0  0  0  0  0  0  0  0  0  0
    2.3981   -5.6921    1.4539 C   0  0  0  0  0  0  0  0  0  0  0  0
    1.7070   -5.7858    0.4371 O   0  0  0  0  0  0  0  0  0  0  0  0
    0.1494   -9.5259    3.7703 O   0  0  0  0  0  0  0  0  0  0  0  0
    0.2874   -9.9194    5.1118 C   0  0  0  0  0  0  0  0  0  0  0  0
    1.3851   -9.2560    5.6783 O   0  0  0  0  0  0  0  0  0  0  0  0
    8.1470   -5.3995    0.0758 H   0  0  0  0  0  0  0  0  0  0  0  0
    7.9154   -3.9568    1.0580 H   0  0  0  0  0  0  0  0  0  0  0  0
    7.8053   -3.8500   -0.7026 H   0  0  0  0  0  0  0  0  0  0  0  0
    5.7481   -5.3327   -0.6391 H   0  0  0  0  0  0  0  0  0  0  0  0
    5.9381   -5.4587    1.0806 H   0  0  0  0  0  0  0  0  0  0  0  0
    5.6110   -2.8799    1.1937 H   0  0  0  0  0  0  0  0  0  0  0  0
    5.3599   -2.8954   -0.5091 H   0  0  0  0  0  0  0  0  0  0  0  0
    3.4028   -4.1994   -0.3892 H   0  0  0  0  0  0  0  0  0  0  0  0
    3.1199   -1.7677   -0.0694 H   0  0  0  0  0  0  0  0  0  0  0  0
    3.1209   -1.9688    1.6805 H   0  0  0  0  0  0  0  0  0  0  0  0
    1.8361   -2.6587    0.7095 H   0  0  0  0  0  0  0  0  0  0  0  0
    4.7744   -3.8247    2.9301 H   0  0  0  0  0  0  0  0  0  0  0  0
    3.3226   -7.2379    5.7812 H   0  0  0  0  0  0  0  0  0  0  0  0
    0.6150   -7.8174    1.6003 H   0  0  0  0  0  0  0  0  0  0  0  0
   -0.5956   -9.5984    5.6564 H   0  0  0  0  0  0  0  0  0  0  0  0
    0.3970  -11.0039    5.2043 H   0  0  0  0  0  0  0  0  0  0  0  0
  1  2  1  0
  1 20  1  0
  1 21  1  0
  1 22  1  0
  2  3  1  0
  2 23  1  0
  2 24  1  0
  3  4  1  0
  3 25  1  0
  3 26  1  0
  4  5  1  0
  4  6  1  0
  4 27  1  6
  5 28  1  0
  5 29  1  0
  5 30  1  0
  6 15  1  0
  6  7  1  0
  7  8  2  0
  7 31  1  0
  8  9  1  0
  9 14  2  0
  9 10  1  0
 10 11  2  0
 10 32  1  0
 11 19  1  0
 11 12  1  0
 12 13  2  0
 12 17  1  0
 13 14  1  0
 13 33  1  0
 14 15  1  0
 15 16  2  0
 17 18  1  0
 18 19  1  0
 18 34  1  0
 18 35  1  0
M  END
>  <i_m_ct_stereo_status>  (143) 
1

>  <s_m_source_file>  (143) 
/var/tmp/pbs.5076255.sched01/tmpjtt61wjg/4457_394l_.sdf

>  <i_m_source_file_index>  (143) 
27

>  <i_lp_mmshare_version>  (143) 
48012

>  <i_f3d_flags>  (143) 
0

>  <s_epik_input>  (143) 
W0NIM11bQ0gyXVtDSDJdW0NASF0oW0NIM10pbihbY0hdbjEpYyg9TyljKGMxMilbY0hdYzNjKFtjSF0yKU9bQ0gyXU8z

>  <s_epik_cmdline>  (143) 
J2VwaWtfcHl0aG9uJywgJy1waHQnLCAnMi4wJywgJy1waCcsICc3LjAnLCAnLXRuJywgJzgnLCAnLW1hJywgJzIwMCcsICctaW1hZScsICc8aW5maWxlLm1hZT4nLCAnLW9tYWUnLCAnPG91dGZpbGUubWFlPic=

>  <r_lp_tautomer_probability>  (143) 
1

>  <r_epik_Ionization_Penalty>  (143) 
7.70718e-06

>  <r_epik_Ionization_Penalty_Charging>  (143) 
1.47008e-09

>  <r_epik_Ionization_Penalty_Neutral>  (143) 
7.7057e-06

>  <r_epik_State_Penalty>  (143) 
-0

>  <r_epik_Charging_Adjusted_Penalty>  (143) 
1.47008e-09

>  <i_epik_Tot_Q>  (143) 
0

>  <i_epik_Tot_abs_Q>  (143) 
0

>  <s_epik_Chemistry_Notes>  (143) 
This compound contains an acetal/aminal-like group ( X-CH(R)-Y where X, Y are N, S, or O) that may be acid/base labile, releasing an aldehyde.

>  <s_lp_Force_Field>  (143) 
OPLS3e

>  <r_lp_Energy>  (143) 
32.7167

>  <b_lp_Chiralities_Consistent>  (143) 
1

>  <s_lp_Variant>  (143) 
52:0-1

>  <s_i_glide_gridfile>  (143) 
pfpi4k_grid

>  <i_i_glide_lignum>  (143) 
27

>  <i_i_glide_rotatable_bonds>  (143) 
3

>  <r_i_docking_score>  (143) 
-3.0768

>  <r_i_glide_ligand_efficiency>  (143) 
-0.161937

>  <r_i_glide_ligand_efficiency_sa>  (143) 
-0.432113

>  <r_i_glide_ligand_efficiency_ln>  (143) 
-0.780035

>  <r_i_glide_gscore>  (143) 
-3.0768

>  <r_i_glide_lipo>  (143) 
-0.265447

>  <r_i_glide_hbond>  (143) 
-0.103908

>  <r_i_glide_metal>  (143) 
-0

>  <r_i_glide_rewards>  (143) 
-1.64071

>  <r_i_glide_evdw>  (143) 
-16.3687

>  <r_i_glide_ecoul>  (143) 
-2.84334

>  <r_i_glide_erotb>  (143) 
0.261253

>  <r_i_glide_esite>  (143) 
-0.0830528

>  <r_i_glide_emodel>  (143) 
-22.0865

>  <r_i_glide_energy>  (143) 
-19.212

>  <r_i_glide_einternal>  (143) 
1.52949

>  <r_i_glide_intrahb_reward>  (143) 
-0

>  <i_i_glide_confnum>  (143) 
3

>  <i_i_glide_posenum>  (143) 
2

>  <r_i_glide_eff_state_penalty>  (143) 
0

>  <ligand_id>  (143) 
52

>  <original_smiles>  (143) 
CCCC(C)n1cnc2cc3c(cc2c1=O)OCO3

>  <smiles>  (143) 
[H]c1c2c(c([H])c3c(=O)n(C([H])(C([H])([H])[H])C([H])([H])C([H])([H])C([H])([H])[H])c([H])nc13)OC([H])([H])O2

$$$$
52:0:1
     RDKit          3D

 35 37  0  0  1  0  0  0  0  0999 V2000
   -1.6456   -9.0271    2.3079 C   0  0  0  0  0  0  0  0  0  0  0  0
   -0.6092   -8.7182    3.4244 C   0  0  0  0  0  0  0  0  0  0  0  0
   -0.1837   -7.2183    3.5760 C   0  0  0  0  0  0  0  0  0  0  0  0
    0.7159   -6.5658    2.4572 C   0  0  2  0  0  0  0  0  0  0  0  0
    0.1568   -6.5853    1.0126 C   0  0  0  0  0  0  0  0  0  0  0  0
    2.1205   -7.0268    2.5210 N   0  0  0  0  0  0  0  0  0  0  0  0
    2.4057   -8.3289    2.0234 C   0  0  0  0  0  0  0  0  0  0  0  0
    3.5928   -8.8438    1.9947 N   0  0  0  0  0  0  0  0  0  0  0  0
    4.6682   -8.1104    2.4825 C   0  0  0  0  0  0  0  0  0  0  0  0
    5.9539   -8.6834    2.4638 C   0  0  0  0  0  0  0  0  0  0  0  0
    7.0201   -7.9172    2.9291 C   0  0  0  0  0  0  0  0  0  0  0  0
    6.8448   -6.6276    3.4203 C   0  0  0  0  0  0  0  0  0  0  0  0
    5.5805   -6.0360    3.4772 C   0  0  0  0  0  0  0  0  0  0  0  0
    4.4930   -6.7889    2.9984 C   0  0  0  0  0  0  0  0  0  0  0  0
    3.1094   -6.2146    3.0129 C   0  0  0  0  0  0  0  0  0  0  0  0
    2.8994   -5.0877    3.4401 O   0  0  0  0  0  0  0  0  0  0  0  0
    8.0347   -6.1181    3.7664 O   0  0  0  0  0  0  0  0  0  0  0  0
    8.9971   -7.0587    3.3720 C   0  0  0  0  0  0  0  0  0  0  0  0
    8.3258   -8.2196    2.9669 O   0  0  0  0  0  0  0  0  0  0  0  0
   -1.8804  -10.0816    2.3559 H   0  0  0  0  0  0  0  0  0  0  0  0
   -1.3267   -8.8296    1.3004 H   0  0  0  0  0  0  0  0  0  0  0  0
   -2.5487   -8.4586    2.5024 H   0  0  0  0  0  0  0  0  0  0  0  0
   -1.0083   -9.0246    4.4055 H   0  0  0  0  0  0  0  0  0  0  0  0
    0.2786   -9.3499    3.3634 H   0  0  0  0  0  0  0  0  0  0  0  0
   -1.0967   -6.6260    3.7197 H   0  0  0  0  0  0  0  0  0  0  0  0
    0.3409   -7.0838    4.5425 H   0  0  0  0  0  0  0  0  0  0  0  0
    0.6610   -5.4964    2.7225 H   0  0  0  0  0  0  0  0  0  0  0  0
   -0.9112   -6.3910    1.0409 H   0  0  0  0  0  0  0  0  0  0  0  0
    0.2892   -7.5464    0.5323 H   0  0  0  0  0  0  0  0  0  0  0  0
    0.6459   -5.8523    0.3730 H   0  0  0  0  0  0  0  0  0  0  0  0
    1.5475   -8.8804    1.6334 H   0  0  0  0  0  0  0  0  0  0  0  0
    6.1087   -9.6780    2.0725 H   0  0  0  0  0  0  0  0  0  0  0  0
    5.4514   -5.0316    3.8493 H   0  0  0  0  0  0  0  0  0  0  0  0
    9.5014   -6.6438    2.4979 H   0  0  0  0  0  0  0  0  0  0  0  0
    9.7194   -7.2748    4.1660 H   0  0  0  0  0  0  0  0  0  0  0  0
  1  2  1  0
  1 20  1  0
  1 21  1  0
  1 22  1  0
  2  3  1  0
  2 23  1  0
  2 24  1  0
  3  4  1  0
  3 25  1  0
  3 26  1  0
  4  5  1  0
  4  6  1  0
  4 27  1  1
  5 28  1  0
  5 29  1  0
  5 30  1  0
  6 15  1  0
  6  7  1  0
  7  8  2  0
  7 31  1  0
  8  9  1  0
  9 14  2  0
  9 10  1  0
 10 11  2  0
 10 32  1  0
 11 19  1  0
 11 12  1  0
 12 13  2  0
 12 17  1  0
 13 14  1  0
 13 33  1  0
 14 15  1  0
 15 16  2  0
 17 18  1  0
 18 19  1  0
 18 34  1  0
 18 35  1  0
M  END
>  <i_m_ct_stereo_status>  (144) 
1

>  <s_m_source_file>  (144) 
/var/tmp/pbs.5076255.sched01/tmpjtt61wjg/4457_394l_.sdf

>  <i_m_source_file_index>  (144) 
27

>  <i_lp_mmshare_version>  (144) 
48012

>  <i_f3d_flags>  (144) 
0

>  <s_epik_input>  (144) 
W0NIM11bQ0gyXVtDSDJdW0NASF0oW0NIM10pbihbY0hdbjEpYyg9TyljKGMxMilbY0hdYzNjKFtjSF0yKU9bQ0gyXU8z

>  <s_epik_cmdline>  (144) 
J2VwaWtfcHl0aG9uJywgJy1waHQnLCAnMi4wJywgJy1waCcsICc3LjAnLCAnLXRuJywgJzgnLCAnLW1hJywgJzIwMCcsICctaW1hZScsICc8aW5maWxlLm1hZT4nLCAnLW9tYWUnLCAnPG91dGZpbGUubWFlPic=

>  <r_lp_tautomer_probability>  (144) 
1

>  <r_epik_Ionization_Penalty>  (144) 
7.70718e-06

>  <r_epik_Ionization_Penalty_Charging>  (144) 
1.47008e-09

>  <r_epik_Ionization_Penalty_Neutral>  (144) 
7.7057e-06

>  <r_epik_State_Penalty>  (144) 
-0

>  <r_epik_Charging_Adjusted_Penalty>  (144) 
1.47008e-09

>  <i_epik_Tot_Q>  (144) 
0

>  <i_epik_Tot_abs_Q>  (144) 
0

>  <s_epik_Chemistry_Notes>  (144) 
This compound contains an acetal/aminal-like group ( X-CH(R)-Y where X, Y are N, S, or O) that may be acid/base labile, releasing an aldehyde.

>  <s_lp_Force_Field>  (144) 
OPLS3e

>  <r_lp_Energy>  (144) 
32.7167

>  <b_lp_Chiralities_Consistent>  (144) 
1

>  <s_lp_Variant>  (144) 
52:0-1

>  <s_i_glide_gridfile>  (144) 
pfpi4k_grid

>  <i_i_glide_lignum>  (144) 
27

>  <i_i_glide_rotatable_bonds>  (144) 
3

>  <r_i_docking_score>  (144) 
-2.77213

>  <r_i_glide_ligand_efficiency>  (144) 
-0.145902

>  <r_i_glide_ligand_efficiency_sa>  (144) 
-0.389325

>  <r_i_glide_ligand_efficiency_ln>  (144) 
-0.702795

>  <r_i_glide_gscore>  (144) 
-2.77213

>  <r_i_glide_lipo>  (144) 
-0.291752

>  <r_i_glide_hbond>  (144) 
0

>  <r_i_glide_metal>  (144) 
-0

>  <r_i_glide_rewards>  (144) 
-1.6344

>  <r_i_glide_evdw>  (144) 
-19.1102

>  <r_i_glide_ecoul>  (144) 
-0.497425

>  <r_i_glide_erotb>  (144) 
0.261253

>  <r_i_glide_esite>  (144) 
-0.0771157

>  <r_i_glide_emodel>  (144) 
-21.0548

>  <r_i_glide_energy>  (144) 
-19.6076

>  <r_i_glide_einternal>  (144) 
3.22925

>  <r_i_glide_intrahb_reward>  (144) 
-0

>  <i_i_glide_confnum>  (144) 
3

>  <i_i_glide_posenum>  (144) 
13

>  <r_i_glide_eff_state_penalty>  (144) 
0

>  <ligand_id>  (144) 
52

>  <original_smiles>  (144) 
CCCC(C)n1cnc2cc3c(cc2c1=O)OCO3

>  <smiles>  (144) 
[H]c1c2c(c([H])c3c(=O)n(C([H])(C([H])([H])[H])C([H])([H])C([H])([H])C([H])([H])[H])c([H])nc13)OC([H])([H])O2

$$$$
52:0:2
     RDKit          3D

 35 37  0  0  1  0  0  0  0  0999 V2000
   -1.5875   -7.9654    3.5213 C   0  0  0  0  0  0  0  0  0  0  0  0
   -0.2863   -7.2114    3.2440 C   0  0  0  0  0  0  0  0  0  0  0  0
   -0.0904   -6.9188    1.7428 C   0  0  0  0  0  0  0  0  0  0  0  0
    1.2923   -6.2661    1.4425 C   0  0  2  0  0  0  0  0  0  0  0  0
    1.4100   -5.8152   -0.0293 C   0  0  0  0  0  0  0  0  0  0  0  0
    2.4832   -7.0726    1.8399 N   0  0  0  0  0  0  0  0  0  0  0  0
    2.4414   -8.4825    1.6778 C   0  0  0  0  0  0  0  0  0  0  0  0
    3.4125   -9.2859    1.9920 N   0  0  0  0  0  0  0  0  0  0  0  0
    4.5845   -8.7477    2.5186 C   0  0  0  0  0  0  0  0  0  0  0  0
    5.6258   -9.6311    2.8746 C   0  0  0  0  0  0  0  0  0  0  0  0
    6.8034   -9.0797    3.3872 C   0  0  0  0  0  0  0  0  0  0  0  0
    6.9545   -7.7155    3.5649 C   0  0  0  0  0  0  0  0  0  0  0  0
    5.9342   -6.8110    3.2363 C   0  0  0  0  0  0  0  0  0  0  0  0
    4.7434   -7.3436    2.6998 C   0  0  0  0  0  0  0  0  0  0  0  0
    3.6020   -6.4517    2.3091 C   0  0  0  0  0  0  0  0  0  0  0  0
    3.6991   -5.2345    2.4367 O   0  0  0  0  0  0  0  0  0  0  0  0
    8.1953   -7.4605    4.0367 O   0  0  0  0  0  0  0  0  0  0  0  0
    8.8642   -8.6942    4.0510 C   0  0  0  0  0  0  0  0  0  0  0  0
    7.9475   -9.7082    3.7385 O   0  0  0  0  0  0  0  0  0  0  0  0
   -1.7003   -8.1571    4.5878 H   0  0  0  0  0  0  0  0  0  0  0  0
   -1.5947   -8.9325    3.0166 H   0  0  0  0  0  0  0  0  0  0  0  0
   -2.4547   -7.4037    3.1801 H   0  0  0  0  0  0  0  0  0  0  0  0
   -0.2606   -6.2760    3.8060 H   0  0  0  0  0  0  0  0  0  0  0  0
    0.5372   -7.8085    3.6394 H   0  0  0  0  0  0  0  0  0  0  0  0
   -0.2634   -7.8207    1.1498 H   0  0  0  0  0  0  0  0  0  0  0  0
   -0.8841   -6.2534    1.3981 H   0  0  0  0  0  0  0  0  0  0  0  0
    1.2871   -5.3458    2.0323 H   0  0  0  0  0  0  0  0  0  0  0  0
    0.5699   -5.2630   -0.4237 H   0  0  0  0  0  0  0  0  0  0  0  0
    1.4120   -6.6551   -0.6913 H   0  0  0  0  0  0  0  0  0  0  0  0
    2.3110   -5.2260   -0.2235 H   0  0  0  0  0  0  0  0  0  0  0  0
    1.5240   -8.8851    1.2526 H   0  0  0  0  0  0  0  0  0  0  0  0
    5.5163  -10.6971    2.7282 H   0  0  0  0  0  0  0  0  0  0  0  0
    6.0740   -5.7468    3.3714 H   0  0  0  0  0  0  0  0  0  0  0  0
    9.6018   -8.6662    3.2520 H   0  0  0  0  0  0  0  0  0  0  0  0
    9.3592   -8.8844    5.0077 H   0  0  0  0  0  0  0  0  0  0  0  0
  1  2  1  0
  1 20  1  0
  1 21  1  0
  1 22  1  0
  2  3  1  0
  2 23  1  0
  2 24  1  0
  3  4  1  0
  3 25  1  0
  3 26  1  0
  4  5  1  0
  4  6  1  0
  4 27  1  1
  5 28  1  0
  5 29  1  0
  5 30  1  0
  6 15  1  0
  6  7  1  0
  7  8  2  0
  7 31  1  0
  8  9  1  0
  9 14  2  0
  9 10  1  0
 10 11  2  0
 10 32  1  0
 11 19  1  0
 11 12  1  0
 12 13  2  0
 12 17  1  0
 13 14  1  0
 13 33  1  0
 14 15  1  0
 15 16  2  0
 17 18  1  0
 18 19  1  0
 18 34  1  0
 18 35  1  0
M  END
>  <i_m_ct_stereo_status>  (145) 
1

>  <s_m_source_file>  (145) 
/var/tmp/pbs.5076255.sched01/tmpjtt61wjg/4457_394l_.sdf

>  <i_m_source_file_index>  (145) 
27

>  <i_lp_mmshare_version>  (145) 
48012

>  <i_f3d_flags>  (145) 
0

>  <s_epik_input>  (145) 
W0NIM11bQ0gyXVtDSDJdW0NASF0oW0NIM10pbihbY0hdbjEpYyg9TyljKGMxMilbY0hdYzNjKFtjSF0yKU9bQ0gyXU8z

>  <s_epik_cmdline>  (145) 
J2VwaWtfcHl0aG9uJywgJy1waHQnLCAnMi4wJywgJy1waCcsICc3LjAnLCAnLXRuJywgJzgnLCAnLW1hJywgJzIwMCcsICctaW1hZScsICc8aW5maWxlLm1hZT4nLCAnLW9tYWUnLCAnPG91dGZpbGUubWFlPic=

>  <r_lp_tautomer_probability>  (145) 
1

>  <r_epik_Ionization_Penalty>  (145) 
7.70718e-06

>  <r_epik_Ionization_Penalty_Charging>  (145) 
1.47008e-09

>  <r_epik_Ionization_Penalty_Neutral>  (145) 
7.7057e-06

>  <r_epik_State_Penalty>  (145) 
-0

>  <r_epik_Charging_Adjusted_Penalty>  (145) 
1.47008e-09

>  <i_epik_Tot_Q>  (145) 
0

>  <i_epik_Tot_abs_Q>  (145) 
0

>  <s_epik_Chemistry_Notes>  (145) 
This compound contains an acetal/aminal-like group ( X-CH(R)-Y where X, Y are N, S, or O) that may be acid/base labile, releasing an aldehyde.

>  <s_lp_Force_Field>  (145) 
OPLS3e

>  <r_lp_Energy>  (145) 
32.7167

>  <b_lp_Chiralities_Consistent>  (145) 
1

>  <s_lp_Variant>  (145) 
52:0-1

>  <s_i_glide_gridfile>  (145) 
pfpi4k_grid

>  <i_i_glide_lignum>  (145) 
27

>  <i_i_glide_rotatable_bonds>  (145) 
3

>  <r_i_docking_score>  (145) 
-2.22668

>  <r_i_glide_ligand_efficiency>  (145) 
-0.117194

>  <r_i_glide_ligand_efficiency_sa>  (145) 
-0.31272

>  <r_i_glide_ligand_efficiency_ln>  (145) 
-0.564512

>  <r_i_glide_gscore>  (145) 
-2.22668

>  <r_i_glide_lipo>  (145) 
-0.0432192

>  <r_i_glide_hbond>  (145) 
0

>  <r_i_glide_metal>  (145) 
-0

>  <r_i_glide_rewards>  (145) 
-1.6344

>  <r_i_glide_evdw>  (145) 
-16.2297

>  <r_i_glide_ecoul>  (145) 
0.2545

>  <r_i_glide_erotb>  (145) 
0.261253

>  <r_i_glide_esite>  (145) 
-0.0370135

>  <r_i_glide_emodel>  (145) 
-17.5428

>  <r_i_glide_energy>  (145) 
-15.9752

>  <r_i_glide_einternal>  (145) 
1.7567

>  <r_i_glide_intrahb_reward>  (145) 
-0

>  <i_i_glide_confnum>  (145) 
3

>  <i_i_glide_posenum>  (145) 
7

>  <r_i_glide_eff_state_penalty>  (145) 
0

>  <ligand_id>  (145) 
52

>  <original_smiles>  (145) 
CCCC(C)n1cnc2cc3c(cc2c1=O)OCO3

>  <smiles>  (145) 
[H]c1c2c(c([H])c3c(=O)n(C([H])(C([H])([H])[H])C([H])([H])C([H])([H])C([H])([H])[H])c([H])nc13)OC([H])([H])O2

$$$$
53:0:0
     RDKit          3D

 93 99  0  0  1  0  0  0  0  0999 V2000
   -1.3852   -6.8335    4.8250 C   0  0  0  0  0  0  0  0  0  0  0  0
   -0.1020   -7.3341    4.2444 C   0  0  2  0  0  0  0  0  0  0  0  0
    0.5405   -8.3714    5.2273 C   0  0  0  0  0  0  0  0  0  0  0  0
    1.9673   -8.9464    4.9888 C   0  0  2  0  0  0  0  0  0  0  0  0
    2.3298   -9.7411    6.2689 C   0  0  0  0  0  0  0  0  0  0  0  0
    2.9707   -7.7715    4.8728 C   0  0  1  0  0  0  0  0  0  0  0  0
    2.9065   -6.6832    5.9770 C   0  0  0  0  0  0  0  0  0  0  0  0
    3.1997   -6.9159    7.1468 O   0  0  0  0  0  0  0  0  0  0  0  0
    2.5493   -5.2569    5.5615 C   0  0  0  0  0  0  0  0  0  0  0  0
    1.2168   -5.0812    4.8260 C   0  0  1  0  0  0  0  0  0  0  0  0
    1.2397   -3.7996    4.2329 O   0  0  0  0  0  0  0  0  0  0  0  0
    0.7015   -6.1000    3.7587 C   0  0  1  0  0  0  0  0  0  0  0  0
    1.3248   -6.1477    2.3325 C   0  0  0  0  0  0  0  0  0  0  0  0
    2.7002   -6.7520    1.7951 C   0  0  1  0  0  0  0  0  0  0  0  0
    2.5744   -8.2971    1.5421 C   0  0  1  0  0  0  0  0  0  0  0  0
    3.7892   -9.0484    0.9668 C   0  0  0  0  0  0  0  0  0  0  0  0
    1.6304   -9.2017    2.3843 C   0  0  0  0  0  0  0  0  0  0  0  0
    1.9830   -9.8902    3.6940 C   0  0  0  0  0  0  0  0  0  0  0  0
    1.3861  -11.2914    3.7857 C   0  0  0  0  0  0  0  0  0  0  0  0
    2.8840  -11.1088    3.5977 C   0  0  0  0  0  0  0  0  0  0  0  0
    2.8533   -5.9297    0.4418 C   0  0  1  0  0  0  0  0  0  0  0  0
    1.6643   -5.5945   -0.2887 O   0  0  0  0  0  0  0  0  0  0  0  0
    3.6754   -4.6806    0.8163 C   0  0  2  0  0  0  0  0  0  0  0  0
    4.1362   -3.5082   -0.0842 C   0  0  1  0  0  0  0  0  0  0  0  0
    3.0927   -3.0773   -1.1342 C   0  0  0  0  0  0  0  0  0  0  0  0
    4.6111   -2.3466    0.8898 C   0  0  0  0  0  0  0  0  0  0  0  0
    5.7783   -1.5955    0.2015 C   0  0  0  0  0  0  0  0  0  0  0  0
    3.5018   -1.2788    1.0973 C   0  0  0  0  0  0  0  0  0  0  0  0
    5.0841   -2.8761    2.3240 C   0  0  1  0  0  0  0  0  0  0  0  0
    4.0451   -2.8315    3.2922 O   0  0  0  0  0  0  0  0  0  0  0  0
    5.7148   -4.3116    2.3287 C   0  0  1  0  0  0  0  0  0  0  0  0
    6.9402   -4.0932    1.6413 O   0  0  0  0  0  0  0  0  0  0  0  0
    6.1279   -4.9248    3.7308 C   0  0  0  0  0  0  0  0  0  0  0  0
    5.3492   -5.9494    4.3366 O   0  0  0  0  0  0  0  0  0  0  0  0
    4.9793   -6.9846    3.5054 C   0  0  1  0  0  0  0  0  0  0  0  0
    6.1084   -7.5801    2.8871 O   0  0  0  0  0  0  0  0  0  0  0  0
    4.3790   -8.1040    4.3924 C   0  0  1  0  0  0  0  0  0  0  0  0
    5.2369   -8.4580    5.4637 O   0  0  0  0  0  0  0  0  0  0  0  0
    4.0301   -6.2224    2.4852 C   0  0  1  0  0  0  0  0  0  0  0  0
    4.8701   -5.3372    1.5381 C   0  0  1  0  0  0  0  0  0  0  0  0
    5.7690   -6.1161    0.5169 C   0  0  0  0  0  0  0  0  0  0  0  0
   -1.1927   -6.2396    5.7369 H   0  0  0  0  0  0  0  0  0  0  0  0
   -1.9435   -7.7423    5.0824 H   0  0  0  0  0  0  0  0  0  0  0  0
   -2.0057   -6.2510    4.1385 H   0  0  0  0  0  0  0  0  0  0  0  0
   -0.5492   -7.8511    3.4091 H   0  0  0  0  0  0  0  0  0  0  0  0
    0.5005   -7.9415    6.2215 H   0  0  0  0  0  0  0  0  0  0  0  0
   -0.1379   -9.2187    5.2983 H   0  0  0  0  0  0  0  0  0  0  0  0
    3.3594  -10.0966    6.2496 H   0  0  0  0  0  0  0  0  0  0  0  0
    1.6730  -10.5903    6.4104 H   0  0  0  0  0  0  0  0  0  0  0  0
    2.2159   -9.1460    7.1695 H   0  0  0  0  0  0  0  0  0  0  0  0
    2.5980   -7.2586    4.0359 H   0  0  0  0  0  0  0  0  0  0  0  0
    2.5233   -4.6522    6.4667 H   0  0  0  0  0  0  0  0  0  0  0  0
    3.3585   -4.8465    4.9817 H   0  0  0  0  0  0  0  0  0  0  0  0
    0.4725   -5.0151    5.6134 H   0  0  0  0  0  0  0  0  0  0  0  0
    0.3649   -3.5657    3.9916 H   0  0  0  0  0  0  0  0  0  0  0  0
   -0.1387   -5.5053    3.4199 H   0  0  0  0  0  0  0  0  0  0  0  0
    0.5503   -6.6002    1.7168 H   0  0  0  0  0  0  0  0  0  0  0  0
    1.2884   -5.0970    2.0815 H   0  0  0  0  0  0  0  0  0  0  0  0
    1.8601   -8.2946    0.7229 H   0  0  0  0  0  0  0  0  0  0  0  0
    4.6299   -9.1481    1.6440 H   0  0  0  0  0  0  0  0  0  0  0  0
    4.1535   -8.6809    0.0185 H   0  0  0  0  0  0  0  0  0  0  0  0
    3.4675  -10.0666    0.7368 H   0  0  0  0  0  0  0  0  0  0  0  0
    0.6245   -8.8467    2.3254 H   0  0  0  0  0  0  0  0  0  0  0  0
    1.4724  -10.0503    1.6998 H   0  0  0  0  0  0  0  0  0  0  0  0
    1.0005  -11.6352    4.7349 H   0  0  0  0  0  0  0  0  0  0  0  0
    0.8336  -11.6974    2.9342 H   0  0  0  0  0  0  0  0  0  0  0  0
    3.3012  -11.3550    2.6192 H   0  0  0  0  0  0  0  0  0  0  0  0
    3.5343  -11.3633    4.4266 H   0  0  0  0  0  0  0  0  0  0  0  0
    3.4065   -6.5233   -0.2712 H   0  0  0  0  0  0  0  0  0  0  0  0
    1.9313   -5.4553   -1.1887 H   0  0  0  0  0  0  0  0  0  0  0  0
    3.0229   -4.1606    1.5075 H   0  0  0  0  0  0  0  0  0  0  0  0
    4.9857   -3.8084   -0.6879 H   0  0  0  0  0  0  0  0  0  0  0  0
    2.1409   -2.8622   -0.6622 H   0  0  0  0  0  0  0  0  0  0  0  0
    2.9294   -3.8515   -1.8815 H   0  0  0  0  0  0  0  0  0  0  0  0
    3.4118   -2.1838   -1.6696 H   0  0  0  0  0  0  0  0  0  0  0  0
    6.1946   -0.8383    0.8620 H   0  0  0  0  0  0  0  0  0  0  0  0
    5.4398   -1.0999   -0.7057 H   0  0  0  0  0  0  0  0  0  0  0  0
    6.5845   -2.2685   -0.0830 H   0  0  0  0  0  0  0  0  0  0  0  0
    3.8076   -0.5391    1.8347 H   0  0  0  0  0  0  0  0  0  0  0  0
    2.5640   -1.7198    1.4448 H   0  0  0  0  0  0  0  0  0  0  0  0
    3.2723   -0.7306    0.1826 H   0  0  0  0  0  0  0  0  0  0  0  0
    5.8277   -2.1894    2.7111 H   0  0  0  0  0  0  0  0  0  0  0  0
    3.3272   -3.3687    3.0133 H   0  0  0  0  0  0  0  0  0  0  0  0
    6.7299   -3.7219    0.7997 H   0  0  0  0  0  0  0  0  0  0  0  0
    7.1287   -5.3468    3.6625 H   0  0  0  0  0  0  0  0  0  0  0  0
    6.1637   -4.1210    4.4652 H   0  0  0  0  0  0  0  0  0  0  0  0
    6.4977   -6.9618    2.2949 H   0  0  0  0  0  0  0  0  0  0  0  0
    4.3430   -8.9885    3.7719 H   0  0  0  0  0  0  0  0  0  0  0  0
    5.3527   -7.6990    6.0049 H   0  0  0  0  0  0  0  0  0  0  0  0
    3.5532   -5.5003    3.1236 H   0  0  0  0  0  0  0  0  0  0  0  0
    6.7622   -6.3614    0.8827 H   0  0  0  0  0  0  0  0  0  0  0  0
    5.9563   -5.5477   -0.3815 H   0  0  0  0  0  0  0  0  0  0  0  0
    5.3552   -7.0603    0.2181 H   0  0  0  0  0  0  0  0  0  0  0  0
  1  2  1  0
  1 42  1  0
  1 43  1  0
  1 44  1  0
  2 12  1  0
  2  3  1  0
  2 45  1  6
  3  4  1  0
  3 46  1  0
  3 47  1  0
  4 18  1  0
  4  5  1  1
  4  6  1  0
  5 48  1  0
  5 49  1  0
  5 50  1  0
  6 37  1  0
  6  7  1  0
  6 51  1  6
  7  8  2  0
  7  9  1  0
  9 10  1  0
  9 52  1  0
  9 53  1  0
 10 11  1  0
 10 12  1  0
 10 54  1  1
 11 55  1  0
 12 13  1  0
 12 56  1  6
 14 13  1  1
 13 57  1  0
 13 58  1  0
 14 39  1  0
 14 15  1  0
 14 21  1  0
 15 16  1  0
 15 17  1  0
 15 59  1  6
 16 60  1  0
 16 61  1  0
 16 62  1  0
 17 18  1  0
 17 63  1  0
 17 64  1  0
 18 20  1  0
 18 19  1  0
 19 20  1  0
 19 65  1  0
 19 66  1  0
 20 67  1  0
 20 68  1  0
 21 22  1  0
 21 23  1  0
 21 69  1  6
 22 70  1  0
 23 40  1  0
 23 24  1  0
 23 71  1  1
 24 25  1  0
 24 26  1  0
 24 72  1  6
 25 73  1  0
 25 74  1  0
 25 75  1  0
 26 27  1  0
 26 28  1  0
 26 29  1  0
 27 76  1  0
 27 77  1  0
 27 78  1  0
 28 79  1  0
 28 80  1  0
 28 81  1  0
 29 30  1  0
 29 31  1  0
 29 82  1  1
 30 83  1  0
 31 40  1  0
 31 32  1  6
 31 33  1  0
 32 84  1  0
 33 34  1  0
 33 85  1  0
 33 86  1  0
 34 35  1  0
 35 36  1  6
 35 37  1  0
 35 39  1  0
 36 87  1  0
 37 38  1  0
 37 88  1  6
 38 89  1  0
 39 40  1  0
 39 90  1  1
 40 41  1  6
 41 91  1  0
 41 92  1  0
 41 93  1  0
M  END
>  <i_m_ct_stereo_status>  (146) 
1

>  <s_m_source_file>  (146) 
/var/tmp/pbs.5076255.sched01/tmpjtt61wjg/4457_394l_.sdf

>  <i_m_source_file_index>  (146) 
28

>  <i_lp_mmshare_version>  (146) 
48012

>  <i_f3d_flags>  (146) 
0

>  <s_epik_input>  (146) 
Tz1DMVtDSDJdW0NAQEhdKFtPSF0pW0NAQEhdKFtDSDJdMilbQ0BIXShbQ0gzXSlbQ0gyXVtDQEBdKFtDSDNdKShDMyhbQ0gyXVtDSDJdMylbQ0gyXVtDQEBIXTRbQ0gzXSlbQ0BASF0xW0NASF0oW09IXSlbQ0BAXShbT0hdKShbQ0BASF01W0NAXTI0NilPW0NIMl1bQ0BAXTcoW09IXSlbQ0BdNShbQ0gzXSlbQ0BIXShbQ0BASF02W09IXSlbQ0BASF0oW0NIM10pQyhbQ0gzXSkoW0NIM10pW0NASF03W09IXQ==

>  <s_epik_cmdline>  (146) 
J2VwaWtfcHl0aG9uJywgJy1waHQnLCAnMi4wJywgJy1waCcsICc3LjAnLCAnLXRuJywgJzgnLCAnLW1hJywgJzIwMCcsICctaW1hZScsICc8aW5maWxlLm1hZT4nLCAnLW9tYWUnLCAnPG91dGZpbGUubWFlPic=

>  <r_lp_tautomer_probability>  (146) 
1

>  <r_epik_Ionization_Penalty>  (146) 
9.7707e-07

>  <r_epik_Ionization_Penalty_Charging>  (146) 
0

>  <r_epik_Ionization_Penalty_Neutral>  (146) 
9.7707e-07

>  <r_epik_State_Penalty>  (146) 
-0

>  <r_epik_Charging_Adjusted_Penalty>  (146) 
0

>  <i_epik_Tot_Q>  (146) 
0

>  <i_epik_Tot_abs_Q>  (146) 
0

>  <s_lp_Force_Field>  (146) 
OPLS3e

>  <r_lp_Energy>  (146) 
171.744

>  <b_lp_Chiralities_Consistent>  (146) 
1

>  <s_lp_Variant>  (146) 
53:0-1

>  <s_i_glide_gridfile>  (146) 
pfpi4k_grid

>  <i_i_glide_lignum>  (146) 
28

>  <i_i_glide_rotatable_bonds>  (146) 
6

>  <r_i_docking_score>  (146) 
-3.70378

>  <r_i_glide_ligand_efficiency>  (146) 
-0.090336

>  <r_i_glide_ligand_efficiency_sa>  (146) 
-0.311498

>  <r_i_glide_ligand_efficiency_ln>  (146) 
-0.785769

>  <r_i_glide_gscore>  (146) 
-3.70378

>  <r_i_glide_lipo>  (146) 
-0.494987

>  <r_i_glide_hbond>  (146) 
-0.451019

>  <r_i_glide_metal>  (146) 
-0

>  <r_i_glide_rewards>  (146) 
-0.5

>  <r_i_glide_evdw>  (146) 
-22.828

>  <r_i_glide_ecoul>  (146) 
-7.44247

>  <r_i_glide_erotb>  (146) 
0

>  <r_i_glide_esite>  (146) 
0

>  <r_i_glide_emodel>  (146) 
-40.8621

>  <r_i_glide_energy>  (146) 
-30.2705

>  <r_i_glide_einternal>  (146) 
0.92883

>  <r_i_glide_intrahb_reward>  (146) 
-0.5

>  <i_i_glide_confnum>  (146) 
1

>  <i_i_glide_posenum>  (146) 
32

>  <r_i_glide_eff_state_penalty>  (146) 
0

>  <ligand_id>  (146) 
53

>  <original_smiles>  (146) 
CC1CC2(C)C3C(=O)CC(O)C1CC1(C(C)CC24CC4)C(O)C2C(C)C(C)(C)C(O)C4(O)COC(O)(C3O)C1C24C

>  <smiles>  (146) 
[H]OC1([H])C2(O[H])OC([H])([H])C3(O[H])C([H])(O[H])C(C([H])([H])[H])(C([H])([H])[H])C([H])(C([H])([H])[H])C4([H])C([H])(O[H])C5(C([H])([H])C6([H])C([H])(O[H])C([H])([H])C(=O)C1([H])C(C([H])([H])[H])(C([H])([H])C6([H])C([H])([H])[H])C1(C([H])([H])C1([H])[H])C([H])([H])C5([H])C([H])([H])[H])C2([H])C43C([H])([H])[H]

$$$$
53:0:1
     RDKit          3D

 93 99  0  0  1  0  0  0  0  0999 V2000
   -1.3767   -6.8532    4.8508 C   0  0  0  0  0  0  0  0  0  0  0  0
   -0.0930   -7.3209    4.2562 C   0  0  2  0  0  0  0  0  0  0  0  0
    0.5729   -8.3598    5.2324 C   0  0  0  0  0  0  0  0  0  0  0  0
    2.0011   -8.9248    4.9972 C   0  0  2  0  0  0  0  0  0  0  0  0
    2.3586   -9.7174    6.2801 C   0  0  0  0  0  0  0  0  0  0  0  0
    2.9989   -7.7460    4.8829 C   0  0  1  0  0  0  0  0  0  0  0  0
    2.9249   -6.6521    5.9800 C   0  0  0  0  0  0  0  0  0  0  0  0
    3.1791   -6.8888    7.1574 O   0  0  0  0  0  0  0  0  0  0  0  0
    2.5572   -5.2278    5.5594 C   0  0  0  0  0  0  0  0  0  0  0  0
    1.2205   -5.0640    4.8239 C   0  0  1  0  0  0  0  0  0  0  0  0
    1.2089   -3.7774    4.2451 O   0  0  0  0  0  0  0  0  0  0  0  0
    0.7074   -6.0855    3.7600 C   0  0  1  0  0  0  0  0  0  0  0  0
    1.3308   -6.1308    2.3300 C   0  0  0  0  0  0  0  0  0  0  0  0
    2.7107   -6.7362    1.7930 C   0  0  1  0  0  0  0  0  0  0  0  0
    2.5927   -8.2795    1.5416 C   0  0  1  0  0  0  0  0  0  0  0  0
    3.8123   -9.0387    0.9623 C   0  0  0  0  0  0  0  0  0  0  0  0
    1.6545   -9.1852    2.3887 C   0  0  0  0  0  0  0  0  0  0  0  0
    2.0105   -9.8661    3.7067 C   0  0  0  0  0  0  0  0  0  0  0  0
    1.4228  -11.2680    3.7989 C   0  0  0  0  0  0  0  0  0  0  0  0
    2.9213  -11.0759    3.6127 C   0  0  0  0  0  0  0  0  0  0  0  0
    2.8672   -5.9149    0.4326 C   0  0  1  0  0  0  0  0  0  0  0  0
    1.6744   -5.5987   -0.2989 O   0  0  0  0  0  0  0  0  0  0  0  0
    3.6755   -4.6585    0.8024 C   0  0  2  0  0  0  0  0  0  0  0  0
    4.1222   -3.4813   -0.0968 C   0  0  1  0  0  0  0  0  0  0  0  0
    3.0781   -3.0645   -1.1512 C   0  0  0  0  0  0  0  0  0  0  0  0
    4.5924   -2.3149    0.8688 C   0  0  0  0  0  0  0  0  0  0  0  0
    5.7607   -1.5629    0.1809 C   0  0  0  0  0  0  0  0  0  0  0  0
    3.4798   -1.2505    1.0743 C   0  0  0  0  0  0  0  0  0  0  0  0
    5.0529   -2.8407    2.3084 C   0  0  1  0  0  0  0  0  0  0  0  0
    3.9708   -2.8375    3.2278 O   0  0  0  0  0  0  0  0  0  0  0  0
    5.7015   -4.2639    2.3267 C   0  0  1  0  0  0  0  0  0  0  0  0
    6.9418   -4.0230    1.6825 O   0  0  0  0  0  0  0  0  0  0  0  0
    6.1038   -4.8702    3.7311 C   0  0  0  0  0  0  0  0  0  0  0  0
    5.3392   -5.9051    4.3334 O   0  0  0  0  0  0  0  0  0  0  0  0
    4.9857   -6.9481    3.5055 C   0  0  1  0  0  0  0  0  0  0  0  0
    6.1286   -7.5333    2.9108 O   0  0  0  0  0  0  0  0  0  0  0  0
    4.4064   -8.0699    4.3756 C   0  0  1  0  0  0  0  0  0  0  0  0
    5.3232   -8.4605    5.3895 O   0  0  0  0  0  0  0  0  0  0  0  0
    4.0409   -6.1963    2.4691 C   0  0  1  0  0  0  0  0  0  0  0  0
    4.8810   -5.3041    1.5258 C   0  0  1  0  0  0  0  0  0  0  0  0
    5.7855   -6.0671    0.5013 C   0  0  0  0  0  0  0  0  0  0  0  0
   -1.1960   -6.2314    5.7417 H   0  0  0  0  0  0  0  0  0  0  0  0
   -1.9004   -7.7774    5.1316 H   0  0  0  0  0  0  0  0  0  0  0  0
   -2.0221   -6.3531    4.1402 H   0  0  0  0  0  0  0  0  0  0  0  0
   -0.5267   -7.8474    3.4161 H   0  0  0  0  0  0  0  0  0  0  0  0
    0.5236   -7.9228    6.2279 H   0  0  0  0  0  0  0  0  0  0  0  0
   -0.1069   -9.2047    5.3056 H   0  0  0  0  0  0  0  0  0  0  0  0
    3.3880  -10.0756    6.2578 H   0  0  0  0  0  0  0  0  0  0  0  0
    1.6975  -10.5607    6.4224 H   0  0  0  0  0  0  0  0  0  0  0  0
    2.2425   -9.1144    7.1784 H   0  0  0  0  0  0  0  0  0  0  0  0
    2.6175   -7.2292    4.0463 H   0  0  0  0  0  0  0  0  0  0  0  0
    2.5270   -4.6189    6.4627 H   0  0  0  0  0  0  0  0  0  0  0  0
    3.3706   -4.8127    4.9777 H   0  0  0  0  0  0  0  0  0  0  0  0
    0.4697   -5.0098    5.6066 H   0  0  0  0  0  0  0  0  0  0  0  0
    1.9588   -3.6955    3.6830 H   0  0  0  0  0  0  0  0  0  0  0  0
   -0.1420   -5.4987    3.4276 H   0  0  0  0  0  0  0  0  0  0  0  0
    0.5583   -6.5918    1.7162 H   0  0  0  0  0  0  0  0  0  0  0  0
    1.2866   -5.0843    2.0718 H   0  0  0  0  0  0  0  0  0  0  0  0
    1.8782   -8.2818    0.7211 H   0  0  0  0  0  0  0  0  0  0  0  0
    4.6569   -9.1147    1.6412 H   0  0  0  0  0  0  0  0  0  0  0  0
    4.1758   -8.6558    0.0189 H   0  0  0  0  0  0  0  0  0  0  0  0
    3.5026  -10.0524    0.7375 H   0  0  0  0  0  0  0  0  0  0  0  0
    0.6475   -8.8348    2.3275 H   0  0  0  0  0  0  0  0  0  0  0  0
    1.4993  -10.0357    1.7055 H   0  0  0  0  0  0  0  0  0  0  0  0
    1.0445  -11.6085    4.7538 H   0  0  0  0  0  0  0  0  0  0  0  0
    0.8742  -11.6819    2.9473 H   0  0  0  0  0  0  0  0  0  0  0  0
    3.3423  -11.3259    2.6367 H   0  0  0  0  0  0  0  0  0  0  0  0
    3.5672  -11.3226    4.4470 H   0  0  0  0  0  0  0  0  0  0  0  0
    3.4158   -6.5056   -0.2788 H   0  0  0  0  0  0  0  0  0  0  0  0
    1.9374   -5.4457   -1.2009 H   0  0  0  0  0  0  0  0  0  0  0  0
    3.0144   -4.1463    1.4863 H   0  0  0  0  0  0  0  0  0  0  0  0
    4.9776   -3.7799   -0.6991 H   0  0  0  0  0  0  0  0  0  0  0  0
    2.1219   -2.8554   -0.6800 H   0  0  0  0  0  0  0  0  0  0  0  0
    2.9233   -3.8418   -1.8940 H   0  0  0  0  0  0  0  0  0  0  0  0
    3.3931   -2.1648   -1.6868 H   0  0  0  0  0  0  0  0  0  0  0  0
    6.1781   -0.7983    0.8390 H   0  0  0  0  0  0  0  0  0  0  0  0
    5.4188   -1.0734   -0.7265 H   0  0  0  0  0  0  0  0  0  0  0  0
    6.5662   -2.2381   -0.0979 H   0  0  0  0  0  0  0  0  0  0  0  0
    3.7783   -0.4996    1.8029 H   0  0  0  0  0  0  0  0  0  0  0  0
    2.5405   -1.6951    1.4188 H   0  0  0  0  0  0  0  0  0  0  0  0
    3.2449   -0.7101    0.1553 H   0  0  0  0  0  0  0  0  0  0  0  0
    5.7677   -2.1385    2.7217 H   0  0  0  0  0  0  0  0  0  0  0  0
    3.6689   -1.9535    3.3035 H   0  0  0  0  0  0  0  0  0  0  0  0
    6.7428   -3.7176    0.8120 H   0  0  0  0  0  0  0  0  0  0  0  0
    7.1079   -5.2893    3.6636 H   0  0  0  0  0  0  0  0  0  0  0  0
    6.1454   -4.0680    4.4659 H   0  0  0  0  0  0  0  0  0  0  0  0
    6.5712   -8.0140    3.5960 H   0  0  0  0  0  0  0  0  0  0  0  0
    4.3396   -8.9409    3.7449 H   0  0  0  0  0  0  0  0  0  0  0  0
    4.9111   -9.1157    5.9240 H   0  0  0  0  0  0  0  0  0  0  0  0
    3.5554   -5.4749    3.1054 H   0  0  0  0  0  0  0  0  0  0  0  0
    6.7604   -6.3015    0.9058 H   0  0  0  0  0  0  0  0  0  0  0  0
    5.9854   -5.4995   -0.4006 H   0  0  0  0  0  0  0  0  0  0  0  0
    5.3813   -7.0246    0.2199 H   0  0  0  0  0  0  0  0  0  0  0  0
  1  2  1  0
  1 42  1  0
  1 43  1  0
  1 44  1  0
  2 12  1  0
  2  3  1  0
  2 45  1  6
  3  4  1  0
  3 46  1  0
  3 47  1  0
  4 18  1  0
  4  5  1  1
  4  6  1  0
  5 48  1  0
  5 49  1  0
  5 50  1  0
  6 37  1  0
  6  7  1  0
  6 51  1  6
  7  8  2  0
  7  9  1  0
  9 10  1  0
  9 52  1  0
  9 53  1  0
 10 11  1  0
 10 12  1  0
 10 54  1  1
 11 55  1  0
 12 13  1  0
 12 56  1  6
 14 13  1  1
 13 57  1  0
 13 58  1  0
 14 39  1  0
 14 15  1  0
 14 21  1  0
 15 16  1  0
 15 17  1  0
 15 59  1  6
 16 60  1  0
 16 61  1  0
 16 62  1  0
 17 18  1  0
 17 63  1  0
 17 64  1  0
 18 20  1  0
 18 19  1  0
 19 20  1  0
 19 65  1  0
 19 66  1  0
 20 67  1  0
 20 68  1  0
 21 22  1  0
 21 23  1  0
 21 69  1  6
 22 70  1  0
 23 40  1  0
 23 24  1  0
 23 71  1  1
 24 25  1  0
 24 26  1  0
 24 72  1  6
 25 73  1  0
 25 74  1  0
 25 75  1  0
 26 27  1  0
 26 28  1  0
 26 29  1  0
 27 76  1  0
 27 77  1  0
 27 78  1  0
 28 79  1  0
 28 80  1  0
 28 81  1  0
 29 30  1  0
 29 31  1  0
 29 82  1  1
 30 83  1  0
 31 40  1  0
 31 32  1  6
 31 33  1  0
 32 84  1  0
 33 34  1  0
 33 85  1  0
 33 86  1  0
 34 35  1  0
 35 36  1  6
 35 37  1  0
 35 39  1  0
 36 87  1  0
 37 38  1  0
 37 88  1  6
 38 89  1  0
 39 40  1  0
 39 90  1  1
 40 41  1  6
 41 91  1  0
 41 92  1  0
 41 93  1  0
M  END
>  <i_m_ct_stereo_status>  (147) 
1

>  <s_m_source_file>  (147) 
/var/tmp/pbs.5076255.sched01/tmpjtt61wjg/4457_394l_.sdf

>  <i_m_source_file_index>  (147) 
28

>  <i_lp_mmshare_version>  (147) 
48012

>  <i_f3d_flags>  (147) 
0

>  <s_epik_input>  (147) 
Tz1DMVtDSDJdW0NAQEhdKFtPSF0pW0NAQEhdKFtDSDJdMilbQ0BIXShbQ0gzXSlbQ0gyXVtDQEBdKFtDSDNdKShDMyhbQ0gyXVtDSDJdMylbQ0gyXVtDQEBIXTRbQ0gzXSlbQ0BASF0xW0NASF0oW09IXSlbQ0BAXShbT0hdKShbQ0BASF01W0NAXTI0NilPW0NIMl1bQ0BAXTcoW09IXSlbQ0BdNShbQ0gzXSlbQ0BIXShbQ0BASF02W09IXSlbQ0BASF0oW0NIM10pQyhbQ0gzXSkoW0NIM10pW0NASF03W09IXQ==

>  <s_epik_cmdline>  (147) 
J2VwaWtfcHl0aG9uJywgJy1waHQnLCAnMi4wJywgJy1waCcsICc3LjAnLCAnLXRuJywgJzgnLCAnLW1hJywgJzIwMCcsICctaW1hZScsICc8aW5maWxlLm1hZT4nLCAnLW9tYWUnLCAnPG91dGZpbGUubWFlPic=

>  <r_lp_tautomer_probability>  (147) 
1

>  <r_epik_Ionization_Penalty>  (147) 
9.7707e-07

>  <r_epik_Ionization_Penalty_Charging>  (147) 
0

>  <r_epik_Ionization_Penalty_Neutral>  (147) 
9.7707e-07

>  <r_epik_State_Penalty>  (147) 
-0

>  <r_epik_Charging_Adjusted_Penalty>  (147) 
0

>  <i_epik_Tot_Q>  (147) 
0

>  <i_epik_Tot_abs_Q>  (147) 
0

>  <s_lp_Force_Field>  (147) 
OPLS3e

>  <r_lp_Energy>  (147) 
171.744

>  <b_lp_Chiralities_Consistent>  (147) 
1

>  <s_lp_Variant>  (147) 
53:0-1

>  <s_i_glide_gridfile>  (147) 
pfpi4k_grid

>  <i_i_glide_lignum>  (147) 
28

>  <i_i_glide_rotatable_bonds>  (147) 
6

>  <r_i_docking_score>  (147) 
-3.37564

>  <r_i_glide_ligand_efficiency>  (147) 
-0.0823326

>  <r_i_glide_ligand_efficiency_sa>  (147) 
-0.283901

>  <r_i_glide_ligand_efficiency_ln>  (147) 
-0.716153

>  <r_i_glide_gscore>  (147) 
-3.37564

>  <r_i_glide_lipo>  (147) 
-0.469475

>  <r_i_glide_hbond>  (147) 
-0.441586

>  <r_i_glide_metal>  (147) 
-0

>  <r_i_glide_rewards>  (147) 
-0.5

>  <r_i_glide_evdw>  (147) 
-21.6708

>  <r_i_glide_ecoul>  (147) 
-5.87357

>  <r_i_glide_erotb>  (147) 
0

>  <r_i_glide_esite>  (147) 
0

>  <r_i_glide_emodel>  (147) 
-37.3588

>  <r_i_glide_energy>  (147) 
-27.5444

>  <r_i_glide_einternal>  (147) 
1.29028

>  <r_i_glide_intrahb_reward>  (147) 
-0.5

>  <i_i_glide_confnum>  (147) 
2

>  <i_i_glide_posenum>  (147) 
17

>  <r_i_glide_eff_state_penalty>  (147) 
0

>  <ligand_id>  (147) 
53

>  <original_smiles>  (147) 
CC1CC2(C)C3C(=O)CC(O)C1CC1(C(C)CC24CC4)C(O)C2C(C)C(C)(C)C(O)C4(O)COC(O)(C3O)C1C24C

>  <smiles>  (147) 
[H]OC1([H])C2(O[H])OC([H])([H])C3(O[H])C([H])(O[H])C(C([H])([H])[H])(C([H])([H])[H])C([H])(C([H])([H])[H])C4([H])C([H])(O[H])C5(C([H])([H])C6([H])C([H])(O[H])C([H])([H])C(=O)C1([H])C(C([H])([H])[H])(C([H])([H])C6([H])C([H])([H])[H])C1(C([H])([H])C1([H])[H])C([H])([H])C5([H])C([H])([H])[H])C2([H])C43C([H])([H])[H]

$$$$
53:0:2
     RDKit          3D

 93 99  0  0  1  0  0  0  0  0999 V2000
   -0.5506   -5.0213    6.9588 C   0  0  0  0  0  0  0  0  0  0  0  0
    0.2874   -5.9459    6.0461 C   0  0  2  0  0  0  0  0  0  0  0  0
    1.0380   -6.9424    6.9751 C   0  0  0  0  0  0  0  0  0  0  0  0
    2.1294   -7.9220    6.4543 C   0  0  2  0  0  0  0  0  0  0  0  0
    2.7449   -8.5494    7.7496 C   0  0  0  0  0  0  0  0  0  0  0  0
    3.2587   -7.1314    5.7454 C   0  0  1  0  0  0  0  0  0  0  0  0
    3.8144   -5.8904    6.4694 C   0  0  0  0  0  0  0  0  0  0  0  0
    4.4091   -5.9668    7.5407 O   0  0  0  0  0  0  0  0  0  0  0  0
    3.6228   -4.5364    5.7941 C   0  0  0  0  0  0  0  0  0  0  0  0
    2.1586   -4.1277    5.4891 C   0  0  1  0  0  0  0  0  0  0  0  0
    2.1906   -3.0350    4.5896 O   0  0  0  0  0  0  0  0  0  0  0  0
    1.0830   -5.1348    4.9525 C   0  0  1  0  0  0  0  0  0  0  0  0
    1.1559   -5.6626    3.4437 C   0  0  0  0  0  0  0  0  0  0  0  0
    2.1055   -6.7454    2.6925 C   0  0  1  0  0  0  0  0  0  0  0  0
    1.5612   -8.2063    2.8894 C   0  0  1  0  0  0  0  0  0  0  0  0
    2.3117   -9.4017    2.2712 C   0  0  0  0  0  0  0  0  0  0  0  0
    0.8194   -8.5691    4.2078 C   0  0  0  0  0  0  0  0  0  0  0  0
    1.4909   -9.0438    5.4853 C   0  0  0  0  0  0  0  0  0  0  0  0
    0.7085  -10.1590    6.1398 C   0  0  0  0  0  0  0  0  0  0  0  0
    2.0338  -10.4664    5.5002 C   0  0  0  0  0  0  0  0  0  0  0  0
    1.9667   -6.3143    1.1565 C   0  0  1  0  0  0  0  0  0  0  0  0
    0.6630   -5.9887    0.7402 O   0  0  0  0  0  0  0  0  0  0  0  0
    3.0689   -5.2438    0.9429 C   0  0  2  0  0  0  0  0  0  0  0  0
    3.4256   -4.3928   -0.2982 C   0  0  1  0  0  0  0  0  0  0  0  0
    2.2018   -3.8400   -1.0644 C   0  0  0  0  0  0  0  0  0  0  0  0
    4.4545   -3.2842    0.1296 C   0  0  0  0  0  0  0  0  0  0  0  0
    5.4302   -3.0653   -1.0572 C   0  0  0  0  0  0  0  0  0  0  0  0
    3.7528   -1.9192    0.3443 C   0  0  0  0  0  0  0  0  0  0  0  0
    5.2741   -3.6662    1.4391 C   0  0  1  0  0  0  0  0  0  0  0  0
    4.6122   -3.1777    2.5963 O   0  0  0  0  0  0  0  0  0  0  0  0
    5.5614   -5.1876    1.6321 C   0  0  1  0  0  0  0  0  0  0  0  0
    6.5287   -5.4177    0.6142 O   0  0  0  0  0  0  0  0  0  0  0  0
    6.3300   -5.5959    2.9323 C   0  0  0  0  0  0  0  0  0  0  0  0
    5.6353   -6.2433    4.0066 O   0  0  0  0  0  0  0  0  0  0  0  0
    4.7596   -7.2634    3.6716 C   0  0  1  0  0  0  0  0  0  0  0  0
    5.4372   -8.2738    2.9313 O   0  0  0  0  0  0  0  0  0  0  0  0
    4.3019   -7.9495    4.9866 C   0  0  1  0  0  0  0  0  0  0  0  0
    5.3989   -8.3711    5.7827 O   0  0  0  0  0  0  0  0  0  0  0  0
    3.6780   -6.4761    2.7926 C   0  0  1  0  0  0  0  0  0  0  0  0
    4.2894   -6.0537    1.4332 C   0  0  1  0  0  0  0  0  0  0  0  0
    4.6126   -7.2528    0.4751 C   0  0  0  0  0  0  0  0  0  0  0  0
    0.0673   -4.4084    7.6150 H   0  0  0  0  0  0  0  0  0  0  0  0
   -1.2039   -5.6114    7.6032 H   0  0  0  0  0  0  0  0  0  0  0  0
   -1.1999   -4.3539    6.3901 H   0  0  0  0  0  0  0  0  0  0  0  0
   -0.5243   -6.4604    5.5484 H   0  0  0  0  0  0  0  0  0  0  0  0
    1.4665   -6.3473    7.7829 H   0  0  0  0  0  0  0  0  0  0  0  0
    0.2802   -7.5423    7.4768 H   0  0  0  0  0  0  0  0  0  0  0  0
    3.6049   -9.1935    7.5392 H   0  0  0  0  0  0  0  0  0  0  0  0
    2.0188   -9.1268    8.3260 H   0  0  0  0  0  0  0  0  0  0  0  0
    3.0892   -7.7824    8.4524 H   0  0  0  0  0  0  0  0  0  0  0  0
    2.7235   -6.6967    4.9522 H   0  0  0  0  0  0  0  0  0  0  0  0
    4.0574   -3.7885    6.4600 H   0  0  0  0  0  0  0  0  0  0  0  0
    4.2508   -4.4983    4.9117 H   0  0  0  0  0  0  0  0  0  0  0  0
    1.7839   -3.7196    6.4286 H   0  0  0  0  0  0  0  0  0  0  0  0
    2.6064   -3.3165    3.7961 H   0  0  0  0  0  0  0  0  0  0  0  0
    0.2909   -4.4099    4.7496 H   0  0  0  0  0  0  0  0  0  0  0  0
    0.1400   -5.9822    3.2301 H   0  0  0  0  0  0  0  0  0  0  0  0
    1.2171   -4.7284    2.8974 H   0  0  0  0  0  0  0  0  0  0  0  0
    0.6941   -8.1778    2.2275 H   0  0  0  0  0  0  0  0  0  0  0  0
    3.2990   -9.5711    2.6787 H   0  0  0  0  0  0  0  0  0  0  0  0
    2.3842   -9.3263    1.1888 H   0  0  0  0  0  0  0  0  0  0  0  0
    1.7547  -10.3245    2.4237 H   0  0  0  0  0  0  0  0  0  0  0  0
   -0.0183   -7.9249    4.3808 H   0  0  0  0  0  0  0  0  0  0  0  0
    0.2582   -9.4421    3.8701 H   0  0  0  0  0  0  0  0  0  0  0  0
    0.6154  -10.1946    7.2207 H   0  0  0  0  0  0  0  0  0  0  0  0
   -0.1404  -10.5677    5.6181 H   0  0  0  0  0  0  0  0  0  0  0  0
    1.9859  -11.0324    4.5744 H   0  0  0  0  0  0  0  0  0  0  0  0
    2.8171  -10.7584    6.1724 H   0  0  0  0  0  0  0  0  0  0  0  0
    2.1480   -7.1510    0.5126 H   0  0  0  0  0  0  0  0  0  0  0  0
    0.2260   -6.8093    0.6107 H   0  0  0  0  0  0  0  0  0  0  0  0
    2.8007   -4.4670    1.6427 H   0  0  0  0  0  0  0  0  0  0  0  0
    3.9421   -5.0304   -0.9946 H   0  0  0  0  0  0  0  0  0  0  0  0
    1.5827   -3.2087   -0.4350 H   0  0  0  0  0  0  0  0  0  0  0  0
    1.5758   -4.6449   -1.4536 H   0  0  0  0  0  0  0  0  0  0  0  0
    2.5080   -3.2465   -1.9265 H   0  0  0  0  0  0  0  0  0  0  0  0
    6.2101   -2.3453   -0.8010 H   0  0  0  0  0  0  0  0  0  0  0  0
    4.8961   -2.6838   -1.9324 H   0  0  0  0  0  0  0  0  0  0  0  0
    5.9186   -3.9908   -1.3713 H   0  0  0  0  0  0  0  0  0  0  0  0
    4.4454   -1.1651    0.7169 H   0  0  0  0  0  0  0  0  0  0  0  0
    2.9218   -2.0051    1.0515 H   0  0  0  0  0  0  0  0  0  0  0  0
    3.3321   -1.5267   -0.5859 H   0  0  0  0  0  0  0  0  0  0  0  0
    6.2200   -3.1324    1.4286 H   0  0  0  0  0  0  0  0  0  0  0  0
    4.5638   -2.2438    2.5269 H   0  0  0  0  0  0  0  0  0  0  0  0
    6.1020   -5.2877   -0.2063 H   0  0  0  0  0  0  0  0  0  0  0  0
    7.1901   -6.2236    2.6960 H   0  0  0  0  0  0  0  0  0  0  0  0
    6.6479   -4.6667    3.3652 H   0  0  0  0  0  0  0  0  0  0  0  0
    4.8922   -9.0251    2.8734 H   0  0  0  0  0  0  0  0  0  0  0  0
    3.8463   -8.8763    4.6698 H   0  0  0  0  0  0  0  0  0  0  0  0
    5.0660   -8.7490    6.5707 H   0  0  0  0  0  0  0  0  0  0  0  0
    3.6198   -5.5445    3.3307 H   0  0  0  0  0  0  0  0  0  0  0  0
    5.6030   -7.6586    0.6458 H   0  0  0  0  0  0  0  0  0  0  0  0
    4.5849   -6.9682   -0.5747 H   0  0  0  0  0  0  0  0  0  0  0  0
    3.9559   -8.1098    0.5854 H   0  0  0  0  0  0  0  0  0  0  0  0
  1  2  1  0
  1 42  1  0
  1 43  1  0
  1 44  1  0
  2 12  1  0
  2  3  1  0
  2 45  1  6
  3  4  1  0
  3 46  1  0
  3 47  1  0
  4 18  1  0
  4  5  1  1
  4  6  1  0
  5 48  1  0
  5 49  1  0
  5 50  1  0
  6 37  1  0
  6  7  1  0
  6 51  1  6
  7  8  2  0
  7  9  1  0
  9 10  1  0
  9 52  1  0
  9 53  1  0
 10 11  1  0
 10 12  1  0
 10 54  1  1
 11 55  1  0
 12 13  1  0
 12 56  1  6
 14 13  1  1
 13 57  1  0
 13 58  1  0
 14 39  1  0
 14 15  1  0
 14 21  1  0
 15 16  1  0
 15 17  1  0
 15 59  1  6
 16 60  1  0
 16 61  1  0
 16 62  1  0
 17 18  1  0
 17 63  1  0
 17 64  1  0
 18 20  1  0
 18 19  1  0
 19 20  1  0
 19 65  1  0
 19 66  1  0
 20 67  1  0
 20 68  1  0
 21 22  1  0
 21 23  1  0
 21 69  1  6
 22 70  1  0
 23 40  1  0
 23 24  1  0
 23 71  1  1
 24 25  1  0
 24 26  1  0
 24 72  1  6
 25 73  1  0
 25 74  1  0
 25 75  1  0
 26 27  1  0
 26 28  1  0
 26 29  1  0
 27 76  1  0
 27 77  1  0
 27 78  1  0
 28 79  1  0
 28 80  1  0
 28 81  1  0
 29 30  1  0
 29 31  1  0
 29 82  1  6
 30 83  1  0
 31 40  1  0
 31 32  1  6
 31 33  1  0
 32 84  1  0
 33 34  1  0
 33 85  1  0
 33 86  1  0
 34 35  1  0
 35 36  1  6
 35 37  1  0
 35 39  1  0
 36 87  1  0
 37 38  1  0
 37 88  1  6
 38 89  1  0
 39 40  1  0
 39 90  1  1
 40 41  1  6
 41 91  1  0
 41 92  1  0
 41 93  1  0
M  END
>  <i_m_ct_stereo_status>  (148) 
1

>  <s_m_source_file>  (148) 
/var/tmp/pbs.5076255.sched01/tmpjtt61wjg/4457_394l_.sdf

>  <i_m_source_file_index>  (148) 
28

>  <i_lp_mmshare_version>  (148) 
48012

>  <i_f3d_flags>  (148) 
0

>  <s_epik_input>  (148) 
Tz1DMVtDSDJdW0NAQEhdKFtPSF0pW0NAQEhdKFtDSDJdMilbQ0BIXShbQ0gzXSlbQ0gyXVtDQEBdKFtDSDNdKShDMyhbQ0gyXVtDSDJdMylbQ0gyXVtDQEBIXTRbQ0gzXSlbQ0BASF0xW0NASF0oW09IXSlbQ0BAXShbT0hdKShbQ0BASF01W0NAXTI0NilPW0NIMl1bQ0BAXTcoW09IXSlbQ0BdNShbQ0gzXSlbQ0BIXShbQ0BASF02W09IXSlbQ0BASF0oW0NIM10pQyhbQ0gzXSkoW0NIM10pW0NASF03W09IXQ==

>  <s_epik_cmdline>  (148) 
J2VwaWtfcHl0aG9uJywgJy1waHQnLCAnMi4wJywgJy1waCcsICc3LjAnLCAnLXRuJywgJzgnLCAnLW1hJywgJzIwMCcsICctaW1hZScsICc8aW5maWxlLm1hZT4nLCAnLW9tYWUnLCAnPG91dGZpbGUubWFlPic=

>  <r_lp_tautomer_probability>  (148) 
1

>  <r_epik_Ionization_Penalty>  (148) 
9.7707e-07

>  <r_epik_Ionization_Penalty_Charging>  (148) 
0

>  <r_epik_Ionization_Penalty_Neutral>  (148) 
9.7707e-07

>  <r_epik_State_Penalty>  (148) 
-0

>  <r_epik_Charging_Adjusted_Penalty>  (148) 
0

>  <i_epik_Tot_Q>  (148) 
0

>  <i_epik_Tot_abs_Q>  (148) 
0

>  <s_lp_Force_Field>  (148) 
OPLS3e

>  <r_lp_Energy>  (148) 
171.744

>  <b_lp_Chiralities_Consistent>  (148) 
1

>  <s_lp_Variant>  (148) 
53:0-1

>  <s_i_glide_gridfile>  (148) 
pfpi4k_grid

>  <i_i_glide_lignum>  (148) 
28

>  <i_i_glide_rotatable_bonds>  (148) 
6

>  <r_i_docking_score>  (148) 
-3.30239

>  <r_i_glide_ligand_efficiency>  (148) 
-0.0805461

>  <r_i_glide_ligand_efficiency_sa>  (148) 
-0.27774

>  <r_i_glide_ligand_efficiency_ln>  (148) 
-0.700613

>  <r_i_glide_gscore>  (148) 
-3.30239

>  <r_i_glide_lipo>  (148) 
-0.415199

>  <r_i_glide_hbond>  (148) 
-0.158591

>  <r_i_glide_metal>  (148) 
-0

>  <r_i_glide_rewards>  (148) 
-0.5

>  <r_i_glide_evdw>  (148) 
-21.6757

>  <r_i_glide_ecoul>  (148) 
-7.63209

>  <r_i_glide_erotb>  (148) 
0

>  <r_i_glide_esite>  (148) 
0

>  <r_i_glide_emodel>  (148) 
-37.8293

>  <r_i_glide_energy>  (148) 
-29.3078

>  <r_i_glide_einternal>  (148) 
3.16469

>  <r_i_glide_intrahb_reward>  (148) 
-0.5

>  <i_i_glide_confnum>  (148) 
1

>  <i_i_glide_posenum>  (148) 
5

>  <r_i_glide_eff_state_penalty>  (148) 
0

>  <ligand_id>  (148) 
53

>  <original_smiles>  (148) 
CC1CC2(C)C3C(=O)CC(O)C1CC1(C(C)CC24CC4)C(O)C2C(C)C(C)(C)C(O)C4(O)COC(O)(C3O)C1C24C

>  <smiles>  (148) 
[H]OC1([H])C2(O[H])OC([H])([H])C3(O[H])C([H])(O[H])C(C([H])([H])[H])(C([H])([H])[H])C([H])(C([H])([H])[H])C4([H])C([H])(O[H])C5(C([H])([H])C6([H])C([H])(O[H])C([H])([H])C(=O)C1([H])C(C([H])([H])[H])(C([H])([H])C6([H])C([H])([H])[H])C1(C([H])([H])C1([H])[H])C([H])([H])C5([H])C([H])([H])[H])C2([H])C43C([H])([H])[H]

$$$$
53:1:0
     RDKit          3D

 93 99  0  0  1  0  0  0  0  0999 V2000
    3.5279    5.4860    9.2576 C   0  0  0  0  0  0  0  0  0  0  0  0
    2.2973    4.7934    8.6243 C   0  0  2  0  0  0  0  0  0  0  0  0
    1.2551    4.5468    9.7736 C   0  0  0  0  0  0  0  0  0  0  0  0
    0.1376    3.4406    9.8280 C   0  0  2  0  0  0  0  0  0  0  0  0
   -0.2951    3.5614   11.3212 C   0  0  0  0  0  0  0  0  0  0  0  0
    0.7326    1.9727    9.6913 C   0  0  2  0  0  0  0  0  0  0  0  0
    2.2422    1.7957   10.0017 C   0  0  0  0  0  0  0  0  0  0  0  0
    2.7023    1.9942   11.1322 O   0  0  0  0  0  0  0  0  0  0  0  0
    3.1583    1.3542    8.8896 C   0  0  0  0  0  0  0  0  0  0  0  0
    3.6704    2.5364    8.0686 C   0  0  1  0  0  0  0  0  0  0  0  0
    4.3755    2.0012    6.9610 O   0  0  0  0  0  0  0  0  0  0  0  0
    2.6958    3.6683    7.6072 C   0  0  1  0  0  0  0  0  0  0  0  0
    1.9070    3.5278    6.2580 C   0  0  0  0  0  0  0  0  0  0  0  0
    0.5743    2.7208    5.9089 C   0  0  1  0  0  0  0  0  0  0  0  0
   -0.6844    3.6268    6.1807 C   0  0  1  0  0  0  0  0  0  0  0  0
   -2.0901    3.3309    5.5705 C   0  0  0  0  0  0  0  0  0  0  0  0
   -0.7570    4.4126    7.5383 C   0  0  0  0  0  0  0  0  0  0  0  0
   -1.1083    3.7896    8.8993 C   0  0  0  0  0  0  0  0  0  0  0  0
   -2.3457    4.4671    9.5218 C   0  0  0  0  0  0  0  0  0  0  0  0
   -2.4236    3.0488    9.0554 C   0  0  0  0  0  0  0  0  0  0  0  0
    0.6860    2.5164    4.3203 C   0  0  1  0  0  0  0  0  0  0  0  0
    1.3090    3.5820    3.6165 O   0  0  0  0  0  0  0  0  0  0  0  0
    1.3887    1.1589    4.1749 C   0  0  2  0  0  0  0  0  0  0  0  0
    1.6945    0.4129    2.8614 C   0  0  1  0  0  0  0  0  0  0  0  0
    2.2059    1.3239    1.7446 C   0  0  0  0  0  0  0  0  0  0  0  0
    2.6430   -0.8267    3.1690 C   0  0  0  0  0  0  0  0  0  0  0  0
    2.2171   -1.9885    2.2388 C   0  0  0  0  0  0  0  0  0  0  0  0
    4.1335   -0.5289    2.8246 C   0  0  0  0  0  0  0  0  0  0  0  0
    2.5564   -1.3010    4.6857 C   0  0  1  0  0  0  0  0  0  0  0  0
    3.5177   -0.6261    5.4882 O   0  0  0  0  0  0  0  0  0  0  0  0
    1.1550   -1.1305    5.3446 C   0  0  1  0  0  0  0  0  0  0  0  0
    0.3894   -2.1721    4.7454 O   0  0  0  0  0  0  0  0  0  0  0  0
    1.0442   -1.4591    6.8506 C   0  0  0  0  0  0  0  0  0  0  0  0
   -0.1701   -0.8706    7.3552 O   0  0  0  0  0  0  0  0  0  0  0  0
   -0.2286    0.5350    7.5295 C   0  0  1  0  0  0  0  0  0  0  0  0
   -1.5453    0.9079    7.2843 O   0  0  0  0  0  0  0  0  0  0  0  0
   -0.0189    0.7433    9.0908 C   0  0  1  0  0  0  0  0  0  0  0  0
    0.4493   -0.4487    9.7446 O   0  0  0  0  0  0  0  0  0  0  0  0
    0.6531    1.1926    6.3903 C   0  0  1  0  0  0  0  0  0  0  0  0
    0.5307    0.2877    5.1095 C   0  0  1  0  0  0  0  0  0  0  0  0
   -0.9405    0.1119    4.5665 C   0  0  0  0  0  0  0  0  0  0  0  0
    4.0565    4.8310    9.9491 H   0  0  0  0  0  0  0  0  0  0  0  0
    3.2206    6.3643    9.8268 H   0  0  0  0  0  0  0  0  0  0  0  0
    4.2353    5.8311    8.5076 H   0  0  0  0  0  0  0  0  0  0  0  0
    1.9197    5.6121    8.0192 H   0  0  0  0  0  0  0  0  0  0  0  0
    1.8626    4.4486   10.6890 H   0  0  0  0  0  0  0  0  0  0  0  0
    0.7634    5.5120    9.9365 H   0  0  0  0  0  0  0  0  0  0  0  0
   -1.1475    2.9260   11.5627 H   0  0  0  0  0  0  0  0  0  0  0  0
   -0.5548    4.5904   11.5999 H   0  0  0  0  0  0  0  0  0  0  0  0
    0.4957    3.2552   12.0129 H   0  0  0  0  0  0  0  0  0  0  0  0
    0.4844    1.6275   10.6964 H   0  0  0  0  0  0  0  0  0  0  0  0
    4.0016    0.8404    9.3437 H   0  0  0  0  0  0  0  0  0  0  0  0
    2.6572    0.5994    8.3079 H   0  0  0  0  0  0  0  0  0  0  0  0
    4.4385    3.0019    8.6825 H   0  0  0  0  0  0  0  0  0  0  0  0
    3.7782    1.5228    6.4156 H   0  0  0  0  0  0  0  0  0  0  0  0
    3.4802    4.2630    7.1396 H   0  0  0  0  0  0  0  0  0  0  0  0
    1.7402    4.5528    5.9191 H   0  0  0  0  0  0  0  0  0  0  0  0
    2.6811    3.1888    5.5721 H   0  0  0  0  0  0  0  0  0  0  0  0
   -0.4443    4.4701    5.5344 H   0  0  0  0  0  0  0  0  0  0  0  0
   -2.6075    2.4555    5.9363 H   0  0  0  0  0  0  0  0  0  0  0  0
   -2.0692    3.2449    4.4881 H   0  0  0  0  0  0  0  0  0  0  0  0
   -2.7825    4.1447    5.7620 H   0  0  0  0  0  0  0  0  0  0  0  0
    0.0412    5.1300    7.6045 H   0  0  0  0  0  0  0  0  0  0  0  0
   -1.5534    5.1368    7.3422 H   0  0  0  0  0  0  0  0  0  0  0  0
   -2.4828    4.5683   10.5883 H   0  0  0  0  0  0  0  0  0  0  0  0
   -2.9164    5.1936    8.9166 H   0  0  0  0  0  0  0  0  0  0  0  0
   -3.0353    2.8595    8.1666 H   0  0  0  0  0  0  0  0  0  0  0  0
   -2.5133    2.2969    9.8248 H   0  0  0  0  0  0  0  0  0  0  0  0
   -0.2713    2.4558    3.8196 H   0  0  0  0  0  0  0  0  0  0  0  0
    1.0267    3.5688    2.7122 H   0  0  0  0  0  0  0  0  0  0  0  0
    2.3758    1.3322    4.5877 H   0  0  0  0  0  0  0  0  0  0  0  0
    0.7589    0.0278    2.4601 H   0  0  0  0  0  0  0  0  0  0  0  0
    3.0919    1.8734    2.0489 H   0  0  0  0  0  0  0  0  0  0  0  0
    1.4484    2.0359    1.4303 H   0  0  0  0  0  0  0  0  0  0  0  0
    2.4511    0.7114    0.8836 H   0  0  0  0  0  0  0  0  0  0  0  0
    2.7748   -2.8945    2.4577 H   0  0  0  0  0  0  0  0  0  0  0  0
    2.3870   -1.7338    1.1948 H   0  0  0  0  0  0  0  0  0  0  0  0
    1.1595   -2.2135    2.3350 H   0  0  0  0  0  0  0  0  0  0  0  0
    4.7814   -1.3499    3.1253 H   0  0  0  0  0  0  0  0  0  0  0  0
    4.4964    0.3782    3.3146 H   0  0  0  0  0  0  0  0  0  0  0  0
    4.2880   -0.3933    1.7548 H   0  0  0  0  0  0  0  0  0  0  0  0
    2.8461   -2.3466    4.7427 H   0  0  0  0  0  0  0  0  0  0  0  0
    4.3688   -0.8377    5.1549 H   0  0  0  0  0  0  0  0  0  0  0  0
    0.4489   -2.0680    3.8187 H   0  0  0  0  0  0  0  0  0  0  0  0
    1.0269   -2.5357    7.0198 H   0  0  0  0  0  0  0  0  0  0  0  0
    1.9000   -1.0944    7.4173 H   0  0  0  0  0  0  0  0  0  0  0  0
   -1.6342    1.0536    6.3510 H   0  0  0  0  0  0  0  0  0  0  0  0
   -1.0098    0.7580    9.5276 H   0  0  0  0  0  0  0  0  0  0  0  0
    1.3635   -0.5752    9.5861 H   0  0  0  0  0  0  0  0  0  0  0  0
    1.6802    1.0733    6.7021 H   0  0  0  0  0  0  0  0  0  0  0  0
   -1.5138   -0.5904    5.1700 H   0  0  0  0  0  0  0  0  0  0  0  0
   -0.9722   -0.2918    3.5617 H   0  0  0  0  0  0  0  0  0  0  0  0
   -1.5399    1.0092    4.5346 H   0  0  0  0  0  0  0  0  0  0  0  0
  1  2  1  0
  1 42  1  0
  1 43  1  0
  1 44  1  0
  2 12  1  0
  2  3  1  0
  2 45  1  6
  3  4  1  0
  3 46  1  0
  3 47  1  0
  4 18  1  0
  4  5  1  1
  4  6  1  0
  5 48  1  0
  5 49  1  0
  5 50  1  0
  6 37  1  0
  6  7  1  0
  6 51  1  1
  7  8  2  0
  7  9  1  0
  9 10  1  0
  9 52  1  0
  9 53  1  0
 10 11  1  0
 10 12  1  0
 10 54  1  1
 11 55  1  0
 12 13  1  0
 12 56  1  6
 14 13  1  1
 13 57  1  0
 13 58  1  0
 14 39  1  0
 14 15  1  0
 14 21  1  0
 15 16  1  0
 15 17  1  0
 15 59  1  6
 16 60  1  0
 16 61  1  0
 16 62  1  0
 17 18  1  0
 17 63  1  0
 17 64  1  0
 18 20  1  0
 18 19  1  0
 19 20  1  0
 19 65  1  0
 19 66  1  0
 20 67  1  0
 20 68  1  0
 21 22  1  0
 21 23  1  0
 21 69  1  6
 22 70  1  0
 23 40  1  0
 23 24  1  0
 23 71  1  1
 24 25  1  0
 24 26  1  0
 24 72  1  6
 25 73  1  0
 25 74  1  0
 25 75  1  0
 26 27  1  0
 26 28  1  0
 26 29  1  0
 27 76  1  0
 27 77  1  0
 27 78  1  0
 28 79  1  0
 28 80  1  0
 28 81  1  0
 29 30  1  0
 29 31  1  0
 29 82  1  6
 30 83  1  0
 31 40  1  0
 31 32  1  6
 31 33  1  0
 32 84  1  0
 33 34  1  0
 33 85  1  0
 33 86  1  0
 34 35  1  0
 35 36  1  6
 35 37  1  0
 35 39  1  0
 36 87  1  0
 37 38  1  0
 37 88  1  1
 38 89  1  0
 39 40  1  0
 39 90  1  1
 40 41  1  6
 41 91  1  0
 41 92  1  0
 41 93  1  0
M  END
>  <i_m_ct_stereo_status>  (149) 
1

>  <s_m_source_file>  (149) 
/var/tmp/pbs.5076255.sched01/tmpjtt61wjg/4457_394l_.sdf

>  <i_m_source_file_index>  (149) 
29

>  <i_lp_mmshare_version>  (149) 
48012

>  <i_f3d_flags>  (149) 
0

>  <s_epik_input>  (149) 
Tz1DMVtDSDJdW0NAQEhdKFtPSF0pW0NAQEhdKFtDSDJdMilbQ0BIXShbQ0gzXSlbQ0gyXVtDQEBdKFtDSDNdKShDMyhbQ0gyXVtDSDJdMylbQ0gyXVtDQEBIXTRbQ0gzXSlbQ0BASF0xW0NASF0oW09IXSlbQ0BAXShbT0hdKShbQ0BASF01W0NAXTI0NilPW0NIMl1bQ0BAXTcoW09IXSlbQ0BdNShbQ0gzXSlbQ0BIXShbQ0BASF02W09IXSlbQ0BASF0oW0NIM10pQyhbQ0gzXSkoW0NIM10pW0NASF03W09IXQ==

>  <s_epik_cmdline>  (149) 
J2VwaWtfcHl0aG9uJywgJy1waHQnLCAnMi4wJywgJy1waCcsICc3LjAnLCAnLXRuJywgJzgnLCAnLW1hJywgJzIwMCcsICctaW1hZScsICc8aW5maWxlLm1hZT4nLCAnLW9tYWUnLCAnPG91dGZpbGUubWFlPic=

>  <r_lp_tautomer_probability>  (149) 
1

>  <r_epik_Ionization_Penalty>  (149) 
9.7707e-07

>  <r_epik_Ionization_Penalty_Charging>  (149) 
0

>  <r_epik_Ionization_Penalty_Neutral>  (149) 
9.7707e-07

>  <r_epik_State_Penalty>  (149) 
-0

>  <r_epik_Charging_Adjusted_Penalty>  (149) 
0

>  <i_epik_Tot_Q>  (149) 
0

>  <i_epik_Tot_abs_Q>  (149) 
0

>  <s_lp_Force_Field>  (149) 
OPLS3e

>  <r_lp_Energy>  (149) 
207.881

>  <b_lp_Chiralities_Consistent>  (149) 
1

>  <s_lp_Variant>  (149) 
53:0-2

>  <s_i_glide_gridfile>  (149) 
pfpi4k_grid

>  <i_i_glide_lignum>  (149) 
29

>  <i_i_glide_rotatable_bonds>  (149) 
6

>  <r_i_docking_score>  (149) 
-3.06117

>  <r_i_glide_ligand_efficiency>  (149) 
-0.0746626

>  <r_i_glide_ligand_efficiency_sa>  (149) 
-0.257453

>  <r_i_glide_ligand_efficiency_ln>  (149) 
-0.649436

>  <r_i_glide_gscore>  (149) 
-3.06117

>  <r_i_glide_lipo>  (149) 
-0.044327

>  <r_i_glide_hbond>  (149) 
-0.0532866

>  <r_i_glide_metal>  (149) 
-0

>  <r_i_glide_rewards>  (149) 
-0.5

>  <r_i_glide_evdw>  (149) 
-26.2689

>  <r_i_glide_ecoul>  (149) 
-7.38744

>  <r_i_glide_erotb>  (149) 
0

>  <r_i_glide_esite>  (149) 
-0.0419903

>  <r_i_glide_emodel>  (149) 
-44.5229

>  <r_i_glide_energy>  (149) 
-33.6563

>  <r_i_glide_einternal>  (149) 
1.75039

>  <r_i_glide_intrahb_reward>  (149) 
-0.5

>  <i_i_glide_confnum>  (149) 
1

>  <i_i_glide_posenum>  (149) 
27

>  <r_i_glide_eff_state_penalty>  (149) 
0

>  <ligand_id>  (149) 
53

>  <original_smiles>  (149) 
CC1CC2(C)C3C(=O)CC(O)C1CC1(C(C)CC24CC4)C(O)C2C(C)C(C)(C)C(O)C4(O)COC(O)(C3O)C1C24C

>  <smiles>  (149) 
[H]OC1([H])C2(O[H])OC([H])([H])C3(O[H])C([H])(O[H])C(C([H])([H])[H])(C([H])([H])[H])C([H])(C([H])([H])[H])C4([H])C([H])(O[H])C5(C([H])([H])C6([H])C([H])(O[H])C([H])([H])C(=O)C1([H])C(C([H])([H])[H])(C([H])([H])C6([H])C([H])([H])[H])C1(C([H])([H])C1([H])[H])C([H])([H])C5([H])C([H])([H])[H])C2([H])C43C([H])([H])[H]

$$$$
53:1:1
     RDKit          3D

 93 99  0  0  1  0  0  0  0  0999 V2000
    3.7227    5.5133    8.9668 C   0  0  0  0  0  0  0  0  0  0  0  0
    2.4764    4.8205    8.3610 C   0  0  2  0  0  0  0  0  0  0  0  0
    1.4089    4.6890    9.5056 C   0  0  0  0  0  0  0  0  0  0  0  0
    0.2474    3.6312    9.6137 C   0  0  2  0  0  0  0  0  0  0  0  0
   -0.1925    3.8706   11.0927 C   0  0  0  0  0  0  0  0  0  0  0  0
    0.7913    2.1383    9.5849 C   0  0  2  0  0  0  0  0  0  0  0  0
    2.2908    1.9301    9.9486 C   0  0  0  0  0  0  0  0  0  0  0  0
    2.7333    2.1938   11.0637 O   0  0  0  0  0  0  0  0  0  0  0  0
    3.2119    1.3794    8.8860 C   0  0  0  0  0  0  0  0  0  0  0  0
    3.7835    2.4951    8.0135 C   0  0  1  0  0  0  0  0  0  0  0  0
    4.4927    1.8736    6.9674 O   0  0  0  0  0  0  0  0  0  0  0  0
    2.8549    3.6141    7.4397 C   0  0  1  0  0  0  0  0  0  0  0  0
    2.0816    3.3975    6.0887 C   0  0  0  0  0  0  0  0  0  0  0  0
    0.7247    2.6128    5.7714 C   0  0  1  0  0  0  0  0  0  0  0  0
   -0.5026    3.5836    5.9568 C   0  0  1  0  0  0  0  0  0  0  0  0
   -1.9065    3.2948    5.3377 C   0  0  0  0  0  0  0  0  0  0  0  0
   -0.5711    4.4675    7.2478 C   0  0  0  0  0  0  0  0  0  0  0  0
   -0.9728    3.9594    8.6469 C   0  0  0  0  0  0  0  0  0  0  0  0
   -2.1980    4.7313    9.1802 C   0  0  0  0  0  0  0  0  0  0  0  0
   -2.3208    3.2803    8.8159 C   0  0  0  0  0  0  0  0  0  0  0  0
    0.8522    2.2967    4.2024 C   0  0  1  0  0  0  0  0  0  0  0  0
    1.5288    3.2860    3.4426 O   0  0  0  0  0  0  0  0  0  0  0  0
    1.5173    0.9089    4.1638 C   0  0  2  0  0  0  0  0  0  0  0  0
    1.8208    0.0667    2.9039 C   0  0  1  0  0  0  0  0  0  0  0  0
    2.3906    0.8754    1.7253 C   0  0  0  0  0  0  0  0  0  0  0  0
    2.7105   -1.1852    3.3242 C   0  0  0  0  0  0  0  0  0  0  0  0
    2.2601   -2.3898    2.4666 C   0  0  0  0  0  0  0  0  0  0  0  0
    4.2155   -0.9626    2.9921 C   0  0  0  0  0  0  0  0  0  0  0  0
    2.5762   -1.5701    4.8663 C   0  0  1  0  0  0  0  0  0  0  0  0
    3.5566   -0.9217    5.6579 O   0  0  0  0  0  0  0  0  0  0  0  0
    1.1725   -1.2845    5.4919 C   0  0  1  0  0  0  0  0  0  0  0  0
    0.3740   -2.3298    4.9532 O   0  0  0  0  0  0  0  0  0  0  0  0
    1.0210   -1.5009    7.0162 C   0  0  0  0  0  0  0  0  0  0  0  0
   -0.1796   -0.8394    7.4608 O   0  0  0  0  0  0  0  0  0  0  0  0
   -0.1907    0.5760    7.5358 C   0  0  1  0  0  0  0  0  0  0  0  0
   -1.5039    0.9660    7.2595 O   0  0  0  0  0  0  0  0  0  0  0  0
    0.0027    0.8897    9.0754 C   0  0  1  0  0  0  0  0  0  0  0  0
    0.4839   -0.2438    9.8079 O   0  0  0  0  0  0  0  0  0  0  0  0
    0.7350    1.1252    6.3641 C   0  0  1  0  0  0  0  0  0  0  0  0
    0.6105    0.1386    5.1488 C   0  0  1  0  0  0  0  0  0  0  0  0
   -0.8571   -0.0245    4.5884 C   0  0  0  0  0  0  0  0  0  0  0  0
    4.2146    4.8909    9.7134 H   0  0  0  0  0  0  0  0  0  0  0  0
    3.4354    6.4393    9.4663 H   0  0  0  0  0  0  0  0  0  0  0  0
    4.4537    5.7787    8.2071 H   0  0  0  0  0  0  0  0  0  0  0  0
    2.1408    5.6070    7.6896 H   0  0  0  0  0  0  0  0  0  0  0  0
    1.9994    4.6364   10.4314 H   0  0  0  0  0  0  0  0  0  0  0  0
    0.9517    5.6812    9.5900 H   0  0  0  0  0  0  0  0  0  0  0  0
   -1.0711    3.2861   11.3578 H   0  0  0  0  0  0  0  0  0  0  0  0
   -0.4142    4.9247   11.2904 H   0  0  0  0  0  0  0  0  0  0  0  0
    0.5736    3.5841   11.8086 H   0  0  0  0  0  0  0  0  0  0  0  0
    0.5237    1.8809   10.6114 H   0  0  0  0  0  0  0  0  0  0  0  0
    4.0262    0.8659    9.3928 H   0  0  0  0  0  0  0  0  0  0  0  0
    2.6926    0.6032    8.3505 H   0  0  0  0  0  0  0  0  0  0  0  0
    4.5561    2.9750    8.6111 H   0  0  0  0  0  0  0  0  0  0  0  0
    3.8620    1.5225    6.3733 H   0  0  0  0  0  0  0  0  0  0  0  0
    3.6638    4.1447    6.9407 H   0  0  0  0  0  0  0  0  0  0  0  0
    1.9546    4.3989    5.6737 H   0  0  0  0  0  0  0  0  0  0  0  0
    2.8527    2.9885    5.4378 H   0  0  0  0  0  0  0  0  0  0  0  0
   -0.2194    4.3701    5.2540 H   0  0  0  0  0  0  0  0  0  0  0  0
   -2.4638    2.4672    5.7541 H   0  0  0  0  0  0  0  0  0  0  0  0
   -1.8670    3.1373    4.2667 H   0  0  0  0  0  0  0  0  0  0  0  0
   -2.5704    4.1478    5.4496 H   0  0  0  0  0  0  0  0  0  0  0  0
    0.2509    5.1620    7.2811 H   0  0  0  0  0  0  0  0  0  0  0  0
   -1.3386    5.2015    6.9894 H   0  0  0  0  0  0  0  0  0  0  0  0
   -2.3674    4.9005   10.2398 H   0  0  0  0  0  0  0  0  0  0  0  0
   -2.7338    5.4200    8.5102 H   0  0  0  0  0  0  0  0  0  0  0  0
   -2.9415    3.0555    7.9425 H   0  0  0  0  0  0  0  0  0  0  0  0
   -2.4598    2.5926    9.6483 H   0  0  0  0  0  0  0  0  0  0  0  0
   -0.0988    2.2324    3.6877 H   0  0  0  0  0  0  0  0  0  0  0  0
    1.1265    3.3565    2.5869 H   0  0  0  0  0  0  0  0  0  0  0  0
    2.5029    1.0785    4.5811 H   0  0  0  0  0  0  0  0  0  0  0  0
    0.8774   -0.3117    2.5164 H   0  0  0  0  0  0  0  0  0  0  0  0
    3.2960    1.4120    1.9926 H   0  0  0  0  0  0  0  0  0  0  0  0
    1.6624    1.5964    1.3627 H   0  0  0  0  0  0  0  0  0  0  0  0
    2.6174    0.2142    0.8882 H   0  0  0  0  0  0  0  0  0  0  0  0
    2.7820   -3.2951    2.7636 H   0  0  0  0  0  0  0  0  0  0  0  0
    2.4582   -2.2147    1.4127 H   0  0  0  0  0  0  0  0  0  0  0  0
    1.1944   -2.5723    2.5603 H   0  0  0  0  0  0  0  0  0  0  0  0
    4.8242   -1.7827    3.3682 H   0  0  0  0  0  0  0  0  0  0  0  0
    4.6041   -0.0384    3.4270 H   0  0  0  0  0  0  0  0  0  0  0  0
    4.3934   -0.9118    1.9191 H   0  0  0  0  0  0  0  0  0  0  0  0
    2.8035   -2.6267    4.9881 H   0  0  0  0  0  0  0  0  0  0  0  0
    3.4896   -0.0066    5.4858 H   0  0  0  0  0  0  0  0  0  0  0  0
    0.4238   -2.2665    4.0180 H   0  0  0  0  0  0  0  0  0  0  0  0
    0.9725   -2.5621    7.2536 H   0  0  0  0  0  0  0  0  0  0  0  0
    1.8804   -1.1242    7.5716 H   0  0  0  0  0  0  0  0  0  0  0  0
   -1.5385    1.9028    7.1658 H   0  0  0  0  0  0  0  0  0  0  0  0
   -0.9951    0.9516    9.5083 H   0  0  0  0  0  0  0  0  0  0  0  0
    0.2788   -0.1091   10.7210 H   0  0  0  0  0  0  0  0  0  0  0  0
    1.7491    0.9908    6.7006 H   0  0  0  0  0  0  0  0  0  0  0  0
   -1.4628   -0.6533    5.2350 H   0  0  0  0  0  0  0  0  0  0  0  0
   -0.8880   -0.5016    3.6161 H   0  0  0  0  0  0  0  0  0  0  0  0
   -1.4221    0.8892    4.4906 H   0  0  0  0  0  0  0  0  0  0  0  0
  1  2  1  0
  1 42  1  0
  1 43  1  0
  1 44  1  0
  2 12  1  0
  2  3  1  0
  2 45  1  6
  3  4  1  0
  3 46  1  0
  3 47  1  0
  4 18  1  0
  4  5  1  1
  4  6  1  0
  5 48  1  0
  5 49  1  0
  5 50  1  0
  6 37  1  0
  6  7  1  0
  6 51  1  1
  7  8  2  0
  7  9  1  0
  9 10  1  0
  9 52  1  0
  9 53  1  0
 10 11  1  0
 10 12  1  0
 10 54  1  1
 11 55  1  0
 12 13  1  0
 12 56  1  6
 14 13  1  1
 13 57  1  0
 13 58  1  0
 14 39  1  0
 14 15  1  0
 14 21  1  0
 15 16  1  0
 15 17  1  0
 15 59  1  6
 16 60  1  0
 16 61  1  0
 16 62  1  0
 17 18  1  0
 17 63  1  0
 17 64  1  0
 18 20  1  0
 18 19  1  0
 19 20  1  0
 19 65  1  0
 19 66  1  0
 20 67  1  0
 20 68  1  0
 21 22  1  0
 21 23  1  0
 21 69  1  6
 22 70  1  0
 23 40  1  0
 23 24  1  0
 23 71  1  1
 24 25  1  0
 24 26  1  0
 24 72  1  6
 25 73  1  0
 25 74  1  0
 25 75  1  0
 26 27  1  0
 26 28  1  0
 26 29  1  0
 27 76  1  0
 27 77  1  0
 27 78  1  0
 28 79  1  0
 28 80  1  0
 28 81  1  0
 29 30  1  0
 29 31  1  0
 29 82  1  6
 30 83  1  0
 31 40  1  0
 31 32  1  6
 31 33  1  0
 32 84  1  0
 33 34  1  0
 33 85  1  0
 33 86  1  0
 34 35  1  0
 35 36  1  6
 35 37  1  0
 35 39  1  0
 36 87  1  0
 37 38  1  0
 37 88  1  1
 38 89  1  0
 39 40  1  0
 39 90  1  1
 40 41  1  6
 41 91  1  0
 41 92  1  0
 41 93  1  0
M  END
>  <i_m_ct_stereo_status>  (150) 
1

>  <s_m_source_file>  (150) 
/var/tmp/pbs.5076255.sched01/tmpjtt61wjg/4457_394l_.sdf

>  <i_m_source_file_index>  (150) 
29

>  <i_lp_mmshare_version>  (150) 
48012

>  <i_f3d_flags>  (150) 
0

>  <s_epik_input>  (150) 
Tz1DMVtDSDJdW0NAQEhdKFtPSF0pW0NAQEhdKFtDSDJdMilbQ0BIXShbQ0gzXSlbQ0gyXVtDQEBdKFtDSDNdKShDMyhbQ0gyXVtDSDJdMylbQ0gyXVtDQEBIXTRbQ0gzXSlbQ0BASF0xW0NASF0oW09IXSlbQ0BAXShbT0hdKShbQ0BASF01W0NAXTI0NilPW0NIMl1bQ0BAXTcoW09IXSlbQ0BdNShbQ0gzXSlbQ0BIXShbQ0BASF02W09IXSlbQ0BASF0oW0NIM10pQyhbQ0gzXSkoW0NIM10pW0NASF03W09IXQ==

>  <s_epik_cmdline>  (150) 
J2VwaWtfcHl0aG9uJywgJy1waHQnLCAnMi4wJywgJy1waCcsICc3LjAnLCAnLXRuJywgJzgnLCAnLW1hJywgJzIwMCcsICctaW1hZScsICc8aW5maWxlLm1hZT4nLCAnLW9tYWUnLCAnPG91dGZpbGUubWFlPic=

>  <r_lp_tautomer_probability>  (150) 
1

>  <r_epik_Ionization_Penalty>  (150) 
9.7707e-07

>  <r_epik_Ionization_Penalty_Charging>  (150) 
0

>  <r_epik_Ionization_Penalty_Neutral>  (150) 
9.7707e-07

>  <r_epik_State_Penalty>  (150) 
-0

>  <r_epik_Charging_Adjusted_Penalty>  (150) 
0

>  <i_epik_Tot_Q>  (150) 
0

>  <i_epik_Tot_abs_Q>  (150) 
0

>  <s_lp_Force_Field>  (150) 
OPLS3e

>  <r_lp_Energy>  (150) 
207.881

>  <b_lp_Chiralities_Consistent>  (150) 
1

>  <s_lp_Variant>  (150) 
53:0-2

>  <s_i_glide_gridfile>  (150) 
pfpi4k_grid

>  <i_i_glide_lignum>  (150) 
29

>  <i_i_glide_rotatable_bonds>  (150) 
6

>  <r_i_docking_score>  (150) 
-2.62607

>  <r_i_glide_ligand_efficiency>  (150) 
-0.0640506

>  <r_i_glide_ligand_efficiency_sa>  (150) 
-0.22086

>  <r_i_glide_ligand_efficiency_ln>  (150) 
-0.55713

>  <r_i_glide_gscore>  (150) 
-2.62607

>  <r_i_glide_lipo>  (150) 
-0.0380323

>  <r_i_glide_hbond>  (150) 
-0.0487291

>  <r_i_glide_metal>  (150) 
-0

>  <r_i_glide_rewards>  (150) 
0

>  <r_i_glide_evdw>  (150) 
-26.7517

>  <r_i_glide_ecoul>  (150) 
-7.75258

>  <r_i_glide_erotb>  (150) 
0

>  <r_i_glide_esite>  (150) 
-0.0388419

>  <r_i_glide_emodel>  (150) 
-38.7027

>  <r_i_glide_energy>  (150) 
-34.5042

>  <r_i_glide_einternal>  (150) 
3.15622

>  <r_i_glide_intrahb_reward>  (150) 
-0

>  <i_i_glide_confnum>  (150) 
1

>  <i_i_glide_posenum>  (150) 
36

>  <r_i_glide_eff_state_penalty>  (150) 
0

>  <ligand_id>  (150) 
53

>  <original_smiles>  (150) 
CC1CC2(C)C3C(=O)CC(O)C1CC1(C(C)CC24CC4)C(O)C2C(C)C(C)(C)C(O)C4(O)COC(O)(C3O)C1C24C

>  <smiles>  (150) 
[H]OC1([H])C2(O[H])OC([H])([H])C3(O[H])C([H])(O[H])C(C([H])([H])[H])(C([H])([H])[H])C([H])(C([H])([H])[H])C4([H])C([H])(O[H])C5(C([H])([H])C6([H])C([H])(O[H])C([H])([H])C(=O)C1([H])C(C([H])([H])[H])(C([H])([H])C6([H])C([H])([H])[H])C1(C([H])([H])C1([H])[H])C([H])([H])C5([H])C([H])([H])[H])C2([H])C43C([H])([H])[H]

$$$$
53:1:2
     RDKit          3D

 93 99  0  0  1  0  0  0  0  0999 V2000
    3.5873    5.5541    9.1700 C   0  0  0  0  0  0  0  0  0  0  0  0
    2.3421    4.8469    8.5771 C   0  0  2  0  0  0  0  0  0  0  0  0
    1.3269    4.6283    9.7539 C   0  0  0  0  0  0  0  0  0  0  0  0
    0.2117    3.5274    9.8565 C   0  0  2  0  0  0  0  0  0  0  0  0
   -0.1872    3.6799   11.3606 C   0  0  0  0  0  0  0  0  0  0  0  0
    0.7951    2.0523    9.7446 C   0  0  2  0  0  0  0  0  0  0  0  0
    2.3117    1.8801   10.0295 C   0  0  0  0  0  0  0  0  0  0  0  0
    2.7937    2.1065   11.1367 O   0  0  0  0  0  0  0  0  0  0  0  0
    3.2049    1.4154    8.9101 C   0  0  0  0  0  0  0  0  0  0  0  0
    3.7093    2.5887    8.0695 C   0  0  1  0  0  0  0  0  0  0  0  0
    4.3916    2.0297    6.9667 O   0  0  0  0  0  0  0  0  0  0  0  0
    2.7249    3.7032    7.5848 C   0  0  1  0  0  0  0  0  0  0  0  0
    1.9086    3.5277    6.2508 C   0  0  0  0  0  0  0  0  0  0  0  0
    0.5634    2.7174    5.9500 C   0  0  1  0  0  0  0  0  0  0  0  0
   -0.6898    3.6300    6.2287 C   0  0  1  0  0  0  0  0  0  0  0  0
   -2.1076    3.3154    5.6446 C   0  0  0  0  0  0  0  0  0  0  0  0
   -0.7331    4.4480    7.5659 C   0  0  0  0  0  0  0  0  0  0  0  0
   -1.0628    3.8559    8.9413 C   0  0  0  0  0  0  0  0  0  0  0  0
   -2.2892    4.5555    9.5722 C   0  0  0  0  0  0  0  0  0  0  0  0
   -2.3755    3.1304    9.1448 C   0  0  0  0  0  0  0  0  0  0  0  0
    0.6419    2.4768    4.3599 C   0  0  1  0  0  0  0  0  0  0  0  0
    1.2585    3.5229    3.6222 O   0  0  0  0  0  0  0  0  0  0  0  0
    1.3453    1.1147    4.2275 C   0  0  2  0  0  0  0  0  0  0  0  0
    1.6244    0.3406    2.9237 C   0  0  1  0  0  0  0  0  0  0  0  0
    2.1158    1.2261    1.7663 C   0  0  0  0  0  0  0  0  0  0  0  0
    2.5703   -0.8912    3.2494 C   0  0  0  0  0  0  0  0  0  0  0  0
    2.1245   -2.0675    2.3457 C   0  0  0  0  0  0  0  0  0  0  0  0
    4.0509   -0.6045    2.8666 C   0  0  0  0  0  0  0  0  0  0  0  0
    2.5068   -1.3589    4.7728 C   0  0  1  0  0  0  0  0  0  0  0  0
    3.4858   -0.7004    5.5609 O   0  0  0  0  0  0  0  0  0  0  0  0
    1.1213   -1.1497    5.4556 C   0  0  1  0  0  0  0  0  0  0  0  0
    0.3354   -2.1958    4.8934 O   0  0  0  0  0  0  0  0  0  0  0  0
    1.0335   -1.4404    6.9703 C   0  0  0  0  0  0  0  0  0  0  0  0
   -0.1614   -0.8329    7.4828 O   0  0  0  0  0  0  0  0  0  0  0  0
   -0.2100    0.5703    7.6329 C   0  0  1  0  0  0  0  0  0  0  0  0
   -1.5300    0.9368    7.4078 O   0  0  0  0  0  0  0  0  0  0  0  0
    0.0258    0.8125    9.1880 C   0  0  1  0  0  0  0  0  0  0  0  0
    0.5186   -0.3635    9.8541 O   0  0  0  0  0  0  0  0  0  0  0  0
    0.6614    1.1998    6.4562 C   0  0  1  0  0  0  0  0  0  0  0  0
    0.5029    0.2662    5.2048 C   0  0  1  0  0  0  0  0  0  0  0  0
   -0.9837    0.0839    4.6931 C   0  0  0  0  0  0  0  0  0  0  0  0
    4.1310    4.9135    9.8652 H   0  0  0  0  0  0  0  0  0  0  0  0
    3.2941    6.4437    9.7248 H   0  0  0  0  0  0  0  0  0  0  0  0
    4.2795    5.8789    8.3976 H   0  0  0  0  0  0  0  0  0  0  0  0
    1.9561    5.6525    7.9598 H   0  0  0  0  0  0  0  0  0  0  0  0
    1.9525    4.5478   10.6554 H   0  0  0  0  0  0  0  0  0  0  0  0
    0.8398    5.5967    9.9040 H   0  0  0  0  0  0  0  0  0  0  0  0
   -1.0404    3.0496   11.6296 H   0  0  0  0  0  0  0  0  0  0  0  0
   -0.4347    4.7173   11.6210 H   0  0  0  0  0  0  0  0  0  0  0  0
    0.6178    3.3838   12.0336 H   0  0  0  0  0  0  0  0  0  0  0  0
    0.5699    1.7289   10.7597 H   0  0  0  0  0  0  0  0  0  0  0  0
    4.0585    0.9081    9.3555 H   0  0  0  0  0  0  0  0  0  0  0  0
    2.6956    0.6493    8.3487 H   0  0  0  0  0  0  0  0  0  0  0  0
    4.4911    3.0683    8.6571 H   0  0  0  0  0  0  0  0  0  0  0  0
    3.7617    1.6326    6.4163 H   0  0  0  0  0  0  0  0  0  0  0  0
    3.4974    4.2845    7.0813 H   0  0  0  0  0  0  0  0  0  0  0  0
    1.7322    4.5453    5.8932 H   0  0  0  0  0  0  0  0  0  0  0  0
    2.6682    3.1745    5.5557 H   0  0  0  0  0  0  0  0  0  0  0  0
   -0.4596    4.4595    5.5531 H   0  0  0  0  0  0  0  0  0  0  0  0
   -2.6228    2.4476    6.0347 H   0  0  0  0  0  0  0  0  0  0  0  0
   -2.1066    3.2140    4.5661 H   0  0  0  0  0  0  0  0  0  0  0  0
   -2.8022    4.1235    5.8408 H   0  0  0  0  0  0  0  0  0  0  0  0
    0.0669    5.1618    7.6007 H   0  0  0  0  0  0  0  0  0  0  0  0
   -1.5259    5.1694    7.3668 H   0  0  0  0  0  0  0  0  0  0  0  0
   -2.4174    4.6762   10.6402 H   0  0  0  0  0  0  0  0  0  0  0  0
   -2.8650    5.2607    8.9626 H   0  0  0  0  0  0  0  0  0  0  0  0
   -3.0055    2.9213    8.2833 H   0  0  0  0  0  0  0  0  0  0  0  0
   -2.4523    2.3960    9.9345 H   0  0  0  0  0  0  0  0  0  0  0  0
   -0.3236    2.4082    3.8784 H   0  0  0  0  0  0  0  0  0  0  0  0
    0.9727    3.4893    2.7223 H   0  0  0  0  0  0  0  0  0  0  0  0
    2.3385    1.2940    4.6163 H   0  0  0  0  0  0  0  0  0  0  0  0
    0.6783   -0.0455    2.5528 H   0  0  0  0  0  0  0  0  0  0  0  0
    3.0102    1.7861    2.0372 H   0  0  0  0  0  0  0  0  0  0  0  0
    1.3514    1.9367    1.4613 H   0  0  0  0  0  0  0  0  0  0  0  0
    2.3397    0.6074    0.8956 H   0  0  0  0  0  0  0  0  0  0  0  0
    2.6842   -2.9742    2.5726 H   0  0  0  0  0  0  0  0  0  0  0  0
    2.2742   -1.8379    1.2917 H   0  0  0  0  0  0  0  0  0  0  0  0
    1.0679   -2.2894    2.4710 H   0  0  0  0  0  0  0  0  0  0  0  0
    4.7020   -1.4207    3.1737 H   0  0  0  0  0  0  0  0  0  0  0  0
    4.4294    0.3101    3.3312 H   0  0  0  0  0  0  0  0  0  0  0  0
    4.1886   -0.4933    1.7891 H   0  0  0  0  0  0  0  0  0  0  0  0
    2.7813   -2.4080    4.8286 H   0  0  0  0  0  0  0  0  0  0  0  0
    3.4214    0.2061    5.3850 H   0  0  0  0  0  0  0  0  0  0  0  0
    0.3746   -2.1085    3.9641 H   0  0  0  0  0  0  0  0  0  0  0  0
    1.0236   -2.5141    7.1616 H   0  0  0  0  0  0  0  0  0  0  0  0
    1.9037   -1.0687    7.5139 H   0  0  0  0  0  0  0  0  0  0  0  0
   -1.5937    1.2514    6.5118 H   0  0  0  0  0  0  0  0  0  0  0  0
   -0.9614    0.8305    9.6400 H   0  0  0  0  0  0  0  0  0  0  0  0
    1.4101   -0.5178    9.6408 H   0  0  0  0  0  0  0  0  0  0  0  0
    1.6851    1.0885    6.7550 H   0  0  0  0  0  0  0  0  0  0  0  0
   -1.5437   -0.5981    5.3317 H   0  0  0  0  0  0  0  0  0  0  0  0
   -1.0342   -0.3503    3.7042 H   0  0  0  0  0  0  0  0  0  0  0  0
   -1.5824    0.9796    4.6504 H   0  0  0  0  0  0  0  0  0  0  0  0
  1  2  1  0
  1 42  1  0
  1 43  1  0
  1 44  1  0
  2 12  1  0
  2  3  1  0
  2 45  1  6
  3  4  1  0
  3 46  1  0
  3 47  1  0
  4 18  1  0
  4  5  1  1
  4  6  1  0
  5 48  1  0
  5 49  1  0
  5 50  1  0
  6 37  1  0
  6  7  1  0
  6 51  1  1
  7  8  2  0
  7  9  1  0
  9 10  1  0
  9 52  1  0
  9 53  1  0
 10 11  1  0
 10 12  1  0
 10 54  1  1
 11 55  1  0
 12 13  1  0
 12 56  1  6
 14 13  1  1
 13 57  1  0
 13 58  1  0
 14 39  1  0
 14 15  1  0
 14 21  1  0
 15 16  1  0
 15 17  1  0
 15 59  1  6
 16 60  1  0
 16 61  1  0
 16 62  1  0
 17 18  1  0
 17 63  1  0
 17 64  1  0
 18 20  1  0
 18 19  1  0
 19 20  1  0
 19 65  1  0
 19 66  1  0
 20 67  1  0
 20 68  1  0
 21 22  1  0
 21 23  1  0
 21 69  1  6
 22 70  1  0
 23 40  1  0
 23 24  1  0
 23 71  1  1
 24 25  1  0
 24 26  1  0
 24 72  1  6
 25 73  1  0
 25 74  1  0
 25 75  1  0
 26 27  1  0
 26 28  1  0
 26 29  1  0
 27 76  1  0
 27 77  1  0
 27 78  1  0
 28 79  1  0
 28 80  1  0
 28 81  1  0
 29 30  1  0
 29 31  1  0
 29 82  1  6
 30 83  1  0
 31 40  1  0
 31 32  1  6
 31 33  1  0
 32 84  1  0
 33 34  1  0
 33 85  1  0
 33 86  1  0
 34 35  1  0
 35 36  1  6
 35 37  1  0
 35 39  1  0
 36 87  1  0
 37 38  1  0
 37 88  1  1
 38 89  1  0
 39 40  1  0
 39 90  1  1
 40 41  1  6
 41 91  1  0
 41 92  1  0
 41 93  1  0
M  END
>  <i_m_ct_stereo_status>  (151) 
1

>  <s_m_source_file>  (151) 
/var/tmp/pbs.5076255.sched01/tmpjtt61wjg/4457_394l_.sdf

>  <i_m_source_file_index>  (151) 
29

>  <i_lp_mmshare_version>  (151) 
48012

>  <i_f3d_flags>  (151) 
0

>  <s_epik_input>  (151) 
Tz1DMVtDSDJdW0NAQEhdKFtPSF0pW0NAQEhdKFtDSDJdMilbQ0BIXShbQ0gzXSlbQ0gyXVtDQEBdKFtDSDNdKShDMyhbQ0gyXVtDSDJdMylbQ0gyXVtDQEBIXTRbQ0gzXSlbQ0BASF0xW0NASF0oW09IXSlbQ0BAXShbT0hdKShbQ0BASF01W0NAXTI0NilPW0NIMl1bQ0BAXTcoW09IXSlbQ0BdNShbQ0gzXSlbQ0BIXShbQ0BASF02W09IXSlbQ0BASF0oW0NIM10pQyhbQ0gzXSkoW0NIM10pW0NASF03W09IXQ==

>  <s_epik_cmdline>  (151) 
J2VwaWtfcHl0aG9uJywgJy1waHQnLCAnMi4wJywgJy1waCcsICc3LjAnLCAnLXRuJywgJzgnLCAnLW1hJywgJzIwMCcsICctaW1hZScsICc8aW5maWxlLm1hZT4nLCAnLW9tYWUnLCAnPG91dGZpbGUubWFlPic=

>  <r_lp_tautomer_probability>  (151) 
1

>  <r_epik_Ionization_Penalty>  (151) 
9.7707e-07

>  <r_epik_Ionization_Penalty_Charging>  (151) 
0

>  <r_epik_Ionization_Penalty_Neutral>  (151) 
9.7707e-07

>  <r_epik_State_Penalty>  (151) 
-0

>  <r_epik_Charging_Adjusted_Penalty>  (151) 
0

>  <i_epik_Tot_Q>  (151) 
0

>  <i_epik_Tot_abs_Q>  (151) 
0

>  <s_lp_Force_Field>  (151) 
OPLS3e

>  <r_lp_Energy>  (151) 
207.881

>  <b_lp_Chiralities_Consistent>  (151) 
1

>  <s_lp_Variant>  (151) 
53:0-2

>  <s_i_glide_gridfile>  (151) 
pfpi4k_grid

>  <i_i_glide_lignum>  (151) 
29

>  <i_i_glide_rotatable_bonds>  (151) 
6

>  <r_i_docking_score>  (151) 
-2.55889

>  <r_i_glide_ligand_efficiency>  (151) 
-0.062412

>  <r_i_glide_ligand_efficiency_sa>  (151) 
-0.21521

>  <r_i_glide_ligand_efficiency_ln>  (151) 
-0.542877

>  <r_i_glide_gscore>  (151) 
-2.55889

>  <r_i_glide_lipo>  (151) 
-0.0340575

>  <r_i_glide_hbond>  (151) 
-0.0495536

>  <r_i_glide_metal>  (151) 
-0

>  <r_i_glide_rewards>  (151) 
0

>  <r_i_glide_evdw>  (151) 
-26.2838

>  <r_i_glide_ecoul>  (151) 
-7.47106

>  <r_i_glide_erotb>  (151) 
0

>  <r_i_glide_esite>  (151) 
-0.0404274

>  <r_i_glide_emodel>  (151) 
-38.1957

>  <r_i_glide_energy>  (151) 
-33.7549

>  <r_i_glide_einternal>  (151) 
1.78167

>  <r_i_glide_intrahb_reward>  (151) 
-0

>  <i_i_glide_confnum>  (151) 
2

>  <i_i_glide_posenum>  (151) 
31

>  <r_i_glide_eff_state_penalty>  (151) 
0

>  <ligand_id>  (151) 
53

>  <original_smiles>  (151) 
CC1CC2(C)C3C(=O)CC(O)C1CC1(C(C)CC24CC4)C(O)C2C(C)C(C)(C)C(O)C4(O)COC(O)(C3O)C1C24C

>  <smiles>  (151) 
[H]OC1([H])C2(O[H])OC([H])([H])C3(O[H])C([H])(O[H])C(C([H])([H])[H])(C([H])([H])[H])C([H])(C([H])([H])[H])C4([H])C([H])(O[H])C5(C([H])([H])C6([H])C([H])(O[H])C([H])([H])C(=O)C1([H])C(C([H])([H])[H])(C([H])([H])C6([H])C([H])([H])[H])C1(C([H])([H])C1([H])[H])C([H])([H])C5([H])C([H])([H])[H])C2([H])C43C([H])([H])[H]

$$$$
54:0:0
     RDKit          3D

 57 60  0  0  1  0  0  0  0  0999 V2000
    2.5666   -3.1265   -3.3834 C   0  0  0  0  0  0  0  0  0  0  0  0
    3.1625   -2.7024   -2.0523 C   0  0  0  0  0  0  0  0  0  0  0  0
    3.2889   -3.5233   -0.9894 C   0  0  0  0  0  0  0  0  0  0  0  0
    3.8623   -3.0761    0.3549 C   0  0  2  0  0  0  0  0  0  0  0  0
    3.1724   -3.8514    1.4818 C   0  0  0  0  0  0  0  0  0  0  0  0
    3.5169   -3.3080    2.8683 C   0  0  0  0  0  0  0  0  0  0  0  0
    3.1188   -1.8156    3.0580 C   0  0  1  0  0  0  0  0  0  0  0  0
    3.3392   -1.3326    4.5500 C   0  0  0  0  0  0  0  0  0  0  0  0
    2.5675   -0.0276    4.8797 C   0  0  0  0  0  0  0  0  0  0  0  0
    2.8043   -2.3660    5.5713 C   0  0  0  0  0  0  0  0  0  0  0  0
    4.8482   -1.1342    4.8159 C   0  0  0  0  0  0  0  0  0  0  0  0
    5.5326   -0.2393    3.7751 C   0  0  0  0  0  0  0  0  0  0  0  0
    5.3026   -0.7443    2.3444 C   0  0  0  0  0  0  0  0  0  0  0  0
    3.8164   -0.9202    1.9604 C   0  0  2  0  0  0  0  0  0  0  0  0
    3.1114    0.4661    1.8759 C   0  0  0  0  0  0  0  0  0  0  0  0
    3.6540   -1.5622    0.5284 C   0  0  1  0  0  0  0  0  0  0  0  0
    4.4077   -0.9374   -0.6655 C   0  0  2  0  0  0  0  0  0  0  0  0
    3.6785   -1.2742   -1.9933 C   0  0  0  0  0  0  0  0  0  0  0  0
    5.7925   -1.3104   -0.6699 O   0  0  0  0  0  0  0  0  0  0  0  0
    6.1185   -2.6574   -0.4667 C   0  0  0  0  0  0  0  0  0  0  0  0
    6.2198   -3.3957   -1.8185 C   0  0  0  0  0  0  0  0  0  0  0  0
    7.5062   -2.6625    0.1951 C   0  0  0  0  0  0  0  0  0  0  0  0
    5.2652   -3.3438    0.4185 O   0  0  0  0  0  0  0  0  0  0  0  0
    3.3035   -3.0538   -4.1851 H   0  0  0  0  0  0  0  0  0  0  0  0
    1.7117   -2.5051   -3.6505 H   0  0  0  0  0  0  0  0  0  0  0  0
    2.2145   -4.1569   -3.3500 H   0  0  0  0  0  0  0  0  0  0  0  0
    2.9339   -4.5435   -1.0425 H   0  0  0  0  0  0  0  0  0  0  0  0
    2.0910   -3.8140    1.3491 H   0  0  0  0  0  0  0  0  0  0  0  0
    3.4558   -4.9028    1.4218 H   0  0  0  0  0  0  0  0  0  0  0  0
    2.9954   -3.9488    3.5739 H   0  0  0  0  0  0  0  0  0  0  0  0
    4.5817   -3.4521    3.0538 H   0  0  0  0  0  0  0  0  0  0  0  0
    2.0425   -1.7843    2.8772 H   0  0  0  0  0  0  0  0  0  0  0  0
    2.4730    0.1281    5.9549 H   0  0  0  0  0  0  0  0  0  0  0  0
    1.5587   -0.0388    4.4639 H   0  0  0  0  0  0  0  0  0  0  0  0
    3.0693    0.8644    4.5179 H   0  0  0  0  0  0  0  0  0  0  0  0
    2.8183   -1.9681    6.5883 H   0  0  0  0  0  0  0  0  0  0  0  0
    3.4186   -3.2665    5.6008 H   0  0  0  0  0  0  0  0  0  0  0  0
    1.7758   -2.6567    5.3445 H   0  0  0  0  0  0  0  0  0  0  0  0
    4.9987   -0.7178    5.8118 H   0  0  0  0  0  0  0  0  0  0  0  0
    5.3477   -2.1037    4.8237 H   0  0  0  0  0  0  0  0  0  0  0  0
    5.2086    0.7925    3.8872 H   0  0  0  0  0  0  0  0  0  0  0  0
    6.6040   -0.2250    3.9669 H   0  0  0  0  0  0  0  0  0  0  0  0
    5.8120   -0.0949    1.6340 H   0  0  0  0  0  0  0  0  0  0  0  0
    5.7842   -1.7134    2.2823 H   0  0  0  0  0  0  0  0  0  0  0  0
    3.1389    0.9072    0.8846 H   0  0  0  0  0  0  0  0  0  0  0  0
    3.5684    1.2212    2.5078 H   0  0  0  0  0  0  0  0  0  0  0  0
    2.0532    0.4049    2.1292 H   0  0  0  0  0  0  0  0  0  0  0  0
    2.6027   -1.4025    0.3290 H   0  0  0  0  0  0  0  0  0  0  0  0
    4.4164    0.1453   -0.5826 H   0  0  0  0  0  0  0  0  0  0  0  0
    4.3130   -1.0551   -2.8510 H   0  0  0  0  0  0  0  0  0  0  0  0
    2.7835   -0.6523   -2.0950 H   0  0  0  0  0  0  0  0  0  0  0  0
    5.6801   -2.8839   -2.6071 H   0  0  0  0  0  0  0  0  0  0  0  0
    5.8195   -4.4045   -1.7105 H   0  0  0  0  0  0  0  0  0  0  0  0
    7.2574   -3.4528   -2.1429 H   0  0  0  0  0  0  0  0  0  0  0  0
    7.4861   -2.0744    1.1069 H   0  0  0  0  0  0  0  0  0  0  0  0
    8.2490   -2.2243   -0.4730 H   0  0  0  0  0  0  0  0  0  0  0  0
    7.7983   -3.6841    0.4379 H   0  0  0  0  0  0  0  0  0  0  0  0
  1  2  1  0
  1 24  1  0
  1 25  1  0
  1 26  1  0
  2 18  1  0
  2  3  2  0
  3  4  1  0
  3 27  1  0
  4 16  1  0
  4 23  1  6
  4  5  1  0
  5  6  1  0
  5 28  1  0
  5 29  1  0
  6  7  1  0
  6 30  1  0
  6 31  1  0
  7 14  1  0
  7  8  1  0
  7 32  1  6
  8  9  1  0
  8 10  1  0
  8 11  1  0
  9 33  1  0
  9 34  1  0
  9 35  1  0
 10 36  1  0
 10 37  1  0
 10 38  1  0
 11 12  1  0
 11 39  1  0
 11 40  1  0
 12 13  1  0
 12 41  1  0
 12 42  1  0
 13 14  1  0
 13 43  1  0
 13 44  1  0
 14 15  1  6
 14 16  1  0
 15 45  1  0
 15 46  1  0
 15 47  1  0
 16 17  1  0
 16 48  1  6
 17 18  1  0
 17 19  1  0
 17 49  1  1
 18 50  1  0
 18 51  1  0
 19 20  1  0
 20 21  1  0
 20 22  1  0
 20 23  1  0
 21 52  1  0
 21 53  1  0
 21 54  1  0
 22 55  1  0
 22 56  1  0
 22 57  1  0
M  END
>  <i_m_ct_stereo_status>  (152) 
1

>  <s_m_source_file>  (152) 
/var/tmp/pbs.5076255.sched01/tmpjtt61wjg/4457_394l_.sdf

>  <i_m_source_file_index>  (152) 
30

>  <i_lp_mmshare_version>  (152) 
48012

>  <i_f3d_flags>  (152) 
0

>  <s_epik_input>  (152) 
W0NIM11DKD1bQ0hdMSlbQ0gyXVtDQEhdKE9DKE8yKShbQ0gzXSlbQ0gzXSlbQ0BASF0oW0NAQF0xMjMpW0NAQF00KFtDSDNdKVtDQEBIXShbQ0gyXVtDSDJdMylDKFtDSDNdKShbQ0gzXSlbQ0gyXVtDSDJdW0NIMl00

>  <s_epik_cmdline>  (152) 
J2VwaWtfcHl0aG9uJywgJy1waHQnLCAnMi4wJywgJy1waCcsICc3LjAnLCAnLXRuJywgJzgnLCAnLW1hJywgJzIwMCcsICctaW1hZScsICc8aW5maWxlLm1hZT4nLCAnLW9tYWUnLCAnPG91dGZpbGUubWFlPic=

>  <r_lp_tautomer_probability>  (152) 
1

>  <r_epik_Ionization_Penalty>  (152) 
4.21381e-13

>  <r_epik_Ionization_Penalty_Charging>  (152) 
0

>  <r_epik_Ionization_Penalty_Neutral>  (152) 
4.21381e-13

>  <r_epik_State_Penalty>  (152) 
-0

>  <r_epik_Charging_Adjusted_Penalty>  (152) 
0

>  <i_epik_Tot_Q>  (152) 
0

>  <i_epik_Tot_abs_Q>  (152) 
0

>  <s_lp_Force_Field>  (152) 
OPLS3e

>  <r_lp_Energy>  (152) 
65.934

>  <b_lp_Chiralities_Consistent>  (152) 
1

>  <s_lp_Variant>  (152) 
54:0-1

>  <s_i_glide_gridfile>  (152) 
pfpi4k_grid

>  <i_i_glide_lignum>  (152) 
30

>  <i_i_glide_rotatable_bonds>  (152) 
0

>  <r_i_docking_score>  (152) 
-3.71749

>  <r_i_glide_ligand_efficiency>  (152) 
-0.16163

>  <r_i_glide_ligand_efficiency_sa>  (152) 
-0.459654

>  <r_i_glide_ligand_efficiency_ln>  (152) 
-0.898922

>  <r_i_glide_gscore>  (152) 
-3.71749

>  <r_i_glide_lipo>  (152) 
-0.937069

>  <r_i_glide_hbond>  (152) 
-0.0270704

>  <r_i_glide_metal>  (152) 
-0

>  <r_i_glide_rewards>  (152) 
-1.23754

>  <r_i_glide_evdw>  (152) 
-25.0177

>  <r_i_glide_ecoul>  (152) 
-1.73404

>  <r_i_glide_erotb>  (152) 
0

>  <r_i_glide_esite>  (152) 
-0.00481245

>  <r_i_glide_emodel>  (152) 
-32.6263

>  <r_i_glide_energy>  (152) 
-26.7517

>  <r_i_glide_einternal>  (152) 
0

>  <r_i_glide_intrahb_reward>  (152) 
-0

>  <i_i_glide_confnum>  (152) 
1

>  <i_i_glide_posenum>  (152) 
1

>  <r_i_glide_eff_state_penalty>  (152) 
0

>  <ligand_id>  (152) 
54

>  <original_smiles>  (152) 
CC1=CC23CCC4C(C)(C)CCCC4(C)C2C(C1)OC(C)(C)O3

>  <smiles>  (152) 
[H]C1=C(C([H])([H])[H])C([H])([H])C2([H])OC(C([H])([H])[H])(C([H])([H])[H])OC13C([H])([H])C([H])([H])C1([H])C(C([H])([H])[H])(C([H])([H])[H])C([H])([H])C([H])([H])C([H])([H])C1(C([H])([H])[H])C23[H]

$$$$
54:0:1
     RDKit          3D

 57 60  0  0  1  0  0  0  0  0999 V2000
    3.6675   -1.8328   -4.2251 C   0  0  0  0  0  0  0  0  0  0  0  0
    3.9176   -1.9110   -2.7384 C   0  0  0  0  0  0  0  0  0  0  0  0
    3.6646   -3.0108   -2.0078 C   0  0  0  0  0  0  0  0  0  0  0  0
    3.8902   -3.0789   -0.4979 C   0  0  2  0  0  0  0  0  0  0  0  0
    2.8405   -4.0025    0.1201 C   0  0  0  0  0  0  0  0  0  0  0  0
    2.8443   -3.9488    1.6496 C   0  0  0  0  0  0  0  0  0  0  0  0
    2.5702   -2.5250    2.2180 C   0  0  1  0  0  0  0  0  0  0  0  0
    2.4123   -2.5380    3.7943 C   0  0  0  0  0  0  0  0  0  0  0  0
    1.7258   -1.2592    4.3400 C   0  0  0  0  0  0  0  0  0  0  0  0
    1.5087   -3.7024    4.2704 C   0  0  0  0  0  0  0  0  0  0  0  0
    3.7999   -2.7145    4.4520 C   0  0  0  0  0  0  0  0  0  0  0  0
    4.8457   -1.7112    3.9501 C   0  0  0  0  0  0  0  0  0  0  0  0
    4.9688   -1.7290    2.4182 C   0  0  0  0  0  0  0  0  0  0  0  0
    3.6357   -1.4976    1.6623 C   0  0  2  0  0  0  0  0  0  0  0  0
    3.1455   -0.0334    1.8725 C   0  0  0  0  0  0  0  0  0  0  0  0
    3.7940   -1.6612    0.1009 C   0  0  1  0  0  0  0  0  0  0  0  0
    4.9125   -0.8716   -0.6126 C   0  0  2  0  0  0  0  0  0  0  0  0
    4.5473   -0.6816   -2.1157 C   0  0  0  0  0  0  0  0  0  0  0  0
    6.1984   -1.4835   -0.4150 O   0  0  0  0  0  0  0  0  0  0  0  0
    6.3183   -2.8751   -0.5824 C   0  0  0  0  0  0  0  0  0  0  0  0
    6.7088   -3.2014   -2.0348 C   0  0  0  0  0  0  0  0  0  0  0  0
    7.4620   -3.3319    0.3403 C   0  0  0  0  0  0  0  0  0  0  0  0
    5.1829   -3.6097   -0.1971 O   0  0  0  0  0  0  0  0  0  0  0  0
    4.6065   -1.6440   -4.7290 H   0  0  0  0  0  0  0  0  0  0  0  0
    2.9870   -1.0172   -4.4676 H   0  0  0  0  0  0  0  0  0  0  0  0
    3.2411   -2.7601   -4.6049 H   0  0  0  0  0  0  0  0  0  0  0  0
    3.2202   -3.8657   -2.4862 H   0  0  0  0  0  0  0  0  0  0  0  0
    1.8532   -3.7237   -0.2521 H   0  0  0  0  0  0  0  0  0  0  0  0
    3.0190   -5.0269   -0.2130 H   0  0  0  0  0  0  0  0  0  0  0  0
    2.0839   -4.6550    1.9708 H   0  0  0  0  0  0  0  0  0  0  0  0
    3.7922   -4.3396    2.0203 H   0  0  0  0  0  0  0  0  0  0  0  0
    1.5978   -2.2383    1.8121 H   0  0  0  0  0  0  0  0  0  0  0  0
    1.3524   -1.4026    5.3553 H   0  0  0  0  0  0  0  0  0  0  0  0
    0.8757   -0.9633    3.7220 H   0  0  0  0  0  0  0  0  0  0  0  0
    2.4027   -0.4126    4.4126 H   0  0  0  0  0  0  0  0  0  0  0  0
    1.2801   -3.6200    5.3356 H   0  0  0  0  0  0  0  0  0  0  0  0
    1.9910   -4.6730    4.1483 H   0  0  0  0  0  0  0  0  0  0  0  0
    0.5600   -3.7147    3.7294 H   0  0  0  0  0  0  0  0  0  0  0  0
    3.7113   -2.6360    5.5353 H   0  0  0  0  0  0  0  0  0  0  0  0
    4.1700   -3.7217    4.2609 H   0  0  0  0  0  0  0  0  0  0  0  0
    4.6255   -0.7107    4.3145 H   0  0  0  0  0  0  0  0  0  0  0  0
    5.8092   -1.9763    4.3819 H   0  0  0  0  0  0  0  0  0  0  0  0
    5.7233   -1.0098    2.1014 H   0  0  0  0  0  0  0  0  0  0  0  0
    5.3432   -2.7110    2.1537 H   0  0  0  0  0  0  0  0  0  0  0  0
    3.4839    0.6582    1.1052 H   0  0  0  0  0  0  0  0  0  0  0  0
    3.4967    0.4060    2.8018 H   0  0  0  0  0  0  0  0  0  0  0  0
    2.0575    0.0310    1.8483 H   0  0  0  0  0  0  0  0  0  0  0  0
    2.8583   -1.2553   -0.2792 H   0  0  0  0  0  0  0  0  0  0  0  0
    5.0132    0.1193   -0.1801 H   0  0  0  0  0  0  0  0  0  0  0  0
    5.4173   -0.3780   -2.6795 H   0  0  0  0  0  0  0  0  0  0  0  0
    3.8203    0.1136   -2.2846 H   0  0  0  0  0  0  0  0  0  0  0  0
    6.4630   -2.4005   -2.7176 H   0  0  0  0  0  0  0  0  0  0  0  0
    6.1990   -4.1061   -2.3633 H   0  0  0  0  0  0  0  0  0  0  0  0
    7.7845   -3.3660   -2.1174 H   0  0  0  0  0  0  0  0  0  0  0  0
    7.2620   -3.0556    1.3706 H   0  0  0  0  0  0  0  0  0  0  0  0
    8.3992   -2.8617    0.0385 H   0  0  0  0  0  0  0  0  0  0  0  0
    7.5680   -4.4160    0.2845 H   0  0  0  0  0  0  0  0  0  0  0  0
  1  2  1  0
  1 24  1  0
  1 25  1  0
  1 26  1  0
  2 18  1  0
  2  3  2  0
  3  4  1  0
  3 27  1  0
  4 16  1  0
  4 23  1  6
  4  5  1  0
  5  6  1  0
  5 28  1  0
  5 29  1  0
  6  7  1  0
  6 30  1  0
  6 31  1  0
  7 14  1  0
  7  8  1  0
  7 32  1  6
  8  9  1  0
  8 10  1  0
  8 11  1  0
  9 33  1  0
  9 34  1  0
  9 35  1  0
 10 36  1  0
 10 37  1  0
 10 38  1  0
 11 12  1  0
 11 39  1  0
 11 40  1  0
 12 13  1  0
 12 41  1  0
 12 42  1  0
 13 14  1  0
 13 43  1  0
 13 44  1  0
 14 15  1  6
 14 16  1  0
 15 45  1  0
 15 46  1  0
 15 47  1  0
 16 17  1  0
 16 48  1  6
 17 18  1  0
 17 19  1  0
 17 49  1  1
 18 50  1  0
 18 51  1  0
 19 20  1  0
 20 21  1  0
 20 22  1  0
 20 23  1  0
 21 52  1  0
 21 53  1  0
 21 54  1  0
 22 55  1  0
 22 56  1  0
 22 57  1  0
M  END
>  <i_m_ct_stereo_status>  (153) 
1

>  <s_m_source_file>  (153) 
/var/tmp/pbs.5076255.sched01/tmpjtt61wjg/4457_394l_.sdf

>  <i_m_source_file_index>  (153) 
30

>  <i_lp_mmshare_version>  (153) 
48012

>  <i_f3d_flags>  (153) 
0

>  <s_epik_input>  (153) 
W0NIM11DKD1bQ0hdMSlbQ0gyXVtDQEhdKE9DKE8yKShbQ0gzXSlbQ0gzXSlbQ0BASF0oW0NAQF0xMjMpW0NAQF00KFtDSDNdKVtDQEBIXShbQ0gyXVtDSDJdMylDKFtDSDNdKShbQ0gzXSlbQ0gyXVtDSDJdW0NIMl00

>  <s_epik_cmdline>  (153) 
J2VwaWtfcHl0aG9uJywgJy1waHQnLCAnMi4wJywgJy1waCcsICc3LjAnLCAnLXRuJywgJzgnLCAnLW1hJywgJzIwMCcsICctaW1hZScsICc8aW5maWxlLm1hZT4nLCAnLW9tYWUnLCAnPG91dGZpbGUubWFlPic=

>  <r_lp_tautomer_probability>  (153) 
1

>  <r_epik_Ionization_Penalty>  (153) 
4.21381e-13

>  <r_epik_Ionization_Penalty_Charging>  (153) 
0

>  <r_epik_Ionization_Penalty_Neutral>  (153) 
4.21381e-13

>  <r_epik_State_Penalty>  (153) 
-0

>  <r_epik_Charging_Adjusted_Penalty>  (153) 
0

>  <i_epik_Tot_Q>  (153) 
0

>  <i_epik_Tot_abs_Q>  (153) 
0

>  <s_lp_Force_Field>  (153) 
OPLS3e

>  <r_lp_Energy>  (153) 
65.934

>  <b_lp_Chiralities_Consistent>  (153) 
1

>  <s_lp_Variant>  (153) 
54:0-1

>  <s_i_glide_gridfile>  (153) 
pfpi4k_grid

>  <i_i_glide_lignum>  (153) 
30

>  <i_i_glide_rotatable_bonds>  (153) 
0

>  <r_i_docking_score>  (153) 
-3.22094

>  <r_i_glide_ligand_efficiency>  (153) 
-0.140041

>  <r_i_glide_ligand_efficiency_sa>  (153) 
-0.398257

>  <r_i_glide_ligand_efficiency_ln>  (153) 
-0.778852

>  <r_i_glide_gscore>  (153) 
-3.22094

>  <r_i_glide_lipo>  (153) 
-0.3653

>  <r_i_glide_hbond>  (153) 
-0.0671603

>  <r_i_glide_metal>  (153) 
-0

>  <r_i_glide_rewards>  (153) 
-1.25269

>  <r_i_glide_evdw>  (153) 
-24.958

>  <r_i_glide_ecoul>  (153) 
-1.91924

>  <r_i_glide_erotb>  (153) 
0

>  <r_i_glide_esite>  (153) 
0

>  <r_i_glide_emodel>  (153) 
-31.9132

>  <r_i_glide_energy>  (153) 
-26.8773

>  <r_i_glide_einternal>  (153) 
0

>  <r_i_glide_intrahb_reward>  (153) 
-0

>  <i_i_glide_confnum>  (153) 
1

>  <i_i_glide_posenum>  (153) 
7

>  <r_i_glide_eff_state_penalty>  (153) 
0

>  <ligand_id>  (153) 
54

>  <original_smiles>  (153) 
CC1=CC23CCC4C(C)(C)CCCC4(C)C2C(C1)OC(C)(C)O3

>  <smiles>  (153) 
[H]C1=C(C([H])([H])[H])C([H])([H])C2([H])OC(C([H])([H])[H])(C([H])([H])[H])OC13C([H])([H])C([H])([H])C1([H])C(C([H])([H])[H])(C([H])([H])[H])C([H])([H])C([H])([H])C([H])([H])C1(C([H])([H])[H])C23[H]

$$$$
54:0:2
     RDKit          3D

 57 60  0  0  1  0  0  0  0  0999 V2000
    3.7375   -2.0629   -4.0941 C   0  0  0  0  0  0  0  0  0  0  0  0
    3.9839   -2.1933   -2.6091 C   0  0  0  0  0  0  0  0  0  0  0  0
    3.9830   -3.3703   -1.9548 C   0  0  0  0  0  0  0  0  0  0  0  0
    4.1666   -3.4982   -0.4440 C   0  0  2  0  0  0  0  0  0  0  0  0
    3.3337   -4.6730    0.0797 C   0  0  0  0  0  0  0  0  0  0  0  0
    3.3065   -4.7379    1.6080 C   0  0  0  0  0  0  0  0  0  0  0  0
    2.7193   -3.4574    2.2652 C   0  0  1  0  0  0  0  0  0  0  0  0
    2.5427   -3.6246    3.8268 C   0  0  0  0  0  0  0  0  0  0  0  0
    1.5711   -2.5800    4.4379 C   0  0  0  0  0  0  0  0  0  0  0  0
    1.9140   -4.9930    4.1918 C   0  0  0  0  0  0  0  0  0  0  0  0
    3.9204   -3.5367    4.5147 C   0  0  0  0  0  0  0  0  0  0  0  0
    4.7196   -2.2898    4.1126 C   0  0  0  0  0  0  0  0  0  0  0  0
    4.8652   -2.1603    2.5867 C   0  0  0  0  0  0  0  0  0  0  0  0
    3.5274   -2.1794    1.8061 C   0  0  2  0  0  0  0  0  0  0  0  0
    2.7153   -0.8827    2.1028 C   0  0  0  0  0  0  0  0  0  0  0  0
    3.7360   -2.1866    0.2415 C   0  0  1  0  0  0  0  0  0  0  0  0
    4.6662   -1.1158   -0.3861 C   0  0  2  0  0  0  0  0  0  0  0  0
    4.2874   -0.9108   -1.8731 C   0  0  0  0  0  0  0  0  0  0  0  0
    6.0546   -1.4529   -0.1986 O   0  0  0  0  0  0  0  0  0  0  0  0
    6.4826   -2.7686   -0.4439 C   0  0  0  0  0  0  0  0  0  0  0  0
    6.9805   -2.9051   -1.8911 C   0  0  0  0  0  0  0  0  0  0  0  0
    7.6825   -3.0191    0.4713 C   0  0  0  0  0  0  0  0  0  0  0  0
    5.5330   -3.7589   -0.1354 O   0  0  0  0  0  0  0  0  0  0  0  0
    4.6115   -1.6396   -4.5892 H   0  0  0  0  0  0  0  0  0  0  0  0
    2.8920   -1.4027   -4.2867 H   0  0  0  0  0  0  0  0  0  0  0  0
    3.5089   -3.0322   -4.5425 H   0  0  0  0  0  0  0  0  0  0  0  0
    3.7854   -4.2514   -2.5157 H   0  0  0  0  0  0  0  0  0  0  0  0
    2.3110   -4.6076   -0.3003 H   0  0  0  0  0  0  0  0  0  0  0  0
    3.7449   -5.6010   -0.3190 H   0  0  0  0  0  0  0  0  0  0  0  0
    2.7188   -5.6183    1.8497 H   0  0  0  0  0  0  0  0  0  0  0  0
    4.3155   -4.9362    1.9722 H   0  0  0  0  0  0  0  0  0  0  0  0
    1.7198   -3.3645    1.8535 H   0  0  0  0  0  0  0  0  0  0  0  0
    1.2277   -2.8726    5.4317 H   0  0  0  0  0  0  0  0  0  0  0  0
    0.6874   -2.4275    3.8163 H   0  0  0  0  0  0  0  0  0  0  0  0
    2.0400   -1.6096    4.5891 H   0  0  0  0  0  0  0  0  0  0  0  0
    1.6590   -5.0495    5.2521 H   0  0  0  0  0  0  0  0  0  0  0  0
    2.6050   -5.8171    4.0169 H   0  0  0  0  0  0  0  0  0  0  0  0
    1.0004   -5.1825    3.6250 H   0  0  0  0  0  0  0  0  0  0  0  0
    3.8013   -3.5598    5.5980 H   0  0  0  0  0  0  0  0  0  0  0  0
    4.5071   -4.4172    4.2608 H   0  0  0  0  0  0  0  0  0  0  0  0
    4.2733   -1.3940    4.5389 H   0  0  0  0  0  0  0  0  0  0  0  0
    5.7122   -2.3603    4.5557 H   0  0  0  0  0  0  0  0  0  0  0  0
    5.4453   -1.2703    2.3408 H   0  0  0  0  0  0  0  0  0  0  0  0
    5.4464   -3.0178    2.2695 H   0  0  0  0  0  0  0  0  0  0  0  0
    2.8960   -0.0804    1.3939 H   0  0  0  0  0  0  0  0  0  0  0  0
    2.9454   -0.4449    3.0729 H   0  0  0  0  0  0  0  0  0  0  0  0
    1.6386   -1.0591    2.0572 H   0  0  0  0  0  0  0  0  0  0  0  0
    2.7333   -1.9790   -0.1355 H   0  0  0  0  0  0  0  0  0  0  0  0
    4.5385   -0.1502    0.0987 H   0  0  0  0  0  0  0  0  0  0  0  0
    5.0450   -0.3270   -2.3870 H   0  0  0  0  0  0  0  0  0  0  0  0
    3.3546   -0.3589   -1.9514 H   0  0  0  0  0  0  0  0  0  0  0  0
    6.5257   -2.1633   -2.5213 H   0  0  0  0  0  0  0  0  0  0  0  0
    6.6968   -3.8584   -2.3127 H   0  0  0  0  0  0  0  0  0  0  0  0
    8.0643   -2.7882   -1.9634 H   0  0  0  0  0  0  0  0  0  0  0  0
    7.3913   -2.8767    1.5074 H   0  0  0  0  0  0  0  0  0  0  0  0
    8.4864   -2.3193    0.2409 H   0  0  0  0  0  0  0  0  0  0  0  0
    8.0385   -4.0442    0.3457 H   0  0  0  0  0  0  0  0  0  0  0  0
  1  2  1  0
  1 24  1  0
  1 25  1  0
  1 26  1  0
  2 18  1  0
  2  3  2  0
  3  4  1  0
  3 27  1  0
  4 16  1  0
  4 23  1  6
  4  5  1  0
  5  6  1  0
  5 28  1  0
  5 29  1  0
  6  7  1  0
  6 30  1  0
  6 31  1  0
  7 14  1  0
  7  8  1  0
  7 32  1  6
  8  9  1  0
  8 10  1  0
  8 11  1  0
  9 33  1  0
  9 34  1  0
  9 35  1  0
 10 36  1  0
 10 37  1  0
 10 38  1  0
 11 12  1  0
 11 39  1  0
 11 40  1  0
 12 13  1  0
 12 41  1  0
 12 42  1  0
 13 14  1  0
 13 43  1  0
 13 44  1  0
 14 15  1  6
 14 16  1  0
 15 45  1  0
 15 46  1  0
 15 47  1  0
 16 17  1  0
 16 48  1  6
 17 18  1  0
 17 19  1  0
 17 49  1  1
 18 50  1  0
 18 51  1  0
 19 20  1  0
 20 21  1  0
 20 22  1  0
 20 23  1  0
 21 52  1  0
 21 53  1  0
 21 54  1  0
 22 55  1  0
 22 56  1  0
 22 57  1  0
M  END
>  <i_m_ct_stereo_status>  (154) 
1

>  <s_m_source_file>  (154) 
/var/tmp/pbs.5076255.sched01/tmpjtt61wjg/4457_394l_.sdf

>  <i_m_source_file_index>  (154) 
30

>  <i_lp_mmshare_version>  (154) 
48012

>  <i_f3d_flags>  (154) 
0

>  <s_epik_input>  (154) 
W0NIM11DKD1bQ0hdMSlbQ0gyXVtDQEhdKE9DKE8yKShbQ0gzXSlbQ0gzXSlbQ0BASF0oW0NAQF0xMjMpW0NAQF00KFtDSDNdKVtDQEBIXShbQ0gyXVtDSDJdMylDKFtDSDNdKShbQ0gzXSlbQ0gyXVtDSDJdW0NIMl00

>  <s_epik_cmdline>  (154) 
J2VwaWtfcHl0aG9uJywgJy1waHQnLCAnMi4wJywgJy1waCcsICc3LjAnLCAnLXRuJywgJzgnLCAnLW1hJywgJzIwMCcsICctaW1hZScsICc8aW5maWxlLm1hZT4nLCAnLW9tYWUnLCAnPG91dGZpbGUubWFlPic=

>  <r_lp_tautomer_probability>  (154) 
1

>  <r_epik_Ionization_Penalty>  (154) 
4.21381e-13

>  <r_epik_Ionization_Penalty_Charging>  (154) 
0

>  <r_epik_Ionization_Penalty_Neutral>  (154) 
4.21381e-13

>  <r_epik_State_Penalty>  (154) 
-0

>  <r_epik_Charging_Adjusted_Penalty>  (154) 
0

>  <i_epik_Tot_Q>  (154) 
0

>  <i_epik_Tot_abs_Q>  (154) 
0

>  <s_lp_Force_Field>  (154) 
OPLS3e

>  <r_lp_Energy>  (154) 
65.934

>  <b_lp_Chiralities_Consistent>  (154) 
1

>  <s_lp_Variant>  (154) 
54:0-1

>  <s_i_glide_gridfile>  (154) 
pfpi4k_grid

>  <i_i_glide_lignum>  (154) 
30

>  <i_i_glide_rotatable_bonds>  (154) 
0

>  <r_i_docking_score>  (154) 
-3.08895

>  <r_i_glide_ligand_efficiency>  (154) 
-0.134302

>  <r_i_glide_ligand_efficiency_sa>  (154) 
-0.381937

>  <r_i_glide_ligand_efficiency_ln>  (154) 
-0.746935

>  <r_i_glide_gscore>  (154) 
-3.08895

>  <r_i_glide_lipo>  (154) 
-0.347739

>  <r_i_glide_hbond>  (154) 
-0.00678042

>  <r_i_glide_metal>  (154) 
-0

>  <r_i_glide_rewards>  (154) 
-1.24125

>  <r_i_glide_evdw>  (154) 
-24.6907

>  <r_i_glide_ecoul>  (154) 
-1.7243

>  <r_i_glide_erotb>  (154) 
0

>  <r_i_glide_esite>  (154) 
0

>  <r_i_glide_emodel>  (154) 
-31.2266

>  <r_i_glide_energy>  (154) 
-26.415

>  <r_i_glide_einternal>  (154) 
0

>  <r_i_glide_intrahb_reward>  (154) 
-0

>  <i_i_glide_confnum>  (154) 
2

>  <i_i_glide_posenum>  (154) 
3

>  <r_i_glide_eff_state_penalty>  (154) 
0

>  <ligand_id>  (154) 
54

>  <original_smiles>  (154) 
CC1=CC23CCC4C(C)(C)CCCC4(C)C2C(C1)OC(C)(C)O3

>  <smiles>  (154) 
[H]C1=C(C([H])([H])[H])C([H])([H])C2([H])OC(C([H])([H])[H])(C([H])([H])[H])OC13C([H])([H])C([H])([H])C1([H])C(C([H])([H])[H])(C([H])([H])[H])C([H])([H])C([H])([H])C([H])([H])C1(C([H])([H])[H])C23[H]

$$$$
55:0:0
     RDKit          3D

 47 50  0  0  1  0  0  0  0  0999 V2000
    2.1872   -1.7827    2.8919 C   0  0  0  0  0  0  0  0  0  0  0  0
    3.5381   -2.3100    3.4087 C   0  0  2  0  0  0  0  0  0  0  0  0
    4.6202   -1.1995    3.5613 C   0  0  0  0  0  0  0  0  0  0  0  0
    5.1234   -0.3843    2.3262 C   0  0  0  0  0  0  0  0  0  0  0  0
    5.5718   -1.1066    1.0133 C   0  0  2  0  0  0  0  0  0  0  0  0
    4.3643   -1.2469    0.0818 C   0  0  1  0  0  0  0  0  0  0  0  0
    4.7504   -1.2482   -1.4079 C   0  0  0  0  0  0  0  0  0  0  0  0
    3.7596   -2.4730    0.4951 O   0  0  0  0  0  0  0  0  0  0  0  0
    4.6547   -3.2422    1.3109 C   0  0  2  0  0  0  0  0  0  0  0  0
    5.9708   -2.5418    1.2690 C   0  0  1  0  0  0  0  0  0  0  0  0
    6.4272   -3.4635    0.2239 O   0  0  0  0  0  0  0  0  0  0  0  0
    5.2749   -4.3399    0.4753 C   0  0  2  0  0  0  0  0  0  0  0  0
    4.6105   -4.7171   -0.8497 C   0  0  0  0  0  0  0  0  0  0  0  0
    5.5142   -5.6505    1.2657 C   0  0  1  0  0  0  0  0  0  0  0  0
    6.8029   -5.6648    2.1110 C   0  0  0  0  0  0  0  0  0  0  0  0
    4.2626   -6.0325    2.1358 C   0  0  0  0  0  0  0  0  0  0  0  0
    3.3105   -4.8722    2.5835 C   0  0  1  0  0  0  0  0  0  0  0  0
    2.5390   -5.2374    3.8629 C   0  0  0  0  0  0  0  0  0  0  0  0
    4.1062   -3.5616    2.6843 C   0  0  2  0  0  0  0  0  0  0  0  0
    2.2705   -1.2280    1.9616 H   0  0  0  0  0  0  0  0  0  0  0  0
    1.7471   -1.1062    3.6217 H   0  0  0  0  0  0  0  0  0  0  0  0
    1.4805   -2.5935    2.7293 H   0  0  0  0  0  0  0  0  0  0  0  0
    3.3399   -2.6458    4.4287 H   0  0  0  0  0  0  0  0  0  0  0  0
    4.2300   -0.4753    4.2749 H   0  0  0  0  0  0  0  0  0  0  0  0
    5.4851   -1.6310    4.0655 H   0  0  0  0  0  0  0  0  0  0  0  0
    4.3827    0.3830    2.0943 H   0  0  0  0  0  0  0  0  0  0  0  0
    5.9886    0.1659    2.6933 H   0  0  0  0  0  0  0  0  0  0  0  0
    6.3623   -0.5340    0.5321 H   0  0  0  0  0  0  0  0  0  0  0  0
    3.6399   -0.4450    0.2203 H   0  0  0  0  0  0  0  0  0  0  0  0
    5.0886   -0.2583   -1.7164 H   0  0  0  0  0  0  0  0  0  0  0  0
    3.8945   -1.5097   -2.0327 H   0  0  0  0  0  0  0  0  0  0  0  0
    5.5602   -1.9436   -1.6272 H   0  0  0  0  0  0  0  0  0  0  0  0
    6.5819   -2.6754    2.1622 H   0  0  0  0  0  0  0  0  0  0  0  0
    3.6392   -5.1740   -0.6744 H   0  0  0  0  0  0  0  0  0  0  0  0
    5.2094   -5.4355   -1.4055 H   0  0  0  0  0  0  0  0  0  0  0  0
    4.4439   -3.8670   -1.5026 H   0  0  0  0  0  0  0  0  0  0  0  0
    5.6634   -6.4697    0.5621 H   0  0  0  0  0  0  0  0  0  0  0  0
    6.7774   -4.9279    2.9046 H   0  0  0  0  0  0  0  0  0  0  0  0
    7.6826   -5.4736    1.4976 H   0  0  0  0  0  0  0  0  0  0  0  0
    6.9436   -6.6391    2.5812 H   0  0  0  0  0  0  0  0  0  0  0  0
    3.6606   -6.7438    1.5694 H   0  0  0  0  0  0  0  0  0  0  0  0
    4.5885   -6.5867    3.0168 H   0  0  0  0  0  0  0  0  0  0  0  0
    2.5722   -4.7287    1.7951 H   0  0  0  0  0  0  0  0  0  0  0  0
    3.2058   -5.3544    4.7171 H   0  0  0  0  0  0  0  0  0  0  0  0
    1.9954   -6.1716    3.7303 H   0  0  0  0  0  0  0  0  0  0  0  0
    1.8062   -4.4712    4.1168 H   0  0  0  0  0  0  0  0  0  0  0  0
    4.9429   -3.8268    3.3292 H   0  0  0  0  0  0  0  0  0  0  0  0
  1  2  1  0
  1 20  1  0
  1 21  1  0
  1 22  1  0
  2 19  1  0
  2  3  1  0
  2 23  1  1
  3  4  1  0
  3 24  1  0
  3 25  1  0
  4  5  1  0
  4 26  1  0
  4 27  1  0
  5 10  1  0
  5  6  1  0
  5 28  1  6
  6  7  1  0
  6  8  1  0
  6 29  1  6
  7 30  1  0
  7 31  1  0
  7 32  1  0
  9  8  1  6
  9 12  1  0
  9 19  1  0
  9 10  1  0
 10 11  1  0
 10 33  1  1
 11 12  1  0
 12 13  1  6
 12 14  1  0
 13 34  1  0
 13 35  1  0
 13 36  1  0
 14 15  1  0
 14 16  1  0
 14 37  1  6
 15 38  1  0
 15 39  1  0
 15 40  1  0
 16 17  1  0
 16 41  1  0
 16 42  1  0
 17 18  1  0
 17 19  1  0
 17 43  1  6
 18 44  1  0
 18 45  1  0
 18 46  1  0
 19 47  1  1
M  END
>  <i_m_ct_stereo_status>  (155) 
1

>  <s_m_source_file>  (155) 
/var/tmp/pbs.5076255.sched01/tmpjtt61wjg/4457_394l_.sdf

>  <i_m_source_file_index>  (155) 
31

>  <i_lp_mmshare_version>  (155) 
48012

>  <i_f3d_flags>  (155) 
0

>  <s_epik_input>  (155) 
W0NIM11bQ0BASF0oTzEpW0NASF0oW0NASF0yW0NAQF0xMzQpW0NIMl1bQ0gyXVtDQEBIXShbQ0gzXSlbQ0BIXTRbQ0BIXShbQ0gzXSlbQ0gyXVtDQEhdKFtDSDNdKVtDQEBdMyhPMilbQ0gzXQ==

>  <s_epik_cmdline>  (155) 
J2VwaWtfcHl0aG9uJywgJy1waHQnLCAnMi4wJywgJy1waCcsICc3LjAnLCAnLXRuJywgJzgnLCAnLW1hJywgJzIwMCcsICctaW1hZScsICc8aW5maWxlLm1hZT4nLCAnLW9tYWUnLCAnPG91dGZpbGUubWFlPic=

>  <r_lp_tautomer_probability>  (155) 
1

>  <r_epik_Ionization_Penalty>  (155) 
1.10012e-11

>  <r_epik_Ionization_Penalty_Charging>  (155) 
0

>  <r_epik_Ionization_Penalty_Neutral>  (155) 
1.10012e-11

>  <r_epik_State_Penalty>  (155) 
-0

>  <r_epik_Charging_Adjusted_Penalty>  (155) 
0

>  <i_epik_Tot_Q>  (155) 
0

>  <i_epik_Tot_abs_Q>  (155) 
0

>  <s_lp_Force_Field>  (155) 
OPLS3e

>  <r_lp_Energy>  (155) 
54.2059

>  <b_lp_Chiralities_Consistent>  (155) 
1

>  <s_lp_Variant>  (155) 
55:0-1

>  <s_i_glide_gridfile>  (155) 
pfpi4k_grid

>  <i_i_glide_lignum>  (155) 
31

>  <i_i_glide_rotatable_bonds>  (155) 
0

>  <r_i_docking_score>  (155) 
-2.92918

>  <r_i_glide_ligand_efficiency>  (155) 
-0.154168

>  <r_i_glide_ligand_efficiency_sa>  (155) 
-0.411381

>  <r_i_glide_ligand_efficiency_ln>  (155) 
-0.742611

>  <r_i_glide_gscore>  (155) 
-2.92918

>  <r_i_glide_lipo>  (155) 
-0.635106

>  <r_i_glide_hbond>  (155) 
0

>  <r_i_glide_metal>  (155) 
-0

>  <r_i_glide_rewards>  (155) 
-1.60634

>  <r_i_glide_evdw>  (155) 
-13.133

>  <r_i_glide_ecoul>  (155) 
-0.207247

>  <r_i_glide_erotb>  (155) 
0

>  <r_i_glide_esite>  (155) 
0

>  <r_i_glide_emodel>  (155) 
-15.5255

>  <r_i_glide_energy>  (155) 
-13.3402

>  <r_i_glide_einternal>  (155) 
0

>  <r_i_glide_intrahb_reward>  (155) 
-0

>  <i_i_glide_confnum>  (155) 
1

>  <i_i_glide_posenum>  (155) 
3

>  <r_i_glide_eff_state_penalty>  (155) 
0

>  <ligand_id>  (155) 
55

>  <original_smiles>  (155) 
CC1CCC2C(C)OC34C2OC3(C)C(C)CC(C)C14

>  <smiles>  (155) 
[H]C([H])([H])C1([H])OC23C4([H])OC2(C([H])([H])[H])C([H])(C([H])([H])[H])C([H])([H])C([H])(C([H])([H])[H])C3([H])C([H])(C([H])([H])[H])C([H])([H])C([H])([H])C14[H]

$$$$
55:0:1
     RDKit          3D

 47 50  0  0  1  0  0  0  0  0999 V2000
    3.8627   -0.4408    2.4397 C   0  0  0  0  0  0  0  0  0  0  0  0
    4.7168   -1.7194    2.4101 C   0  0  2  0  0  0  0  0  0  0  0  0
    6.1539   -1.4894    1.8556 C   0  0  0  0  0  0  0  0  0  0  0  0
    6.4085   -0.9851    0.3990 C   0  0  0  0  0  0  0  0  0  0  0  0
    5.7058   -1.6839   -0.8088 C   0  0  2  0  0  0  0  0  0  0  0  0
    4.3806   -0.9734   -1.0760 C   0  0  1  0  0  0  0  0  0  0  0  0
    3.9602   -1.0089   -2.5557 C   0  0  0  0  0  0  0  0  0  0  0  0
    3.4593   -1.6379   -0.2146 O   0  0  0  0  0  0  0  0  0  0  0  0
    3.9982   -2.8774    0.2553 C   0  0  2  0  0  0  0  0  0  0  0  0
    5.2821   -3.0894   -0.4735 C   0  0  1  0  0  0  0  0  0  0  0  0
    4.5944   -3.9616   -1.4278 O   0  0  0  0  0  0  0  0  0  0  0  0
    3.4179   -4.0101   -0.5520 C   0  0  2  0  0  0  0  0  0  0  0  0
    2.1464   -3.7494   -1.3667 C   0  0  0  0  0  0  0  0  0  0  0  0
    3.1955   -5.2928    0.2883 C   0  0  1  0  0  0  0  0  0  0  0  0
    4.4575   -6.1630    0.4756 C   0  0  0  0  0  0  0  0  0  0  0  0
    2.5169   -4.9748    1.6706 C   0  0  0  0  0  0  0  0  0  0  0  0
    2.7228   -3.5413    2.2613 C   0  0  1  0  0  0  0  0  0  0  0  0
    2.5730   -3.5344    3.7904 C   0  0  0  0  0  0  0  0  0  0  0  0
    4.0600   -2.9720    1.7651 C   0  0  2  0  0  0  0  0  0  0  0  0
    3.8134    0.0661    1.4829 H   0  0  0  0  0  0  0  0  0  0  0  0
    4.2830    0.2691    3.1472 H   0  0  0  0  0  0  0  0  0  0  0  0
    2.8449   -0.6540    2.7536 H   0  0  0  0  0  0  0  0  0  0  0  0
    4.8632   -1.9888    3.4614 H   0  0  0  0  0  0  0  0  0  0  0  0
    6.6296   -0.7719    2.5181 H   0  0  0  0  0  0  0  0  0  0  0  0
    6.7018   -2.4198    1.9908 H   0  0  0  0  0  0  0  0  0  0  0  0
    6.2138    0.0906    0.3745 H   0  0  0  0  0  0  0  0  0  0  0  0
    7.4871   -1.0713    0.2497 H   0  0  0  0  0  0  0  0  0  0  0  0
    6.3334   -1.6542   -1.6924 H   0  0  0  0  0  0  0  0  0  0  0  0
    4.4086    0.0715   -0.7778 H   0  0  0  0  0  0  0  0  0  0  0  0
    4.6148   -0.3712   -3.1486 H   0  0  0  0  0  0  0  0  0  0  0  0
    2.9377   -0.6447   -2.6854 H   0  0  0  0  0  0  0  0  0  0  0  0
    4.0224   -2.0089   -2.9840 H   0  0  0  0  0  0  0  0  0  0  0  0
    6.0270   -3.6600    0.0857 H   0  0  0  0  0  0  0  0  0  0  0  0
    1.3220   -3.5190   -0.7134 H   0  0  0  0  0  0  0  0  0  0  0  0
    1.8095   -4.6121   -1.9345 H   0  0  0  0  0  0  0  0  0  0  0  0
    2.2269   -2.9106   -2.0433 H   0  0  0  0  0  0  0  0  0  0  0  0
    2.5109   -5.9466   -0.2458 H   0  0  0  0  0  0  0  0  0  0  0  0
    5.2396   -5.6614    1.0369 H   0  0  0  0  0  0  0  0  0  0  0  0
    4.8674   -6.4561   -0.4885 H   0  0  0  0  0  0  0  0  0  0  0  0
    4.2060   -7.0803    1.0107 H   0  0  0  0  0  0  0  0  0  0  0  0
    1.4433   -5.1376    1.5717 H   0  0  0  0  0  0  0  0  0  0  0  0
    2.8379   -5.7078    2.4118 H   0  0  0  0  0  0  0  0  0  0  0  0
    1.9440   -2.8956    1.8598 H   0  0  0  0  0  0  0  0  0  0  0  0
    3.3546   -4.1234    4.2677 H   0  0  0  0  0  0  0  0  0  0  0  0
    1.6105   -3.9480    4.0851 H   0  0  0  0  0  0  0  0  0  0  0  0
    2.6293   -2.5208    4.1892 H   0  0  0  0  0  0  0  0  0  0  0  0
    4.7702   -3.7542    2.0317 H   0  0  0  0  0  0  0  0  0  0  0  0
  1  2  1  0
  1 20  1  0
  1 21  1  0
  1 22  1  0
  2 19  1  0
  2  3  1  0
  2 23  1  1
  3  4  1  0
  3 24  1  0
  3 25  1  0
  4  5  1  0
  4 26  1  0
  4 27  1  0
  5 10  1  0
  5  6  1  0
  5 28  1  6
  6  7  1  0
  6  8  1  0
  6 29  1  1
  7 30  1  0
  7 31  1  0
  7 32  1  0
  9  8  1  1
  9 12  1  0
  9 19  1  0
  9 10  1  0
 10 11  1  0
 10 33  1  1
 11 12  1  0
 12 13  1  6
 12 14  1  0
 13 34  1  0
 13 35  1  0
 13 36  1  0
 14 15  1  0
 14 16  1  0
 14 37  1  6
 15 38  1  0
 15 39  1  0
 15 40  1  0
 16 17  1  0
 16 41  1  0
 16 42  1  0
 17 18  1  0
 17 19  1  0
 17 43  1  6
 18 44  1  0
 18 45  1  0
 18 46  1  0
 19 47  1  6
M  END
>  <i_m_ct_stereo_status>  (156) 
1

>  <s_m_source_file>  (156) 
/var/tmp/pbs.5076255.sched01/tmpjtt61wjg/4457_394l_.sdf

>  <i_m_source_file_index>  (156) 
31

>  <i_lp_mmshare_version>  (156) 
48012

>  <i_f3d_flags>  (156) 
0

>  <s_epik_input>  (156) 
W0NIM11bQ0BASF0oTzEpW0NASF0oW0NASF0yW0NAQF0xMzQpW0NIMl1bQ0gyXVtDQEBIXShbQ0gzXSlbQ0BIXTRbQ0BIXShbQ0gzXSlbQ0gyXVtDQEhdKFtDSDNdKVtDQEBdMyhPMilbQ0gzXQ==

>  <s_epik_cmdline>  (156) 
J2VwaWtfcHl0aG9uJywgJy1waHQnLCAnMi4wJywgJy1waCcsICc3LjAnLCAnLXRuJywgJzgnLCAnLW1hJywgJzIwMCcsICctaW1hZScsICc8aW5maWxlLm1hZT4nLCAnLW9tYWUnLCAnPG91dGZpbGUubWFlPic=

>  <r_lp_tautomer_probability>  (156) 
1

>  <r_epik_Ionization_Penalty>  (156) 
1.10012e-11

>  <r_epik_Ionization_Penalty_Charging>  (156) 
0

>  <r_epik_Ionization_Penalty_Neutral>  (156) 
1.10012e-11

>  <r_epik_State_Penalty>  (156) 
-0

>  <r_epik_Charging_Adjusted_Penalty>  (156) 
0

>  <i_epik_Tot_Q>  (156) 
0

>  <i_epik_Tot_abs_Q>  (156) 
0

>  <s_lp_Force_Field>  (156) 
OPLS3e

>  <r_lp_Energy>  (156) 
54.2059

>  <b_lp_Chiralities_Consistent>  (156) 
1

>  <s_lp_Variant>  (156) 
55:0-1

>  <s_i_glide_gridfile>  (156) 
pfpi4k_grid

>  <i_i_glide_lignum>  (156) 
31

>  <i_i_glide_rotatable_bonds>  (156) 
0

>  <r_i_docking_score>  (156) 
-2.47759

>  <r_i_glide_ligand_efficiency>  (156) 
-0.1304

>  <r_i_glide_ligand_efficiency_sa>  (156) 
-0.347958

>  <r_i_glide_ligand_efficiency_ln>  (156) 
-0.628123

>  <r_i_glide_gscore>  (156) 
-2.47759

>  <r_i_glide_lipo>  (156) 
-0.442981

>  <r_i_glide_hbond>  (156) 
0

>  <r_i_glide_metal>  (156) 
-0

>  <r_i_glide_rewards>  (156) 
-1.60634

>  <r_i_glide_evdw>  (156) 
-15.5503

>  <r_i_glide_ecoul>  (156) 
2.32832

>  <r_i_glide_erotb>  (156) 
0

>  <r_i_glide_esite>  (156) 
0

>  <r_i_glide_emodel>  (156) 
-14.9672

>  <r_i_glide_energy>  (156) 
-13.222

>  <r_i_glide_einternal>  (156) 
0

>  <r_i_glide_intrahb_reward>  (156) 
-0

>  <i_i_glide_confnum>  (156) 
2

>  <i_i_glide_posenum>  (156) 
8

>  <r_i_glide_eff_state_penalty>  (156) 
0

>  <ligand_id>  (156) 
55

>  <original_smiles>  (156) 
CC1CCC2C(C)OC34C2OC3(C)C(C)CC(C)C14

>  <smiles>  (156) 
[H]C([H])([H])C1([H])OC23C4([H])OC2(C([H])([H])[H])C([H])(C([H])([H])[H])C([H])([H])C([H])(C([H])([H])[H])C3([H])C([H])(C([H])([H])[H])C([H])([H])C([H])([H])C14[H]

$$$$
56:0:0
     RDKit          3D

 32 35  0  0  1  0  0  0  0  0999 V2000
    3.0222   -0.7120   -3.9137 C   0  0  0  0  0  0  0  0  0  0  0  0
    2.6858   -2.0673   -3.7758 C   0  0  0  0  0  0  0  0  0  0  0  0
    3.4485   -2.8606   -2.9062 C   0  0  0  0  0  0  0  0  0  0  0  0
    4.5115   -2.2761   -2.1885 C   0  0  0  0  0  0  0  0  0  0  0  0
    5.3681   -3.1065   -1.3033 C   0  0  0  0  0  0  0  0  0  0  0  0
    6.5699   -2.7336   -1.0290 N   0  0  0  0  0  0  0  0  0  0  0  0
    7.3851   -3.4560   -0.2060 C   0  0  0  0  0  0  0  0  0  0  0  0
    8.6932   -3.3912   -0.0001 N   0  0  0  0  0  0  0  0  0  0  0  0
    8.9472   -4.3940    0.9188 N   0  0  0  0  0  0  0  0  0  0  0  0
    7.8568   -5.0102    1.2634 N   0  0  0  0  0  0  0  0  0  0  0  0
    6.8650   -4.4242    0.5609 N   0  0  0  0  0  0  0  0  0  0  0  0
    5.4789   -4.8186    0.6334 C   0  0  1  0  0  0  0  0  0  0  0  0
    4.7650   -4.2333    1.8525 C   0  0  0  0  0  0  0  0  0  0  0  0
    4.8111   -2.8516    2.1448 C   0  0  0  0  0  0  0  0  0  0  0  0
    4.1191   -2.3722    3.2738 C   0  0  0  0  0  0  0  0  0  0  0  0
    3.4090   -3.1662    4.0998 N   0  0  0  0  0  0  0  0  0  0  0  0
    3.3651   -4.4849    3.8227 C   0  0  0  0  0  0  0  0  0  0  0  0
    4.0185   -5.0643    2.7164 C   0  0  0  0  0  0  0  0  0  0  0  0
    4.8186   -4.4227   -0.7048 C   0  0  0  0  0  0  0  0  0  0  0  0
    4.8331   -0.9689   -2.3150 N   0  0  0  0  0  0  0  0  0  0  0  0
    4.0902   -0.2146   -3.1478 C   0  0  0  0  0  0  0  0  0  0  0  0
    2.4555   -0.0614   -4.5610 H   0  0  0  0  0  0  0  0  0  0  0  0
    1.8578   -2.4964   -4.3205 H   0  0  0  0  0  0  0  0  0  0  0  0
    3.2040   -3.9005   -2.8034 H   0  0  0  0  0  0  0  0  0  0  0  0
    5.4597   -5.9058    0.7207 H   0  0  0  0  0  0  0  0  0  0  0  0
    5.3588   -2.1597    1.5235 H   0  0  0  0  0  0  0  0  0  0  0  0
    4.1367   -1.3213    3.5214 H   0  0  0  0  0  0  0  0  0  0  0  0
    2.7889   -5.0940    4.5032 H   0  0  0  0  0  0  0  0  0  0  0  0
    3.9381   -6.1282    2.5478 H   0  0  0  0  0  0  0  0  0  0  0  0
    3.7316   -4.3960   -0.5991 H   0  0  0  0  0  0  0  0  0  0  0  0
    5.0297   -5.2072   -1.4336 H   0  0  0  0  0  0  0  0  0  0  0  0
    4.3600    0.8286   -3.2165 H   0  0  0  0  0  0  0  0  0  0  0  0
  1 21  2  0
  1  2  1  0
  1 22  1  0
  2  3  2  0
  2 23  1  0
  3  4  1  0
  3 24  1  0
  4  5  1  0
  4 20  2  0
  5 19  1  0
  5  6  2  0
  6  7  1  0
  7 11  1  0
  7  8  2  0
  8  9  1  0
  9 10  2  0
 10 11  1  0
 11 12  1  0
 12 13  1  0
 12 19  1  0
 12 25  1  1
 13 18  1  0
 13 14  2  0
 14 15  1  0
 14 26  1  0
 15 16  2  0
 15 27  1  0
 16 17  1  0
 17 18  2  0
 17 28  1  0
 18 29  1  0
 19 30  1  0
 19 31  1  0
 20 21  1  0
 21 32  1  0
M  END
>  <i_m_ct_stereo_status>  (157) 
1

>  <s_m_source_file>  (157) 
/var/tmp/pbs.5076255.sched01/tmpjtt61wjg/4457_394l_.sdf

>  <i_m_source_file_index>  (157) 
32

>  <i_lp_mmshare_version>  (157) 
48012

>  <i_f3d_flags>  (157) 
0

>  <s_epik_input>  (157) 
bjFbY0hdW2NIXVtjSF1bY0hdYzFDKD1OMilbQ0gyXVtDQEBIXShuKGMyMylubm4zKWM0W2NIXVtjSF1uW2NIXVtjSF00

>  <s_epik_cmdline>  (157) 
J2VwaWtfcHl0aG9uJywgJy1waHQnLCAnMi4wJywgJy1waCcsICc3LjAnLCAnLXRuJywgJzgnLCAnLW1hJywgJzIwMCcsICctaW1hZScsICc8aW5maWxlLm1hZT4nLCAnLW9tYWUnLCAnPG91dGZpbGUubWFlPic=

>  <r_lp_tautomer_probability>  (157) 
0.999601

>  <r_epik_Ionization_Penalty>  (157) 
0.00135537

>  <r_epik_Ionization_Penalty_Charging>  (157) 
0

>  <r_epik_Ionization_Penalty_Neutral>  (157) 
0.00135537

>  <r_epik_State_Penalty>  (157) 
0.000898811

>  <r_epik_Charging_Adjusted_Penalty>  (157) 
0.000898811

>  <i_epik_Tot_Q>  (157) 
0

>  <i_epik_Tot_abs_Q>  (157) 
0

>  <s_epik_Chemistry_Notes>  (157) 
This compound has an imine and may undergo hydrolysis.

>  <s_lp_Force_Field>  (157) 
OPLS3e

>  <r_lp_Energy>  (157) 
44.5244

>  <b_lp_Chiralities_Consistent>  (157) 
1

>  <s_lp_Variant>  (157) 
56:0-1

>  <s_i_glide_gridfile>  (157) 
pfpi4k_grid

>  <i_i_glide_lignum>  (157) 
32

>  <i_i_glide_rotatable_bonds>  (157) 
2

>  <r_i_docking_score>  (157) 
-4.30364

>  <r_i_glide_ligand_efficiency>  (157) 
-0.204935

>  <r_i_glide_ligand_efficiency_sa>  (157) 
-0.565401

>  <r_i_glide_ligand_efficiency_ln>  (157) 
-1.06407

>  <r_i_glide_gscore>  (157) 
-4.30364

>  <r_i_glide_lipo>  (157) 
-0.751274

>  <r_i_glide_hbond>  (157) 
0

>  <r_i_glide_metal>  (157) 
-0

>  <r_i_glide_rewards>  (157) 
-1.99569

>  <r_i_glide_evdw>  (157) 
-28.1849

>  <r_i_glide_ecoul>  (157) 
-3.84197

>  <r_i_glide_erotb>  (157) 
0.468385

>  <r_i_glide_esite>  (157) 
-0.0395238

>  <r_i_glide_emodel>  (157) 
-40.6476

>  <r_i_glide_energy>  (157) 
-32.0269

>  <r_i_glide_einternal>  (157) 
0.418365

>  <r_i_glide_intrahb_reward>  (157) 
-0

>  <i_i_glide_confnum>  (157) 
1

>  <i_i_glide_posenum>  (157) 
17

>  <r_i_glide_eff_state_penalty>  (157) 
0

>  <ligand_id>  (157) 
56

>  <original_smiles>  (157) 
c1ccc(C2=Nc3nnnn3C(c3ccncc3)C2)nc1

>  <smiles>  (157) 
[H]c1nc(C2=Nc3nnnn3C([H])(c3c([H])c([H])nc([H])c3[H])C2([H])[H])c([H])c([H])c1[H]

$$$$
56:0:1
     RDKit          3D

 32 35  0  0  1  0  0  0  0  0999 V2000
    3.0184   -0.9931   -4.0273 C   0  0  0  0  0  0  0  0  0  0  0  0
    3.8592   -0.2581   -3.1781 C   0  0  0  0  0  0  0  0  0  0  0  0
    4.6698   -0.9488   -2.2581 C   0  0  0  0  0  0  0  0  0  0  0  0
    4.5966   -2.3568   -2.2216 C   0  0  0  0  0  0  0  0  0  0  0  0
    5.4372   -3.1533   -1.2969 C   0  0  0  0  0  0  0  0  0  0  0  0
    6.6205   -2.7515   -0.9806 N   0  0  0  0  0  0  0  0  0  0  0  0
    7.4158   -3.4613   -0.1253 C   0  0  0  0  0  0  0  0  0  0  0  0
    8.7214   -3.3916    0.1178 N   0  0  0  0  0  0  0  0  0  0  0  0
    8.9491   -4.3850    1.0577 N   0  0  0  0  0  0  0  0  0  0  0  0
    7.8518   -5.0080    1.3680 N   0  0  0  0  0  0  0  0  0  0  0  0
    6.8795   -4.4300    0.6311 N   0  0  0  0  0  0  0  0  0  0  0  0
    5.4956   -4.8375    0.6618 C   0  0  1  0  0  0  0  0  0  0  0  0
    4.7312   -4.2439    1.8462 C   0  0  0  0  0  0  0  0  0  0  0  0
    4.7532   -2.8584    2.1213 C   0  0  0  0  0  0  0  0  0  0  0  0
    4.0143   -2.3714    3.2172 C   0  0  0  0  0  0  0  0  0  0  0  0
    3.2819   -3.1614    4.0274 N   0  0  0  0  0  0  0  0  0  0  0  0
    3.2613   -4.4839    3.7667 C   0  0  0  0  0  0  0  0  0  0  0  0
    3.9610   -5.0720    2.6934 C   0  0  0  0  0  0  0  0  0  0  0  0
    4.8835   -4.4680   -0.7075 C   0  0  0  0  0  0  0  0  0  0  0  0
    3.7956   -3.0634   -3.0464 N   0  0  0  0  0  0  0  0  0  0  0  0
    3.0141   -2.3930   -3.9125 C   0  0  0  0  0  0  0  0  0  0  0  0
    2.3741   -0.4963   -4.7374 H   0  0  0  0  0  0  0  0  0  0  0  0
    3.8833    0.8206   -3.2332 H   0  0  0  0  0  0  0  0  0  0  0  0
    5.3208   -0.3983   -1.5950 H   0  0  0  0  0  0  0  0  0  0  0  0
    5.4797   -5.9245    0.7648 H   0  0  0  0  0  0  0  0  0  0  0  0
    5.3174   -2.1700    1.5116 H   0  0  0  0  0  0  0  0  0  0  0  0
    4.0132   -1.3170    3.4502 H   0  0  0  0  0  0  0  0  0  0  0  0
    2.6660   -5.0903    4.4334 H   0  0  0  0  0  0  0  0  0  0  0  0
    3.8973   -6.1379    2.5366 H   0  0  0  0  0  0  0  0  0  0  0  0
    3.7925   -4.4463   -0.6563 H   0  0  0  0  0  0  0  0  0  0  0  0
    5.1321   -5.2566   -1.4172 H   0  0  0  0  0  0  0  0  0  0  0  0
    2.3775   -3.0028   -4.5368 H   0  0  0  0  0  0  0  0  0  0  0  0
  1 21  2  0
  1  2  1  0
  1 22  1  0
  2  3  2  0
  2 23  1  0
  3  4  1  0
  3 24  1  0
  4  5  1  0
  4 20  2  0
  5 19  1  0
  5  6  2  0
  6  7  1  0
  7 11  1  0
  7  8  2  0
  8  9  1  0
  9 10  2  0
 10 11  1  0
 11 12  1  0
 12 13  1  0
 12 19  1  0
 12 25  1  1
 13 18  1  0
 13 14  2  0
 14 15  1  0
 14 26  1  0
 15 16  2  0
 15 27  1  0
 16 17  1  0
 17 18  2  0
 17 28  1  0
 18 29  1  0
 19 30  1  0
 19 31  1  0
 20 21  1  0
 21 32  1  0
M  END
>  <i_m_ct_stereo_status>  (158) 
1

>  <s_m_source_file>  (158) 
/var/tmp/pbs.5076255.sched01/tmpjtt61wjg/4457_394l_.sdf

>  <i_m_source_file_index>  (158) 
32

>  <i_lp_mmshare_version>  (158) 
48012

>  <i_f3d_flags>  (158) 
0

>  <s_epik_input>  (158) 
bjFbY0hdW2NIXVtjSF1bY0hdYzFDKD1OMilbQ0gyXVtDQEBIXShuKGMyMylubm4zKWM0W2NIXVtjSF1uW2NIXVtjSF00

>  <s_epik_cmdline>  (158) 
J2VwaWtfcHl0aG9uJywgJy1waHQnLCAnMi4wJywgJy1waCcsICc3LjAnLCAnLXRuJywgJzgnLCAnLW1hJywgJzIwMCcsICctaW1hZScsICc8aW5maWxlLm1hZT4nLCAnLW9tYWUnLCAnPG91dGZpbGUubWFlPic=

>  <r_lp_tautomer_probability>  (158) 
0.999601

>  <r_epik_Ionization_Penalty>  (158) 
0.00135537

>  <r_epik_Ionization_Penalty_Charging>  (158) 
0

>  <r_epik_Ionization_Penalty_Neutral>  (158) 
0.00135537

>  <r_epik_State_Penalty>  (158) 
0.000898811

>  <r_epik_Charging_Adjusted_Penalty>  (158) 
0.000898811

>  <i_epik_Tot_Q>  (158) 
0

>  <i_epik_Tot_abs_Q>  (158) 
0

>  <s_epik_Chemistry_Notes>  (158) 
This compound has an imine and may undergo hydrolysis.

>  <s_lp_Force_Field>  (158) 
OPLS3e

>  <r_lp_Energy>  (158) 
44.5244

>  <b_lp_Chiralities_Consistent>  (158) 
1

>  <s_lp_Variant>  (158) 
56:0-1

>  <s_i_glide_gridfile>  (158) 
pfpi4k_grid

>  <i_i_glide_lignum>  (158) 
32

>  <i_i_glide_rotatable_bonds>  (158) 
2

>  <r_i_docking_score>  (158) 
-3.93037

>  <r_i_glide_ligand_efficiency>  (158) 
-0.18716

>  <r_i_glide_ligand_efficiency_sa>  (158) 
-0.516361

>  <r_i_glide_ligand_efficiency_ln>  (158) 
-0.971775

>  <r_i_glide_gscore>  (158) 
-3.93037

>  <r_i_glide_lipo>  (158) 
-0.620273

>  <r_i_glide_hbond>  (158) 
0

>  <r_i_glide_metal>  (158) 
-0

>  <r_i_glide_rewards>  (158) 
-2.01095

>  <r_i_glide_evdw>  (158) 
-29.3288

>  <r_i_glide_ecoul>  (158) 
-1.75188

>  <r_i_glide_erotb>  (158) 
0.468385

>  <r_i_glide_esite>  (158) 
-0.0383052

>  <r_i_glide_emodel>  (158) 
-38.8349

>  <r_i_glide_energy>  (158) 
-31.0806

>  <r_i_glide_einternal>  (158) 
0.586924

>  <r_i_glide_intrahb_reward>  (158) 
-0

>  <i_i_glide_confnum>  (158) 
1

>  <i_i_glide_posenum>  (158) 
39

>  <r_i_glide_eff_state_penalty>  (158) 
0

>  <ligand_id>  (158) 
56

>  <original_smiles>  (158) 
c1ccc(C2=Nc3nnnn3C(c3ccncc3)C2)nc1

>  <smiles>  (158) 
[H]c1nc(C2=Nc3nnnn3C([H])(c3c([H])c([H])nc([H])c3[H])C2([H])[H])c([H])c([H])c1[H]

$$$$
56:0:2
     RDKit          3D

 32 35  0  0  1  0  0  0  0  0999 V2000
    1.4001  -11.2676    3.6428 C   0  0  0  0  0  0  0  0  0  0  0  0
    0.6069  -10.3986    2.8736 C   0  0  0  0  0  0  0  0  0  0  0  0
    0.3055   -9.1230    3.3801 C   0  0  0  0  0  0  0  0  0  0  0  0
    0.8121   -8.7644    4.6481 C   0  0  0  0  0  0  0  0  0  0  0  0
    0.4679   -7.4444    5.2406 C   0  0  0  0  0  0  0  0  0  0  0  0
    0.4550   -7.2854    6.5185 N   0  0  0  0  0  0  0  0  0  0  0  0
    0.1535   -6.0914    7.1078 C   0  0  0  0  0  0  0  0  0  0  0  0
   -0.1817   -5.7918    8.3569 N   0  0  0  0  0  0  0  0  0  0  0  0
   -0.4047   -4.4232    8.3348 N   0  0  0  0  0  0  0  0  0  0  0  0
   -0.2075   -3.9291    7.1479 N   0  0  0  0  0  0  0  0  0  0  0  0
    0.1466   -4.9747    6.3678 N   0  0  0  0  0  0  0  0  0  0  0  0
    0.4440   -4.8756    4.9566 C   0  0  1  0  0  0  0  0  0  0  0  0
    1.8657   -4.3944    4.6789 C   0  0  0  0  0  0  0  0  0  0  0  0
    2.9754   -4.9488    5.3517 C   0  0  0  0  0  0  0  0  0  0  0  0
    4.2631   -4.4690    5.0446 C   0  0  0  0  0  0  0  0  0  0  0  0
    4.4956   -3.5010    4.1356 N   0  0  0  0  0  0  0  0  0  0  0  0
    3.4360   -2.9734    3.4898 C   0  0  0  0  0  0  0  0  0  0  0  0
    2.1073   -3.3841    3.7221 C   0  0  0  0  0  0  0  0  0  0  0  0
    0.1262   -6.2499    4.3238 C   0  0  0  0  0  0  0  0  0  0  0  0
    1.5800   -9.5961    5.3885 N   0  0  0  0  0  0  0  0  0  0  0  0
    1.8560  -10.8232    4.8966 C   0  0  0  0  0  0  0  0  0  0  0  0
    1.6501  -12.2540    3.2795 H   0  0  0  0  0  0  0  0  0  0  0  0
    0.2246  -10.7059    1.9124 H   0  0  0  0  0  0  0  0  0  0  0  0
   -0.3216   -8.4604    2.8059 H   0  0  0  0  0  0  0  0  0  0  0  0
   -0.2266   -4.1286    4.5356 H   0  0  0  0  0  0  0  0  0  0  0  0
    2.8566   -5.7272    6.0904 H   0  0  0  0  0  0  0  0  0  0  0  0
    5.1293   -4.8750    5.5448 H   0  0  0  0  0  0  0  0  0  0  0  0
    3.6560   -2.2017    2.7675 H   0  0  0  0  0  0  0  0  0  0  0  0
    1.3037   -2.9198    3.1683 H   0  0  0  0  0  0  0  0  0  0  0  0
    0.6122   -6.3455    3.3499 H   0  0  0  0  0  0  0  0  0  0  0  0
   -0.9501   -6.3001    4.1454 H   0  0  0  0  0  0  0  0  0  0  0  0
    2.4637  -11.4692    5.5140 H   0  0  0  0  0  0  0  0  0  0  0  0
  1 21  2  0
  1  2  1  0
  1 22  1  0
  2  3  2  0
  2 23  1  0
  3  4  1  0
  3 24  1  0
  4  5  1  0
  4 20  2  0
  5 19  1  0
  5  6  2  0
  6  7  1  0
  7 11  1  0
  7  8  2  0
  8  9  1  0
  9 10  2  0
 10 11  1  0
 11 12  1  0
 12 13  1  0
 12 19  1  0
 12 25  1  6
 13 18  1  0
 13 14  2  0
 14 15  1  0
 14 26  1  0
 15 16  2  0
 15 27  1  0
 16 17  1  0
 17 18  2  0
 17 28  1  0
 18 29  1  0
 19 30  1  0
 19 31  1  0
 20 21  1  0
 21 32  1  0
M  END
>  <i_m_ct_stereo_status>  (159) 
1

>  <s_m_source_file>  (159) 
/var/tmp/pbs.5076255.sched01/tmpjtt61wjg/4457_394l_.sdf

>  <i_m_source_file_index>  (159) 
32

>  <i_lp_mmshare_version>  (159) 
48012

>  <i_f3d_flags>  (159) 
0

>  <s_epik_input>  (159) 
bjFbY0hdW2NIXVtjSF1bY0hdYzFDKD1OMilbQ0gyXVtDQEBIXShuKGMyMylubm4zKWM0W2NIXVtjSF1uW2NIXVtjSF00

>  <s_epik_cmdline>  (159) 
J2VwaWtfcHl0aG9uJywgJy1waHQnLCAnMi4wJywgJy1waCcsICc3LjAnLCAnLXRuJywgJzgnLCAnLW1hJywgJzIwMCcsICctaW1hZScsICc8aW5maWxlLm1hZT4nLCAnLW9tYWUnLCAnPG91dGZpbGUubWFlPic=

>  <r_lp_tautomer_probability>  (159) 
0.999601

>  <r_epik_Ionization_Penalty>  (159) 
0.00135537

>  <r_epik_Ionization_Penalty_Charging>  (159) 
0

>  <r_epik_Ionization_Penalty_Neutral>  (159) 
0.00135537

>  <r_epik_State_Penalty>  (159) 
0.000898811

>  <r_epik_Charging_Adjusted_Penalty>  (159) 
0.000898811

>  <i_epik_Tot_Q>  (159) 
0

>  <i_epik_Tot_abs_Q>  (159) 
0

>  <s_epik_Chemistry_Notes>  (159) 
This compound has an imine and may undergo hydrolysis.

>  <s_lp_Force_Field>  (159) 
OPLS3e

>  <r_lp_Energy>  (159) 
44.5244

>  <b_lp_Chiralities_Consistent>  (159) 
1

>  <s_lp_Variant>  (159) 
56:0-1

>  <s_i_glide_gridfile>  (159) 
pfpi4k_grid

>  <i_i_glide_lignum>  (159) 
32

>  <i_i_glide_rotatable_bonds>  (159) 
2

>  <r_i_docking_score>  (159) 
-2.9579

>  <r_i_glide_ligand_efficiency>  (159) 
-0.140852

>  <r_i_glide_ligand_efficiency_sa>  (159) 
-0.3886

>  <r_i_glide_ligand_efficiency_ln>  (159) 
-0.731334

>  <r_i_glide_gscore>  (159) 
-2.9579

>  <r_i_glide_lipo>  (159) 
-0.306927

>  <r_i_glide_hbond>  (159) 
0

>  <r_i_glide_metal>  (159) 
-0

>  <r_i_glide_rewards>  (159) 
-1.51852

>  <r_i_glide_evdw>  (159) 
-19.9097

>  <r_i_glide_ecoul>  (159) 
-3.61082

>  <r_i_glide_erotb>  (159) 
0.468385

>  <r_i_glide_esite>  (159) 
-0.0637292

>  <r_i_glide_emodel>  (159) 
-29.333

>  <r_i_glide_energy>  (159) 
-23.5205

>  <r_i_glide_einternal>  (159) 
0.455711

>  <r_i_glide_intrahb_reward>  (159) 
-0

>  <i_i_glide_confnum>  (159) 
2

>  <i_i_glide_posenum>  (159) 
26

>  <r_i_glide_eff_state_penalty>  (159) 
0

>  <ligand_id>  (159) 
56

>  <original_smiles>  (159) 
c1ccc(C2=Nc3nnnn3C(c3ccncc3)C2)nc1

>  <smiles>  (159) 
[H]c1nc(C2=Nc3nnnn3C([H])(c3c([H])c([H])nc([H])c3[H])C2([H])[H])c([H])c([H])c1[H]

$$$$
57:0:0
     RDKit          3D

 58 65  0  0  1  0  0  0  0  0999 V2000
    3.7080   -0.0936    2.6199 C   0  0  0  0  0  0  0  0  0  0  0  0
    4.7550   -1.0468    2.6989 O   0  0  0  0  0  0  0  0  0  0  0  0
    4.3876   -2.3827    2.3424 C   0  0  2  0  0  0  0  0  0  0  0  0
    5.5561   -3.3527    2.6371 C   0  0  2  0  0  0  0  0  0  0  0  0
    6.5457   -3.5206    1.4206 C   0  0  2  0  0  0  0  0  0  0  0  0
    6.7153   -2.1418    0.8171 C   0  0  1  0  0  0  0  0  0  0  0  0
    7.9362   -2.3811   -0.0831 C   0  0  1  0  0  0  0  0  0  0  0  0
    9.1949   -2.7272    0.4733 O   0  0  0  0  0  0  0  0  0  0  0  0
    7.3793   -3.5257   -0.8805 C   0  0  2  0  0  0  0  0  0  0  0  0
    6.6511   -2.7246   -1.9196 C   0  0  0  0  0  0  0  0  0  0  0  0
    5.4476   -2.3369   -1.4891 C   0  0  0  0  0  0  0  0  0  0  0  0
    5.3352   -1.8943    0.0178 C   0  0  1  0  0  0  0  0  0  0  0  0
    4.1062   -2.5453    0.8462 C   0  0  1  0  0  0  0  0  0  0  0  0
    3.7924   -4.0817    0.5632 C   0  0  2  0  0  0  0  0  0  0  0  0
    2.3155   -4.4026    0.1921 C   0  0  0  0  0  0  0  0  0  0  0  0
    2.0225   -4.9678    1.5529 C   0  0  0  0  0  0  0  0  0  0  0  0
    3.5214   -5.1644    1.6780 C   0  0  2  0  0  0  0  0  0  0  0  0
    3.8055   -4.9600    3.0392 O   0  0  0  0  0  0  0  0  0  0  0  0
    5.1282   -4.6417    3.4002 C   0  0  0  0  0  0  0  0  0  0  0  0
    6.0546   -5.8604    3.2225 C   0  0  0  0  0  0  0  0  0  0  0  0
    4.9979   -4.3450    4.9050 C   0  0  0  0  0  0  0  0  0  0  0  0
    4.8413   -4.4550   -0.4744 C   0  0  2  0  0  0  0  0  0  0  0  0
    6.3563   -4.3265    0.0780 C   0  0  2  0  0  0  0  0  0  0  0  0
    4.5837   -3.5328   -1.7256 C   0  0  0  0  0  0  0  0  0  0  0  0
    3.2695   -3.1444   -1.9301 O   0  0  0  0  0  0  0  0  0  0  0  0
    3.1423   -2.7769   -3.2577 C   0  0  0  0  0  0  0  0  0  0  0  0
    4.0972   -3.7603   -3.9168 C   0  0  0  0  0  0  0  0  0  0  0  0
    4.9368   -4.2493   -2.8917 O   0  0  0  0  0  0  0  0  0  0  0  0
    4.0499    0.8574    3.0403 H   0  0  0  0  0  0  0  0  0  0  0  0
    2.8291   -0.4059    3.1909 H   0  0  0  0  0  0  0  0  0  0  0  0
    3.4133    0.0939    1.5911 H   0  0  0  0  0  0  0  0  0  0  0  0
    3.5010   -2.6202    2.9330 H   0  0  0  0  0  0  0  0  0  0  0  0
    6.1511   -2.7979    3.3641 H   0  0  0  0  0  0  0  0  0  0  0  0
    7.4846   -3.8770    1.8527 H   0  0  0  0  0  0  0  0  0  0  0  0
    6.9091   -1.3579    1.5486 H   0  0  0  0  0  0  0  0  0  0  0  0
    8.1828   -1.4959   -0.6473 H   0  0  0  0  0  0  0  0  0  0  0  0
    9.8407   -2.2575   -0.0408 H   0  0  0  0  0  0  0  0  0  0  0  0
    8.2045   -4.1103   -1.3017 H   0  0  0  0  0  0  0  0  0  0  0  0
    7.3079   -2.0471   -2.4281 H   0  0  0  0  0  0  0  0  0  0  0  0
    5.1757   -0.8054   -0.0278 H   0  0  0  0  0  0  0  0  0  0  0  0
    3.2118   -1.9617    0.6023 H   0  0  0  0  0  0  0  0  0  0  0  0
    1.7826   -3.4866   -0.0586 H   0  0  0  0  0  0  0  0  0  0  0  0
    2.2150   -5.1550   -0.5877 H   0  0  0  0  0  0  0  0  0  0  0  0
    1.6208   -4.2279    2.2429 H   0  0  0  0  0  0  0  0  0  0  0  0
    1.4412   -5.8906    1.5439 H   0  0  0  0  0  0  0  0  0  0  0  0
    3.8031   -6.1653    1.3338 H   0  0  0  0  0  0  0  0  0  0  0  0
    7.0705   -5.6335    3.5229 H   0  0  0  0  0  0  0  0  0  0  0  0
    6.0787   -6.2248    2.1950 H   0  0  0  0  0  0  0  0  0  0  0  0
    5.7126   -6.6918    3.8410 H   0  0  0  0  0  0  0  0  0  0  0  0
    5.9614   -4.1014    5.3601 H   0  0  0  0  0  0  0  0  0  0  0  0
    4.5906   -5.2061    5.4334 H   0  0  0  0  0  0  0  0  0  0  0  0
    4.3217   -3.5059    5.0859 H   0  0  0  0  0  0  0  0  0  0  0  0
    4.6668   -5.4860   -0.7981 H   0  0  0  0  0  0  0  0  0  0  0  0
    6.7421   -5.3406    0.2449 H   0  0  0  0  0  0  0  0  0  0  0  0
    2.1250   -2.8562   -3.6258 H   0  0  0  0  0  0  0  0  0  0  0  0
    3.4748   -1.7340   -3.3661 H   0  0  0  0  0  0  0  0  0  0  0  0
    3.5674   -4.6218   -4.3033 H   0  0  0  0  0  0  0  0  0  0  0  0
    4.6565   -3.2859   -4.7199 H   0  0  0  0  0  0  0  0  0  0  0  0
  1  2  1  0
  1 29  1  0
  1 30  1  0
  1 31  1  0
  2  3  1  0
  3 13  1  0
  3  4  1  0
  3 32  1  1
  4 19  1  0
  4  5  1  0
  4 33  1  1
  5 23  1  0
  5  6  1  0
  5 34  1  1
  6 12  1  0
  6  7  1  0
  6 35  1  1
  7  8  1  0
  7  9  1  0
  7 36  1  6
  8 37  1  0
  9 23  1  0
  9 10  1  0
  9 38  1  6
 10 11  2  0
 10 39  1  0
 11 24  1  0
 11 12  1  0
 12 13  1  0
 12 40  1  6
 13 14  1  0
 13 41  1  6
 14 17  1  0
 14 15  1  6
 14 22  1  0
 15 16  1  0
 15 42  1  0
 15 43  1  0
 16 17  1  0
 16 44  1  0
 16 45  1  0
 17 18  1  0
 17 46  1  6
 18 19  1  0
 19 20  1  0
 19 21  1  0
 20 47  1  0
 20 48  1  0
 20 49  1  0
 21 50  1  0
 21 51  1  0
 21 52  1  0
 22 23  1  0
 22 24  1  0
 22 53  1  6
 23 54  1  1
 24 28  1  0
 24 25  1  0
 25 26  1  0
 26 27  1  0
 26 55  1  0
 26 56  1  0
 27 28  1  0
 27 57  1  0
 27 58  1  0
M  END
>  <i_m_ct_stereo_status>  (160) 
1

>  <s_m_source_file>  (160) 
/var/tmp/pbs.5076255.sched01/tmpjtt61wjg/4457_394l_.sdf

>  <i_m_source_file_index>  (160) 
33

>  <i_lp_mmshare_version>  (160) 
48012

>  <i_f3d_flags>  (160) 
0

>  <s_epik_input>  (160) 
W0NIMl0xW0NIMl1bQ0BASF0yT0MoW0NIM10pKFtDSDNdKVtDQEhdKFtDQEhdM09bQ0gzXSlbQ0BIXShbQ0BASF00W0NAQEhdNVtDQEhdM1tDQF0xMjYpW0NAQEhdN1tDQEhdKFtDQEBIXTRbT0hdKVtDSF09QzVDOChbQ0BIXTY3KU9bQ0gyXVtDSDJdTzg=

>  <s_epik_cmdline>  (160) 
J2VwaWtfcHl0aG9uJywgJy1waHQnLCAnMi4wJywgJy1waCcsICc3LjAnLCAnLXRuJywgJzgnLCAnLW1hJywgJzIwMCcsICctaW1hZScsICc8aW5maWxlLm1hZT4nLCAnLW9tYWUnLCAnPG91dGZpbGUubWFlPic=

>  <r_lp_tautomer_probability>  (160) 
1

>  <r_epik_Ionization_Penalty>  (160) 
2.17965e-07

>  <r_epik_Ionization_Penalty_Charging>  (160) 
0

>  <r_epik_Ionization_Penalty_Neutral>  (160) 
2.17965e-07

>  <r_epik_State_Penalty>  (160) 
-0

>  <r_epik_Charging_Adjusted_Penalty>  (160) 
0

>  <i_epik_Tot_Q>  (160) 
0

>  <i_epik_Tot_abs_Q>  (160) 
0

>  <s_lp_Force_Field>  (160) 
OPLS3e

>  <r_lp_Energy>  (160) 
177.368

>  <b_lp_Chiralities_Consistent>  (160) 
1

>  <s_lp_Variant>  (160) 
57:0-1

>  <s_i_glide_gridfile>  (160) 
pfpi4k_grid

>  <i_i_glide_lignum>  (160) 
33

>  <i_i_glide_rotatable_bonds>  (160) 
2

>  <r_i_docking_score>  (160) 
-2.39738

>  <r_i_glide_ligand_efficiency>  (160) 
-0.0856207

>  <r_i_glide_ligand_efficiency_sa>  (160) 
-0.259995

>  <r_i_glide_ligand_efficiency_ln>  (160) 
-0.553386

>  <r_i_glide_gscore>  (160) 
-2.39738

>  <r_i_glide_lipo>  (160) 
-0.582407

>  <r_i_glide_hbond>  (160) 
-0.0743035

>  <r_i_glide_metal>  (160) 
-0

>  <r_i_glide_rewards>  (160) 
-0.773991

>  <r_i_glide_evdw>  (160) 
-21.7758

>  <r_i_glide_ecoul>  (160) 
0.863266

>  <r_i_glide_erotb>  (160) 
0

>  <r_i_glide_esite>  (160) 
-0.00737997

>  <r_i_glide_emodel>  (160) 
-21.294

>  <r_i_glide_energy>  (160) 
-20.9125

>  <r_i_glide_einternal>  (160) 
0.954356

>  <r_i_glide_intrahb_reward>  (160) 
-0

>  <i_i_glide_confnum>  (160) 
6

>  <i_i_glide_posenum>  (160) 
28

>  <r_i_glide_eff_state_penalty>  (160) 
0

>  <ligand_id>  (160) 
57

>  <original_smiles>  (160) 
COC1C2C3C4C(O)C5C=C6C4C1C1(CCC1OC2(C)C)C(C53)C61OCCO1

>  <smiles>  (160) 
[H]OC1([H])C2([H])C([H])=C3C4(OC([H])([H])C([H])([H])O4)C4([H])C2([H])C2([H])C1([H])C3([H])C1([H])C([H])(OC([H])([H])[H])C2([H])C(C([H])([H])[H])(C([H])([H])[H])OC2([H])C([H])([H])C([H])([H])C214

$$$$
58:0:0
     RDKit          3D

 27 30  0  0  1  0  0  0  0  0999 V2000
   -1.9198   -0.8589    5.6789 O   0  0  0  0  0  0  0  0  0  0  0  0
   -1.1901   -0.3004    4.8617 C   0  0  0  0  0  0  0  0  0  0  0  0
   -1.4410    1.0619    4.5353 N   0  0  0  0  0  0  0  0  0  0  0  0
   -0.7269    1.6847    3.6616 C   0  0  0  0  0  0  0  0  0  0  0  0
    0.3917    1.0374    2.9768 C   0  0  0  0  0  0  0  0  0  0  0  0
    1.3514    1.4164    2.0481 N   0  0  0  0  0  0  0  0  0  0  0  0
    2.1031    0.3817    1.8110 N   0  0  0  0  0  0  0  0  0  0  0  0
    1.6801   -0.6554    2.6012 N   0  0  0  0  0  0  0  0  0  0  0  0
    2.3618   -1.9470    2.6060 C   0  0  0  0  0  0  0  0  0  0  0  0
    3.5541   -2.0049    1.6610 C   0  0  0  0  0  0  0  0  0  0  0  0
    4.7220   -1.2575    1.9494 C   0  0  0  0  0  0  0  0  0  0  0  0
    5.8167   -1.2579    1.0574 C   0  0  0  0  0  0  0  0  0  0  0  0
    5.7594   -2.0246   -0.1284 C   0  0  0  0  0  0  0  0  0  0  0  0
    6.6638   -2.2249   -1.1573 N   0  0  0  0  0  0  0  0  0  0  0  0
    6.0022   -3.0582   -1.9746 C   0  0  0  0  0  0  0  0  0  0  0  0
    4.7443   -3.4324   -1.5883 O   0  0  0  0  0  0  0  0  0  0  0  0
    4.5831   -2.7641   -0.3892 C   0  0  0  0  0  0  0  0  0  0  0  0
    3.4803   -2.7686    0.4772 C   0  0  0  0  0  0  0  0  0  0  0  0
    0.5917   -0.2448    3.3367 C   0  0  0  0  0  0  0  0  0  0  0  0
   -0.1386   -0.9535    4.2510 N   0  0  0  0  0  0  0  0  0  0  0  0
   -0.9298    2.7257    3.4049 H   0  0  0  0  0  0  0  0  0  0  0  0
    2.7096   -2.1505    3.6198 H   0  0  0  0  0  0  0  0  0  0  0  0
    1.6352   -2.7236    2.3583 H   0  0  0  0  0  0  0  0  0  0  0  0
    4.7564   -0.6525    2.8448 H   0  0  0  0  0  0  0  0  0  0  0  0
    6.6937   -0.6712    1.2828 H   0  0  0  0  0  0  0  0  0  0  0  0
    6.4295   -3.4446   -2.8913 H   0  0  0  0  0  0  0  0  0  0  0  0
    2.5983   -3.3331    0.2208 H   0  0  0  0  0  0  0  0  0  0  0  0
  1  2  2  0
  2 20  1  0
  2  3  1  0
  3  4  2  0
  4  5  1  0
  4 21  1  0
  5 19  2  0
  5  6  1  0
  6  7  2  0
  7  8  1  0
  8  9  1  0
  8 19  1  0
  9 10  1  0
  9 22  1  0
  9 23  1  0
 10 18  1  0
 10 11  2  0
 11 12  1  0
 11 24  1  0
 12 13  2  0
 12 25  1  0
 13 17  1  0
 13 14  1  0
 14 15  2  0
 15 16  1  0
 15 26  1  0
 16 17  1  0
 17 18  2  0
 18 27  1  0
 19 20  1  0
M  CHG  1  20  -1
M  END
>  <i_m_ct_stereo_status>  (161) 
1

>  <s_m_source_file>  (161) 
/var/tmp/pbs.5076255.sched01/tmpjtt61wjg/4457_394l_.sdf

>  <i_m_source_file_index>  (161) 
34

>  <i_lp_mmshare_version>  (161) 
48012

>  <i_f3d_flags>  (161) 
0

>  <s_epik_input>  (161) 
W2NIXTFuYyg9TylbbkhdYyhjMTIpbihubjIpW0NIMl1jKFtjSF1bY0hdMylbY0hdYyhjMzQpb1tjSF1uNA==

>  <s_epik_cmdline>  (161) 
J2VwaWtfcHl0aG9uJywgJy1waHQnLCAnMi4wJywgJy1waCcsICc3LjAnLCAnLXRuJywgJzgnLCAnLW1hJywgJzIwMCcsICctaW1hZScsICc8aW5maWxlLm1hZT4nLCAnLW9tYWUnLCAnPG91dGZpbGUubWFlPic=

>  <r_epik_Ionization_Penalty>  (161) 
0.0467374

>  <r_epik_Ionization_Penalty_Charging>  (161) 
0.00796689

>  <r_epik_Ionization_Penalty_Neutral>  (161) 
0.0387705

>  <r_epik_State_Penalty>  (161) 
0.0363374

>  <r_epik_Charging_Adjusted_Penalty>  (161) 
0.0443043

>  <i_epik_Tot_Q>  (161) 
-1

>  <i_epik_Tot_abs_Q>  (161) 
1

>  <s_lp_Force_Field>  (161) 
OPLS3e

>  <r_lp_Energy>  (161) 
45.2997

>  <b_lp_Chiralities_Consistent>  (161) 
1

>  <s_lp_Variant>  (161) 
58:0-1

>  <s_i_glide_gridfile>  (161) 
pfpi4k_grid

>  <i_i_glide_lignum>  (161) 
34

>  <i_i_glide_rotatable_bonds>  (161) 
2

>  <r_i_docking_score>  (161) 
-3.38504

>  <r_i_glide_ligand_efficiency>  (161) 
-0.169252

>  <r_i_glide_ligand_efficiency_sa>  (161) 
-0.459421

>  <r_i_glide_ligand_efficiency_ln>  (161) 
-0.847164

>  <r_i_glide_gscore>  (161) 
-3.38504

>  <r_i_glide_lipo>  (161) 
-0.333532

>  <r_i_glide_hbond>  (161) 
-0.205439

>  <r_i_glide_metal>  (161) 
-0

>  <r_i_glide_rewards>  (161) 
-1.58712

>  <r_i_glide_evdw>  (161) 
-26.524

>  <r_i_glide_ecoul>  (161) 
-1.75688

>  <r_i_glide_erotb>  (161) 
0.499335

>  <r_i_glide_esite>  (161) 
-0.168558

>  <r_i_glide_emodel>  (161) 
-34.7775

>  <r_i_glide_energy>  (161) 
-28.2809

>  <r_i_glide_einternal>  (161) 
1.94557

>  <r_i_glide_intrahb_reward>  (161) 
-0

>  <i_i_glide_confnum>  (161) 
2

>  <i_i_glide_posenum>  (161) 
20

>  <r_i_glide_eff_state_penalty>  (161) 
0

>  <ligand_id>  (161) 
58

>  <original_smiles>  (161) 
O=c1ncc2nnn(Cc3ccc4ncoc4c3)c2[nH]1

>  <smiles>  (161) 
[H]c1nc2c([H])c([H])c(C([H])([H])n3nnc4c([H])nc(=O)[n-]c43)c([H])c2o1

$$$$
58:0:1
     RDKit          3D

 27 30  0  0  1  0  0  0  0  0999 V2000
    4.6163   -4.0888   -4.3201 O   0  0  0  0  0  0  0  0  0  0  0  0
    4.5177   -3.2771   -3.3997 C   0  0  0  0  0  0  0  0  0  0  0  0
    3.6608   -2.1500   -3.5568 N   0  0  0  0  0  0  0  0  0  0  0  0
    3.4966   -1.2984   -2.6003 C   0  0  0  0  0  0  0  0  0  0  0  0
    4.1933   -1.4333   -1.3109 C   0  0  0  0  0  0  0  0  0  0  0  0
    4.2695   -0.7284   -0.1084 N   0  0  0  0  0  0  0  0  0  0  0  0
    5.0871   -1.3684    0.6853 N   0  0  0  0  0  0  0  0  0  0  0  0
    5.5517   -2.4662    0.0195 N   0  0  0  0  0  0  0  0  0  0  0  0
    6.4779   -3.3780    0.6664 C   0  0  0  0  0  0  0  0  0  0  0  0
    5.7554   -4.5691    1.2720 C   0  0  0  0  0  0  0  0  0  0  0  0
    5.3346   -4.5403    2.6224 C   0  0  0  0  0  0  0  0  0  0  0  0
    4.6610   -5.6492    3.1857 C   0  0  0  0  0  0  0  0  0  0  0  0
    4.4005   -6.7988    2.4040 C   0  0  0  0  0  0  0  0  0  0  0  0
    3.7693   -8.0001    2.6786 N   0  0  0  0  0  0  0  0  0  0  0  0
    3.8598   -8.6630    1.5141 C   0  0  0  0  0  0  0  0  0  0  0  0
    4.4892   -8.0104    0.4871 O   0  0  0  0  0  0  0  0  0  0  0  0
    4.8350   -6.7988    1.0597 C   0  0  0  0  0  0  0  0  0  0  0  0
    5.4987   -5.7074    0.4809 C   0  0  0  0  0  0  0  0  0  0  0  0
    5.0053   -2.5043   -1.2412 C   0  0  0  0  0  0  0  0  0  0  0  0
    5.2300   -3.4162   -2.2276 N   0  0  0  0  0  0  0  0  0  0  0  0
    2.8297   -0.4414   -2.7251 H   0  0  0  0  0  0  0  0  0  0  0  0
    7.2172   -3.7125   -0.0660 H   0  0  0  0  0  0  0  0  0  0  0  0
    7.0175   -2.8437    1.4486 H   0  0  0  0  0  0  0  0  0  0  0  0
    5.5264   -3.6626    3.2231 H   0  0  0  0  0  0  0  0  0  0  0  0
    4.3432   -5.6201    4.2148 H   0  0  0  0  0  0  0  0  0  0  0  0
    3.4589   -9.6605    1.3707 H   0  0  0  0  0  0  0  0  0  0  0  0
    5.7869   -5.7369   -0.5588 H   0  0  0  0  0  0  0  0  0  0  0  0
  1  2  2  0
  2 20  1  0
  2  3  1  0
  3  4  2  0
  4  5  1  0
  4 21  1  0
  5 19  2  0
  5  6  1  0
  6  7  2  0
  7  8  1  0
  8  9  1  0
  8 19  1  0
  9 10  1  0
  9 22  1  0
  9 23  1  0
 10 18  1  0
 10 11  2  0
 11 12  1  0
 11 24  1  0
 12 13  2  0
 12 25  1  0
 13 17  1  0
 13 14  1  0
 14 15  2  0
 15 16  1  0
 15 26  1  0
 16 17  1  0
 17 18  2  0
 18 27  1  0
 19 20  1  0
M  CHG  1  20  -1
M  END
>  <i_m_ct_stereo_status>  (162) 
1

>  <s_m_source_file>  (162) 
/var/tmp/pbs.5076255.sched01/tmpjtt61wjg/4457_394l_.sdf

>  <i_m_source_file_index>  (162) 
34

>  <i_lp_mmshare_version>  (162) 
48012

>  <i_f3d_flags>  (162) 
0

>  <s_epik_input>  (162) 
W2NIXTFuYyg9TylbbkhdYyhjMTIpbihubjIpW0NIMl1jKFtjSF1bY0hdMylbY0hdYyhjMzQpb1tjSF1uNA==

>  <s_epik_cmdline>  (162) 
J2VwaWtfcHl0aG9uJywgJy1waHQnLCAnMi4wJywgJy1waCcsICc3LjAnLCAnLXRuJywgJzgnLCAnLW1hJywgJzIwMCcsICctaW1hZScsICc8aW5maWxlLm1hZT4nLCAnLW9tYWUnLCAnPG91dGZpbGUubWFlPic=

>  <r_epik_Ionization_Penalty>  (162) 
0.0467374

>  <r_epik_Ionization_Penalty_Charging>  (162) 
0.00796689

>  <r_epik_Ionization_Penalty_Neutral>  (162) 
0.0387705

>  <r_epik_State_Penalty>  (162) 
0.0363374

>  <r_epik_Charging_Adjusted_Penalty>  (162) 
0.0443043

>  <i_epik_Tot_Q>  (162) 
-1

>  <i_epik_Tot_abs_Q>  (162) 
1

>  <s_lp_Force_Field>  (162) 
OPLS3e

>  <r_lp_Energy>  (162) 
45.2997

>  <b_lp_Chiralities_Consistent>  (162) 
1

>  <s_lp_Variant>  (162) 
58:0-1

>  <s_i_glide_gridfile>  (162) 
pfpi4k_grid

>  <i_i_glide_lignum>  (162) 
34

>  <i_i_glide_rotatable_bonds>  (162) 
2

>  <r_i_docking_score>  (162) 
-3.11079

>  <r_i_glide_ligand_efficiency>  (162) 
-0.15554

>  <r_i_glide_ligand_efficiency_sa>  (162) 
-0.4222

>  <r_i_glide_ligand_efficiency_ln>  (162) 
-0.778529

>  <r_i_glide_gscore>  (162) 
-3.11079

>  <r_i_glide_lipo>  (162) 
-0.37493

>  <r_i_glide_hbond>  (162) 
0

>  <r_i_glide_metal>  (162) 
-0

>  <r_i_glide_rewards>  (162) 
-1.86403

>  <r_i_glide_evdw>  (162) 
-27.8071

>  <r_i_glide_ecoul>  (162) 
0.253897

>  <r_i_glide_erotb>  (162) 
0.499335

>  <r_i_glide_esite>  (162) 
-0.0189018

>  <r_i_glide_emodel>  (162) 
-34.4708

>  <r_i_glide_energy>  (162) 
-27.5532

>  <r_i_glide_einternal>  (162) 
0.0382496

>  <r_i_glide_intrahb_reward>  (162) 
-0

>  <i_i_glide_confnum>  (162) 
1

>  <i_i_glide_posenum>  (162) 
38

>  <r_i_glide_eff_state_penalty>  (162) 
0

>  <ligand_id>  (162) 
58

>  <original_smiles>  (162) 
O=c1ncc2nnn(Cc3ccc4ncoc4c3)c2[nH]1

>  <smiles>  (162) 
[H]c1nc2c([H])c([H])c(C([H])([H])n3nnc4c([H])nc(=O)[n-]c43)c([H])c2o1

$$$$
58:0:2
     RDKit          3D

 27 30  0  0  1  0  0  0  0  0999 V2000
    4.6053   -3.8809   -4.3159 O   0  0  0  0  0  0  0  0  0  0  0  0
    4.5304   -3.0988   -3.3695 C   0  0  0  0  0  0  0  0  0  0  0  0
    4.2123   -1.7327   -3.6172 N   0  0  0  0  0  0  0  0  0  0  0  0
    4.1030   -0.8899   -2.6429 C   0  0  0  0  0  0  0  0  0  0  0  0
    4.2959   -1.2890   -1.2376 C   0  0  0  0  0  0  0  0  0  0  0  0
    4.2729   -0.6768    0.0165 N   0  0  0  0  0  0  0  0  0  0  0  0
    4.5209   -1.5928    0.9167 N   0  0  0  0  0  0  0  0  0  0  0  0
    4.7262   -2.7787    0.2704 N   0  0  0  0  0  0  0  0  0  0  0  0
    5.0242   -3.9881    1.0207 C   0  0  0  0  0  0  0  0  0  0  0  0
    3.7622   -4.6117    1.5914 C   0  0  0  0  0  0  0  0  0  0  0  0
    3.2956   -4.2303    2.8716 C   0  0  0  0  0  0  0  0  0  0  0  0
    2.1221   -4.8056    3.4099 C   0  0  0  0  0  0  0  0  0  0  0  0
    1.4023   -5.7734    2.6727 C   0  0  0  0  0  0  0  0  0  0  0  0
    0.2221   -6.4584    2.9184 N   0  0  0  0  0  0  0  0  0  0  0  0
    0.0924   -7.2362    1.8336 C   0  0  0  0  0  0  0  0  0  0  0  0
    1.0222   -7.0583    0.8498 O   0  0  0  0  0  0  0  0  0  0  0  0
    1.8920   -6.1335    1.3976 C   0  0  0  0  0  0  0  0  0  0  0  0
    3.0527   -5.5735    0.8410 C   0  0  0  0  0  0  0  0  0  0  0  0
    4.6028   -2.5872   -1.0837 C   0  0  0  0  0  0  0  0  0  0  0  0
    4.7681   -3.5030   -2.0765 N   0  0  0  0  0  0  0  0  0  0  0  0
    3.8727    0.1588   -2.8361 H   0  0  0  0  0  0  0  0  0  0  0  0
    5.5381   -4.7004    0.3699 H   0  0  0  0  0  0  0  0  0  0  0  0
    5.7093   -3.7407    1.8317 H   0  0  0  0  0  0  0  0  0  0  0  0
    3.8406   -3.4885    3.4394 H   0  0  0  0  0  0  0  0  0  0  0  0
    1.7680   -4.4993    4.3811 H   0  0  0  0  0  0  0  0  0  0  0  0
   -0.7306   -7.9255    1.6877 H   0  0  0  0  0  0  0  0  0  0  0  0
    3.3849   -5.8592   -0.1496 H   0  0  0  0  0  0  0  0  0  0  0  0
  1  2  2  0
  2 20  1  0
  2  3  1  0
  3  4  2  0
  4  5  1  0
  4 21  1  0
  5 19  2  0
  5  6  1  0
  6  7  2  0
  7  8  1  0
  8  9  1  0
  8 19  1  0
  9 10  1  0
  9 22  1  0
  9 23  1  0
 10 18  1  0
 10 11  2  0
 11 12  1  0
 11 24  1  0
 12 13  2  0
 12 25  1  0
 13 17  1  0
 13 14  1  0
 14 15  2  0
 15 16  1  0
 15 26  1  0
 16 17  1  0
 17 18  2  0
 18 27  1  0
 19 20  1  0
M  CHG  1  20  -1
M  END
>  <i_m_ct_stereo_status>  (163) 
1

>  <s_m_source_file>  (163) 
/var/tmp/pbs.5076255.sched01/tmpjtt61wjg/4457_394l_.sdf

>  <i_m_source_file_index>  (163) 
34

>  <i_lp_mmshare_version>  (163) 
48012

>  <i_f3d_flags>  (163) 
0

>  <s_epik_input>  (163) 
W2NIXTFuYyg9TylbbkhdYyhjMTIpbihubjIpW0NIMl1jKFtjSF1bY0hdMylbY0hdYyhjMzQpb1tjSF1uNA==

>  <s_epik_cmdline>  (163) 
J2VwaWtfcHl0aG9uJywgJy1waHQnLCAnMi4wJywgJy1waCcsICc3LjAnLCAnLXRuJywgJzgnLCAnLW1hJywgJzIwMCcsICctaW1hZScsICc8aW5maWxlLm1hZT4nLCAnLW9tYWUnLCAnPG91dGZpbGUubWFlPic=

>  <r_epik_Ionization_Penalty>  (163) 
0.0467374

>  <r_epik_Ionization_Penalty_Charging>  (163) 
0.00796689

>  <r_epik_Ionization_Penalty_Neutral>  (163) 
0.0387705

>  <r_epik_State_Penalty>  (163) 
0.0363374

>  <r_epik_Charging_Adjusted_Penalty>  (163) 
0.0443043

>  <i_epik_Tot_Q>  (163) 
-1

>  <i_epik_Tot_abs_Q>  (163) 
1

>  <s_lp_Force_Field>  (163) 
OPLS3e

>  <r_lp_Energy>  (163) 
45.2997

>  <b_lp_Chiralities_Consistent>  (163) 
1

>  <s_lp_Variant>  (163) 
58:0-1

>  <s_i_glide_gridfile>  (163) 
pfpi4k_grid

>  <i_i_glide_lignum>  (163) 
34

>  <i_i_glide_rotatable_bonds>  (163) 
2

>  <r_i_docking_score>  (163) 
-3.09846

>  <r_i_glide_ligand_efficiency>  (163) 
-0.154923

>  <r_i_glide_ligand_efficiency_sa>  (163) 
-0.420526

>  <r_i_glide_ligand_efficiency_ln>  (163) 
-0.775443

>  <r_i_glide_gscore>  (163) 
-3.09846

>  <r_i_glide_lipo>  (163) 
-0.080194

>  <r_i_glide_hbond>  (163) 
-0.11246

>  <r_i_glide_metal>  (163) 
-0

>  <r_i_glide_rewards>  (163) 
-1.83451

>  <r_i_glide_evdw>  (163) 
-28.0944

>  <r_i_glide_ecoul>  (163) 
-1.01986

>  <r_i_glide_erotb>  (163) 
0.499335

>  <r_i_glide_esite>  (163) 
-0.0129363

>  <r_i_glide_emodel>  (163) 
-35.9882

>  <r_i_glide_energy>  (163) 
-29.1143

>  <r_i_glide_einternal>  (163) 
0.0476536

>  <r_i_glide_intrahb_reward>  (163) 
-0

>  <i_i_glide_confnum>  (163) 
5

>  <i_i_glide_posenum>  (163) 
5

>  <r_i_glide_eff_state_penalty>  (163) 
0

>  <ligand_id>  (163) 
58

>  <original_smiles>  (163) 
O=c1ncc2nnn(Cc3ccc4ncoc4c3)c2[nH]1

>  <smiles>  (163) 
[H]c1nc2c([H])c([H])c(C([H])([H])n3nnc4c([H])nc(=O)[n-]c43)c([H])c2o1

$$$$
58:1:0
     RDKit          3D

 28 31  0  0  1  0  0  0  0  0999 V2000
    0.5722   -6.6585    0.5225 O   0  0  0  0  0  0  0  0  0  0  0  0
    1.4923   -6.2351    1.2157 C   0  0  0  0  0  0  0  0  0  0  0  0
    1.3630   -6.0642    2.6179 N   0  0  0  0  0  0  0  0  0  0  0  0
    2.3350   -5.5840    3.3177 C   0  0  0  0  0  0  0  0  0  0  0  0
    3.6125   -5.1768    2.7092 C   0  0  0  0  0  0  0  0  0  0  0  0
    4.8167   -4.6387    3.1492 N   0  0  0  0  0  0  0  0  0  0  0  0
    5.5933   -4.4952    2.1096 N   0  0  0  0  0  0  0  0  0  0  0  0
    4.9101   -4.9171    1.0036 N   0  0  0  0  0  0  0  0  0  0  0  0
    5.5306   -4.8228   -0.3035 C   0  0  0  0  0  0  0  0  0  0  0  0
    5.1114   -3.5601   -1.0361 C   0  0  0  0  0  0  0  0  0  0  0  0
    5.1647   -2.3021   -0.3878 C   0  0  0  0  0  0  0  0  0  0  0  0
    4.7456   -1.1311   -1.0530 C   0  0  0  0  0  0  0  0  0  0  0  0
    4.2711   -1.2061   -2.3787 C   0  0  0  0  0  0  0  0  0  0  0  0
    3.8130   -0.2514   -3.2609 N   0  0  0  0  0  0  0  0  0  0  0  0
    3.5018   -0.9646   -4.3459 C   0  0  0  0  0  0  0  0  0  0  0  0
    3.7713   -2.3044   -4.2978 O   0  0  0  0  0  0  0  0  0  0  0  0
    4.2482   -2.4688   -3.0115 C   0  0  0  0  0  0  0  0  0  0  0  0
    4.6639   -3.6425   -2.3721 C   0  0  0  0  0  0  0  0  0  0  0  0
    3.6571   -5.3567    1.3775 C   0  0  0  0  0  0  0  0  0  0  0  0
    2.6588   -5.8562    0.6167 N   0  0  0  0  0  0  0  0  0  0  0  0
    2.7897   -5.9343   -0.3853 H   0  0  0  0  0  0  0  0  0  0  0  0
    2.2382   -5.4613    4.4010 H   0  0  0  0  0  0  0  0  0  0  0  0
    6.6162   -4.8139   -0.1903 H   0  0  0  0  0  0  0  0  0  0  0  0
    5.2673   -5.7122   -0.8775 H   0  0  0  0  0  0  0  0  0  0  0  0
    5.5102   -2.2304    0.6330 H   0  0  0  0  0  0  0  0  0  0  0  0
    4.7692   -0.1819   -0.5405 H   0  0  0  0  0  0  0  0  0  0  0  0
    3.1084   -0.5175   -5.2485 H   0  0  0  0  0  0  0  0  0  0  0  0
    4.6151   -4.5864   -2.8951 H   0  0  0  0  0  0  0  0  0  0  0  0
  1  2  2  0
  2 20  1  0
  2  3  1  0
  3  4  2  0
  4  5  1  0
  4 22  1  0
  5 19  2  0
  5  6  1  0
  6  7  2  0
  7  8  1  0
  8  9  1  0
  8 19  1  0
  9 10  1  0
  9 23  1  0
  9 24  1  0
 10 18  1  0
 10 11  2  0
 11 12  1  0
 11 25  1  0
 12 13  2  0
 12 26  1  0
 13 17  1  0
 13 14  1  0
 14 15  2  0
 15 16  1  0
 15 27  1  0
 16 17  1  0
 17 18  2  0
 18 28  1  0
 19 20  1  0
 20 21  1  0
M  END
>  <i_m_ct_stereo_status>  (164) 
1

>  <s_m_source_file>  (164) 
/var/tmp/pbs.5076255.sched01/tmpjtt61wjg/4457_394l_.sdf

>  <i_m_source_file_index>  (164) 
35

>  <i_lp_mmshare_version>  (164) 
48012

>  <i_f3d_flags>  (164) 
0

>  <s_epik_input>  (164) 
W2NIXTFuYyg9TylbbkhdYyhjMTIpbihubjIpW0NIMl1jKFtjSF1bY0hdMylbY0hdYyhjMzQpb1tjSF1uNA==

>  <s_epik_cmdline>  (164) 
J2VwaWtfcHl0aG9uJywgJy1waHQnLCAnMi4wJywgJy1waCcsICc3LjAnLCAnLXRuJywgJzgnLCAnLW1hJywgJzIwMCcsICctaW1hZScsICc8aW5maWxlLm1hZT4nLCAnLW9tYWUnLCAnPG91dGZpbGUubWFlPic=

>  <r_epik_Ionization_Penalty>  (164) 
1.91169

>  <r_epik_Ionization_Penalty_Charging>  (164) 
1.91169

>  <r_epik_Ionization_Penalty_Neutral>  (164) 
1.09256e-07

>  <r_epik_State_Penalty>  (164) 
2.05065

>  <r_epik_Charging_Adjusted_Penalty>  (164) 
3.96234

>  <i_epik_Tot_Q>  (164) 
0

>  <i_epik_Tot_abs_Q>  (164) 
0

>  <s_lp_Force_Field>  (164) 
OPLS3e

>  <r_lp_Energy>  (164) 
37.8851

>  <b_lp_Chiralities_Consistent>  (164) 
1

>  <s_lp_Variant>  (164) 
58:0-2

>  <s_i_glide_gridfile>  (164) 
pfpi4k_grid

>  <i_i_glide_lignum>  (164) 
35

>  <i_i_glide_rotatable_bonds>  (164) 
2

>  <r_i_docking_score>  (164) 
-4.16971

>  <r_i_glide_ligand_efficiency>  (164) 
-0.208485

>  <r_i_glide_ligand_efficiency_sa>  (164) 
-0.565916

>  <r_i_glide_ligand_efficiency_ln>  (164) 
-1.04354

>  <r_i_glide_gscore>  (164) 
-4.16971

>  <r_i_glide_lipo>  (164) 
-0.28268

>  <r_i_glide_hbond>  (164) 
-0.666358

>  <r_i_glide_metal>  (164) 
-0

>  <r_i_glide_rewards>  (164) 
-1.66834

>  <r_i_glide_evdw>  (164) 
-27.8477

>  <r_i_glide_ecoul>  (164) 
-3.7295

>  <r_i_glide_erotb>  (164) 
0.496097

>  <r_i_glide_esite>  (164) 
-0.096618

>  <r_i_glide_emodel>  (164) 
-40.0978

>  <r_i_glide_energy>  (164) 
-31.5772

>  <r_i_glide_einternal>  (164) 
0.481007

>  <r_i_glide_intrahb_reward>  (164) 
-0

>  <i_i_glide_confnum>  (164) 
6

>  <i_i_glide_posenum>  (164) 
37

>  <r_i_glide_eff_state_penalty>  (164) 
0

>  <ligand_id>  (164) 
58

>  <original_smiles>  (164) 
O=c1ncc2nnn(Cc3ccc4ncoc4c3)c2[nH]1

>  <smiles>  (164) 
[H]c1nc2c([H])c([H])c(C([H])([H])n3nnc4c([H])nc(=O)n([H])c43)c([H])c2o1

$$$$
58:1:1
     RDKit          3D

 28 31  0  0  1  0  0  0  0  0999 V2000
    2.9313   -3.4178   -4.1877 O   0  0  0  0  0  0  0  0  0  0  0  0
    3.4600   -2.7577   -3.2996 C   0  0  0  0  0  0  0  0  0  0  0  0
    3.6661   -1.3598   -3.4152 N   0  0  0  0  0  0  0  0  0  0  0  0
    4.2055   -0.6924   -2.4547 C   0  0  0  0  0  0  0  0  0  0  0  0
    4.6576   -1.3352   -1.2075 C   0  0  0  0  0  0  0  0  0  0  0  0
    5.2974   -0.9379   -0.0388 N   0  0  0  0  0  0  0  0  0  0  0  0
    5.4688   -1.9971    0.7054 N   0  0  0  0  0  0  0  0  0  0  0  0
    4.9748   -3.0769    0.0299 N   0  0  0  0  0  0  0  0  0  0  0  0
    5.0881   -4.3996    0.6153 C   0  0  0  0  0  0  0  0  0  0  0  0
    3.7971   -4.8482    1.2732 C   0  0  0  0  0  0  0  0  0  0  0  0
    3.4082   -4.3161    2.5264 C   0  0  0  0  0  0  0  0  0  0  0  0
    2.2195   -4.7516    3.1564 C   0  0  0  0  0  0  0  0  0  0  0  0
    1.4143   -5.7331    2.5406 C   0  0  0  0  0  0  0  0  0  0  0  0
    0.2117   -6.3180    2.8955 N   0  0  0  0  0  0  0  0  0  0  0  0
   -0.0165   -7.1767    1.8890 C   0  0  0  0  0  0  0  0  0  0  0  0
    0.8860   -7.1570    0.8661 O   0  0  0  0  0  0  0  0  0  0  0  0
    1.8264   -6.2427    1.2905 C   0  0  0  0  0  0  0  0  0  0  0  0
    2.9960   -5.8220    0.6441 C   0  0  0  0  0  0  0  0  0  0  0  0
    4.4530   -2.6630   -1.1798 C   0  0  0  0  0  0  0  0  0  0  0  0
    3.8793   -3.3879   -2.1654 N   0  0  0  0  0  0  0  0  0  0  0  0
    3.7436   -4.3862   -2.0574 H   0  0  0  0  0  0  0  0  0  0  0  0
    4.3424    0.3897   -2.5396 H   0  0  0  0  0  0  0  0  0  0  0  0
    5.3909   -5.1035   -0.1619 H   0  0  0  0  0  0  0  0  0  0  0  0
    5.8814   -4.3959    1.3664 H   0  0  0  0  0  0  0  0  0  0  0  0
    4.0258   -3.5745    3.0126 H   0  0  0  0  0  0  0  0  0  0  0  0
    1.9222   -4.3370    4.1079 H   0  0  0  0  0  0  0  0  0  0  0  0
   -0.8841   -7.8216    1.8310 H   0  0  0  0  0  0  0  0  0  0  0  0
    3.2728   -6.2457   -0.3109 H   0  0  0  0  0  0  0  0  0  0  0  0
  1  2  2  0
  2 20  1  0
  2  3  1  0
  3  4  2  0
  4  5  1  0
  4 22  1  0
  5 19  2  0
  5  6  1  0
  6  7  2  0
  7  8  1  0
  8  9  1  0
  8 19  1  0
  9 10  1  0
  9 23  1  0
  9 24  1  0
 10 18  1  0
 10 11  2  0
 11 12  1  0
 11 25  1  0
 12 13  2  0
 12 26  1  0
 13 17  1  0
 13 14  1  0
 14 15  2  0
 15 16  1  0
 15 27  1  0
 16 17  1  0
 17 18  2  0
 18 28  1  0
 19 20  1  0
 20 21  1  0
M  END
>  <i_m_ct_stereo_status>  (165) 
1

>  <s_m_source_file>  (165) 
/var/tmp/pbs.5076255.sched01/tmpjtt61wjg/4457_394l_.sdf

>  <i_m_source_file_index>  (165) 
35

>  <i_lp_mmshare_version>  (165) 
48012

>  <i_f3d_flags>  (165) 
0

>  <s_epik_input>  (165) 
W2NIXTFuYyg9TylbbkhdYyhjMTIpbihubjIpW0NIMl1jKFtjSF1bY0hdMylbY0hdYyhjMzQpb1tjSF1uNA==

>  <s_epik_cmdline>  (165) 
J2VwaWtfcHl0aG9uJywgJy1waHQnLCAnMi4wJywgJy1waCcsICc3LjAnLCAnLXRuJywgJzgnLCAnLW1hJywgJzIwMCcsICctaW1hZScsICc8aW5maWxlLm1hZT4nLCAnLW9tYWUnLCAnPG91dGZpbGUubWFlPic=

>  <r_epik_Ionization_Penalty>  (165) 
1.91169

>  <r_epik_Ionization_Penalty_Charging>  (165) 
1.91169

>  <r_epik_Ionization_Penalty_Neutral>  (165) 
1.09256e-07

>  <r_epik_State_Penalty>  (165) 
2.05065

>  <r_epik_Charging_Adjusted_Penalty>  (165) 
3.96234

>  <i_epik_Tot_Q>  (165) 
0

>  <i_epik_Tot_abs_Q>  (165) 
0

>  <s_lp_Force_Field>  (165) 
OPLS3e

>  <r_lp_Energy>  (165) 
37.8851

>  <b_lp_Chiralities_Consistent>  (165) 
1

>  <s_lp_Variant>  (165) 
58:0-2

>  <s_i_glide_gridfile>  (165) 
pfpi4k_grid

>  <i_i_glide_lignum>  (165) 
35

>  <i_i_glide_rotatable_bonds>  (165) 
2

>  <r_i_docking_score>  (165) 
-3.89162

>  <r_i_glide_ligand_efficiency>  (165) 
-0.194581

>  <r_i_glide_ligand_efficiency_sa>  (165) 
-0.528175

>  <r_i_glide_ligand_efficiency_ln>  (165) 
-0.973945

>  <r_i_glide_gscore>  (165) 
-3.89162

>  <r_i_glide_lipo>  (165) 
-0.108554

>  <r_i_glide_hbond>  (165) 
-0.438637

>  <r_i_glide_metal>  (165) 
-0

>  <r_i_glide_rewards>  (165) 
-1.79742

>  <r_i_glide_evdw>  (165) 
-28.209

>  <r_i_glide_ecoul>  (165) 
-3.95112

>  <r_i_glide_erotb>  (165) 
0.496097

>  <r_i_glide_esite>  (165) 
-0.0399882

>  <r_i_glide_emodel>  (165) 
-40.2163

>  <r_i_glide_energy>  (165) 
-32.1601

>  <r_i_glide_einternal>  (165) 
0.256216

>  <r_i_glide_intrahb_reward>  (165) 
-0

>  <i_i_glide_confnum>  (165) 
4

>  <i_i_glide_posenum>  (165) 
22

>  <r_i_glide_eff_state_penalty>  (165) 
0

>  <ligand_id>  (165) 
58

>  <original_smiles>  (165) 
O=c1ncc2nnn(Cc3ccc4ncoc4c3)c2[nH]1

>  <smiles>  (165) 
[H]c1nc2c([H])c([H])c(C([H])([H])n3nnc4c([H])nc(=O)n([H])c43)c([H])c2o1

$$$$
58:1:2
     RDKit          3D

 28 31  0  0  1  0  0  0  0  0999 V2000
    4.5978   -4.1668   -4.3237 O   0  0  0  0  0  0  0  0  0  0  0  0
    4.4779   -3.3054   -3.4612 C   0  0  0  0  0  0  0  0  0  0  0  0
    4.2139   -1.9396   -3.7553 N   0  0  0  0  0  0  0  0  0  0  0  0
    4.1002   -1.0725   -2.8032 C   0  0  0  0  0  0  0  0  0  0  0  0
    4.2457   -1.4458   -1.3826 C   0  0  0  0  0  0  0  0  0  0  0  0
    4.2299   -0.7945   -0.1557 N   0  0  0  0  0  0  0  0  0  0  0  0
    4.4417   -1.6866    0.7772 N   0  0  0  0  0  0  0  0  0  0  0  0
    4.6257   -2.8970    0.1754 N   0  0  0  0  0  0  0  0  0  0  0  0
    4.9341   -4.0634    0.9827 C   0  0  0  0  0  0  0  0  0  0  0  0
    3.6897   -4.7004    1.5800 C   0  0  0  0  0  0  0  0  0  0  0  0
    3.3035   -4.4084    2.9106 C   0  0  0  0  0  0  0  0  0  0  0  0
    2.1650   -5.0228    3.4834 C   0  0  0  0  0  0  0  0  0  0  0  0
    1.4003   -5.9395    2.7300 C   0  0  0  0  0  0  0  0  0  0  0  0
    0.2437   -6.6529    3.0029 N   0  0  0  0  0  0  0  0  0  0  0  0
    0.0546   -7.3611    1.8803 C   0  0  0  0  0  0  0  0  0  0  0  0
    0.9207   -7.1070    0.8550 O   0  0  0  0  0  0  0  0  0  0  0  0
    1.8123   -6.2124    1.4069 C   0  0  0  0  0  0  0  0  0  0  0  0
    2.9339   -5.6118    0.8149 C   0  0  0  0  0  0  0  0  0  0  0  0
    4.5009   -2.7501   -1.1906 C   0  0  0  0  0  0  0  0  0  0  0  0
    4.6197   -3.6756   -2.1621 N   0  0  0  0  0  0  0  0  0  0  0  0
    4.7751   -4.6441   -1.9239 H   0  0  0  0  0  0  0  0  0  0  0  0
    3.9103   -0.0177   -3.0255 H   0  0  0  0  0  0  0  0  0  0  0  0
    5.4732   -4.7913    0.3734 H   0  0  0  0  0  0  0  0  0  0  0  0
    5.6063   -3.7610    1.7882 H   0  0  0  0  0  0  0  0  0  0  0  0
    3.8853   -3.7152    3.5011 H   0  0  0  0  0  0  0  0  0  0  0  0
    1.8757   -4.7925    4.4964 H   0  0  0  0  0  0  0  0  0  0  0  0
   -0.7660   -8.0535    1.7393 H   0  0  0  0  0  0  0  0  0  0  0  0
    3.2047   -5.8516   -0.2039 H   0  0  0  0  0  0  0  0  0  0  0  0
  1  2  2  0
  2 20  1  0
  2  3  1  0
  3  4  2  0
  4  5  1  0
  4 22  1  0
  5 19  2  0
  5  6  1  0
  6  7  2  0
  7  8  1  0
  8  9  1  0
  8 19  1  0
  9 10  1  0
  9 23  1  0
  9 24  1  0
 10 18  1  0
 10 11  2  0
 11 12  1  0
 11 25  1  0
 12 13  2  0
 12 26  1  0
 13 17  1  0
 13 14  1  0
 14 15  2  0
 15 16  1  0
 15 27  1  0
 16 17  1  0
 17 18  2  0
 18 28  1  0
 19 20  1  0
 20 21  1  0
M  END
>  <i_m_ct_stereo_status>  (166) 
1

>  <s_m_source_file>  (166) 
/var/tmp/pbs.5076255.sched01/tmpjtt61wjg/4457_394l_.sdf

>  <i_m_source_file_index>  (166) 
35

>  <i_lp_mmshare_version>  (166) 
48012

>  <i_f3d_flags>  (166) 
0

>  <s_epik_input>  (166) 
W2NIXTFuYyg9TylbbkhdYyhjMTIpbihubjIpW0NIMl1jKFtjSF1bY0hdMylbY0hdYyhjMzQpb1tjSF1uNA==

>  <s_epik_cmdline>  (166) 
J2VwaWtfcHl0aG9uJywgJy1waHQnLCAnMi4wJywgJy1waCcsICc3LjAnLCAnLXRuJywgJzgnLCAnLW1hJywgJzIwMCcsICctaW1hZScsICc8aW5maWxlLm1hZT4nLCAnLW9tYWUnLCAnPG91dGZpbGUubWFlPic=

>  <r_epik_Ionization_Penalty>  (166) 
1.91169

>  <r_epik_Ionization_Penalty_Charging>  (166) 
1.91169

>  <r_epik_Ionization_Penalty_Neutral>  (166) 
1.09256e-07

>  <r_epik_State_Penalty>  (166) 
2.05065

>  <r_epik_Charging_Adjusted_Penalty>  (166) 
3.96234

>  <i_epik_Tot_Q>  (166) 
0

>  <i_epik_Tot_abs_Q>  (166) 
0

>  <s_lp_Force_Field>  (166) 
OPLS3e

>  <r_lp_Energy>  (166) 
37.8851

>  <b_lp_Chiralities_Consistent>  (166) 
1

>  <s_lp_Variant>  (166) 
58:0-2

>  <s_i_glide_gridfile>  (166) 
pfpi4k_grid

>  <i_i_glide_lignum>  (166) 
35

>  <i_i_glide_rotatable_bonds>  (166) 
2

>  <r_i_docking_score>  (166) 
-3.63739

>  <r_i_glide_ligand_efficiency>  (166) 
-0.18187

>  <r_i_glide_ligand_efficiency_sa>  (166) 
-0.49367

>  <r_i_glide_ligand_efficiency_ln>  (166) 
-0.91032

>  <r_i_glide_gscore>  (166) 
-3.63739

>  <r_i_glide_lipo>  (166) 
-0.0587084

>  <r_i_glide_hbond>  (166) 
-0.0431995

>  <r_i_glide_metal>  (166) 
-0

>  <r_i_glide_rewards>  (166) 
-1.87629

>  <r_i_glide_evdw>  (166) 
-30.1448

>  <r_i_glide_ecoul>  (166) 
-4.0719

>  <r_i_glide_erotb>  (166) 
0.496097

>  <r_i_glide_esite>  (166) 
-0.0372707

>  <r_i_glide_emodel>  (166) 
-41.8282

>  <r_i_glide_energy>  (166) 
-34.2167

>  <r_i_glide_einternal>  (166) 
0.0802108

>  <r_i_glide_intrahb_reward>  (166) 
-0

>  <i_i_glide_confnum>  (166) 
4

>  <i_i_glide_posenum>  (166) 
13

>  <r_i_glide_eff_state_penalty>  (166) 
0

>  <ligand_id>  (166) 
58

>  <original_smiles>  (166) 
O=c1ncc2nnn(Cc3ccc4ncoc4c3)c2[nH]1

>  <smiles>  (166) 
[H]c1nc2c([H])c([H])c(C([H])([H])n3nnc4c([H])nc(=O)n([H])c43)c([H])c2o1

$$$$
58:2:0
     RDKit          3D

 28 31  0  0  1  0  0  0  0  0999 V2000
   -0.1053   -6.5084    0.8851 O   0  0  0  0  0  0  0  0  0  0  0  0
   -0.0503   -7.1084    1.9556 C   0  0  0  0  0  0  0  0  0  0  0  0
   -0.6061   -8.3997    2.0970 N   0  0  0  0  0  0  0  0  0  0  0  0
   -0.5657   -9.0983    3.3006 C   0  0  0  0  0  0  0  0  0  0  0  0
    0.0196   -8.4852    4.3483 C   0  0  0  0  0  0  0  0  0  0  0  0
    0.2072   -8.9125    5.6775 N   0  0  0  0  0  0  0  0  0  0  0  0
    0.7971   -7.9655    6.2649 N   0  0  0  0  0  0  0  0  0  0  0  0
    1.0524   -6.9001    5.3905 N   0  0  0  0  0  0  0  0  0  0  0  0
    1.6745   -5.6784    5.8829 C   0  0  0  0  0  0  0  0  0  0  0  0
    0.7266   -4.5048    5.8931 C   0  0  0  0  0  0  0  0  0  0  0  0
   -0.4519   -4.5457    6.6760 C   0  0  0  0  0  0  0  0  0  0  0  0
   -1.3534   -3.4573    6.6697 C   0  0  0  0  0  0  0  0  0  0  0  0
   -1.0877   -2.3061    5.8820 C   0  0  0  0  0  0  0  0  0  0  0  0
   -1.7862   -1.1294    5.6778 N   0  0  0  0  0  0  0  0  0  0  0  0
   -0.9959   -0.4731    4.8040 C   0  0  0  0  0  0  0  0  0  0  0  0
    0.1582   -1.1011    4.4109 O   0  0  0  0  0  0  0  0  0  0  0  0
    0.1004   -2.2974    5.1111 C   0  0  0  0  0  0  0  0  0  0  0  0
    1.0111   -3.3656    5.1079 C   0  0  0  0  0  0  0  0  0  0  0  0
    0.5656   -7.1888    4.1912 C   0  0  0  0  0  0  0  0  0  0  0  0
    0.5242   -6.5202    3.0427 N   0  0  0  0  0  0  0  0  0  0  0  0
   -0.9779  -10.0966    3.3916 H   0  0  0  0  0  0  0  0  0  0  0  0
    2.0497   -5.8235    6.8955 H   0  0  0  0  0  0  0  0  0  0  0  0
    2.5371   -5.4523    5.2589 H   0  0  0  0  0  0  0  0  0  0  0  0
   -0.6770   -5.4242    7.2669 H   0  0  0  0  0  0  0  0  0  0  0  0
   -2.2697   -3.5313    7.2355 H   0  0  0  0  0  0  0  0  0  0  0  0
   -1.2459    0.5079    4.4227 H   0  0  0  0  0  0  0  0  0  0  0  0
    1.8997   -3.3070    4.4969 H   0  0  0  0  0  0  0  0  0  0  0  0
   -0.9729   -8.8425    1.2652 H   0  0  0  0  0  0  0  0  0  0  0  0
  1  2  2  0
  2 20  1  0
  2  3  1  0
  3  4  1  0
  3 28  1  0
  4  5  2  0
  4 21  1  0
  5 19  1  0
  5  6  1  0
  6  7  2  0
  7  8  1  0
  8  9  1  0
  8 19  1  0
  9 10  1  0
  9 22  1  0
  9 23  1  0
 10 18  1  0
 10 11  2  0
 11 12  1  0
 11 24  1  0
 12 13  2  0
 12 25  1  0
 13 17  1  0
 13 14  1  0
 14 15  2  0
 15 16  1  0
 15 26  1  0
 16 17  1  0
 17 18  2  0
 18 27  1  0
 19 20  2  0
M  END
>  <i_m_ct_stereo_status>  (167) 
1

>  <s_m_source_file>  (167) 
/var/tmp/pbs.5076255.sched01/tmpjtt61wjg/4457_394l_.sdf

>  <i_m_source_file_index>  (167) 
36

>  <i_lp_mmshare_version>  (167) 
48012

>  <i_f3d_flags>  (167) 
0

>  <s_epik_input>  (167) 
W2NIXTFuYyg9TylbbkhdYyhjMTIpbihubjIpW0NIMl1jKFtjSF1bY0hdMylbY0hdYyhjMzQpb1tjSF1uNA==

>  <s_epik_cmdline>  (167) 
J2VwaWtfcHl0aG9uJywgJy1waHQnLCAnMi4wJywgJy1waCcsICc3LjAnLCAnLXRuJywgJzgnLCAnLW1hJywgJzIwMCcsICctaW1hZScsICc8aW5maWxlLm1hZT4nLCAnLW9tYWUnLCAnPG91dGZpbGUubWFlPic=

>  <r_epik_Ionization_Penalty>  (167) 
2.19455

>  <r_epik_Ionization_Penalty_Charging>  (167) 
2.19455

>  <r_epik_Ionization_Penalty_Neutral>  (167) 
1.09256e-07

>  <r_epik_State_Penalty>  (167) 
2.36234

>  <r_epik_Charging_Adjusted_Penalty>  (167) 
4.55689

>  <i_epik_Tot_Q>  (167) 
0

>  <i_epik_Tot_abs_Q>  (167) 
0

>  <s_lp_Force_Field>  (167) 
OPLS3e

>  <r_lp_Energy>  (167) 
32.572

>  <b_lp_Chiralities_Consistent>  (167) 
1

>  <s_lp_Variant>  (167) 
58:0-3

>  <s_i_glide_gridfile>  (167) 
pfpi4k_grid

>  <i_i_glide_lignum>  (167) 
36

>  <i_i_glide_rotatable_bonds>  (167) 
2

>  <r_i_docking_score>  (167) 
-3.97841

>  <r_i_glide_ligand_efficiency>  (167) 
-0.198921

>  <r_i_glide_ligand_efficiency_sa>  (167) 
-0.539953

>  <r_i_glide_ligand_efficiency_ln>  (167) 
-0.995665

>  <r_i_glide_gscore>  (167) 
-3.97841

>  <r_i_glide_lipo>  (167) 
-0.00503002

>  <r_i_glide_hbond>  (167) 
-0.37665

>  <r_i_glide_metal>  (167) 
-0

>  <r_i_glide_rewards>  (167) 
-1.58024

>  <r_i_glide_evdw>  (167) 
-21.0102

>  <r_i_glide_ecoul>  (167) 
-8.06505

>  <r_i_glide_erotb>  (167) 
0.496097

>  <r_i_glide_esite>  (167) 
-0.252319

>  <r_i_glide_emodel>  (167) 
-37.4639

>  <r_i_glide_energy>  (167) 
-29.0752

>  <r_i_glide_einternal>  (167) 
0.201735

>  <r_i_glide_intrahb_reward>  (167) 
-0

>  <i_i_glide_confnum>  (167) 
4

>  <i_i_glide_posenum>  (167) 
18

>  <r_i_glide_eff_state_penalty>  (167) 
0

>  <ligand_id>  (167) 
58

>  <original_smiles>  (167) 
O=c1ncc2nnn(Cc3ccc4ncoc4c3)c2[nH]1

>  <smiles>  (167) 
[H]c1nc2c([H])c([H])c(C([H])([H])n3nnc4c([H])n([H])c(=O)nc43)c([H])c2o1

$$$$
58:2:1
     RDKit          3D

 28 31  0  0  1  0  0  0  0  0999 V2000
    2.1118   -5.3942    0.9750 O   0  0  0  0  0  0  0  0  0  0  0  0
    2.7045   -4.3794    0.6067 C   0  0  0  0  0  0  0  0  0  0  0  0
    3.1816   -4.2597   -0.7240 N   0  0  0  0  0  0  0  0  0  0  0  0
    3.8217   -3.1267   -1.2034 C   0  0  0  0  0  0  0  0  0  0  0  0
    3.9871   -2.1113   -0.3351 C   0  0  0  0  0  0  0  0  0  0  0  0
    4.6092   -0.8653   -0.4986 N   0  0  0  0  0  0  0  0  0  0  0  0
    4.5211   -0.2903    0.6217 N   0  0  0  0  0  0  0  0  0  0  0  0
    3.8601   -1.0919    1.5598 N   0  0  0  0  0  0  0  0  0  0  0  0
    3.7058   -0.6370    2.9336 C   0  0  0  0  0  0  0  0  0  0  0  0
    2.5554    0.3215    3.1592 C   0  0  0  0  0  0  0  0  0  0  0  0
    2.7109    1.4125    4.0488 C   0  0  0  0  0  0  0  0  0  0  0  0
    1.6427    2.3109    4.2857 C   0  0  0  0  0  0  0  0  0  0  0  0
    0.3970    2.1358    3.6333 C   0  0  0  0  0  0  0  0  0  0  0  0
   -0.8087    2.8179    3.6933 N   0  0  0  0  0  0  0  0  0  0  0  0
   -1.5685    2.1279    2.8253 C   0  0  0  0  0  0  0  0  0  0  0  0
   -1.0093    1.0237    2.2331 O   0  0  0  0  0  0  0  0  0  0  0  0
    0.2747    1.0353    2.7463 C   0  0  0  0  0  0  0  0  0  0  0  0
    1.3194    0.1314    2.4985 C   0  0  0  0  0  0  0  0  0  0  0  0
    3.5135   -2.2388    0.9921 C   0  0  0  0  0  0  0  0  0  0  0  0
    2.8946   -3.3229    1.4487 N   0  0  0  0  0  0  0  0  0  0  0  0
    4.1750   -3.0666   -2.2297 H   0  0  0  0  0  0  0  0  0  0  0  0
    3.5335   -1.5041    3.5656 H   0  0  0  0  0  0  0  0  0  0  0  0
    4.6305   -0.1696    3.2685 H   0  0  0  0  0  0  0  0  0  0  0  0
    3.6544    1.5685    4.5560 H   0  0  0  0  0  0  0  0  0  0  0  0
    1.7647    3.1391    4.9665 H   0  0  0  0  0  0  0  0  0  0  0  0
   -2.5953    2.3957    2.6155 H   0  0  0  0  0  0  0  0  0  0  0  0
    1.1591   -0.6858    1.8093 H   0  0  0  0  0  0  0  0  0  0  0  0
    3.0208   -5.0372   -1.3583 H   0  0  0  0  0  0  0  0  0  0  0  0
  1  2  2  0
  2 20  1  0
  2  3  1  0
  3  4  1  0
  3 28  1  0
  4  5  2  0
  4 21  1  0
  5 19  1  0
  5  6  1  0
  6  7  2  0
  7  8  1  0
  8  9  1  0
  8 19  1  0
  9 10  1  0
  9 22  1  0
  9 23  1  0
 10 18  1  0
 10 11  2  0
 11 12  1  0
 11 24  1  0
 12 13  2  0
 12 25  1  0
 13 17  1  0
 13 14  1  0
 14 15  2  0
 15 16  1  0
 15 26  1  0
 16 17  1  0
 17 18  2  0
 18 27  1  0
 19 20  2  0
M  END
>  <i_m_ct_stereo_status>  (168) 
1

>  <s_m_source_file>  (168) 
/var/tmp/pbs.5076255.sched01/tmpjtt61wjg/4457_394l_.sdf

>  <i_m_source_file_index>  (168) 
36

>  <i_lp_mmshare_version>  (168) 
48012

>  <i_f3d_flags>  (168) 
0

>  <s_epik_input>  (168) 
W2NIXTFuYyg9TylbbkhdYyhjMTIpbihubjIpW0NIMl1jKFtjSF1bY0hdMylbY0hdYyhjMzQpb1tjSF1uNA==

>  <s_epik_cmdline>  (168) 
J2VwaWtfcHl0aG9uJywgJy1waHQnLCAnMi4wJywgJy1waCcsICc3LjAnLCAnLXRuJywgJzgnLCAnLW1hJywgJzIwMCcsICctaW1hZScsICc8aW5maWxlLm1hZT4nLCAnLW9tYWUnLCAnPG91dGZpbGUubWFlPic=

>  <r_epik_Ionization_Penalty>  (168) 
2.19455

>  <r_epik_Ionization_Penalty_Charging>  (168) 
2.19455

>  <r_epik_Ionization_Penalty_Neutral>  (168) 
1.09256e-07

>  <r_epik_State_Penalty>  (168) 
2.36234

>  <r_epik_Charging_Adjusted_Penalty>  (168) 
4.55689

>  <i_epik_Tot_Q>  (168) 
0

>  <i_epik_Tot_abs_Q>  (168) 
0

>  <s_lp_Force_Field>  (168) 
OPLS3e

>  <r_lp_Energy>  (168) 
32.572

>  <b_lp_Chiralities_Consistent>  (168) 
1

>  <s_lp_Variant>  (168) 
58:0-3

>  <s_i_glide_gridfile>  (168) 
pfpi4k_grid

>  <i_i_glide_lignum>  (168) 
36

>  <i_i_glide_rotatable_bonds>  (168) 
2

>  <r_i_docking_score>  (168) 
-3.70561

>  <r_i_glide_ligand_efficiency>  (168) 
-0.185281

>  <r_i_glide_ligand_efficiency_sa>  (168) 
-0.502929

>  <r_i_glide_ligand_efficiency_ln>  (168) 
-0.927393

>  <r_i_glide_gscore>  (168) 
-3.70561

>  <r_i_glide_lipo>  (168) 
-0.0148782

>  <r_i_glide_hbond>  (168) 
-0.347713

>  <r_i_glide_metal>  (168) 
-0

>  <r_i_glide_rewards>  (168) 
-1.58024

>  <r_i_glide_evdw>  (168) 
-21.8158

>  <r_i_glide_ecoul>  (168) 
-6.96365

>  <r_i_glide_erotb>  (168) 
0.496097

>  <r_i_glide_esite>  (168) 
-0.123541

>  <r_i_glide_emodel>  (168) 
-36.4542

>  <r_i_glide_energy>  (168) 
-28.7794

>  <r_i_glide_einternal>  (168) 
0.46628

>  <r_i_glide_intrahb_reward>  (168) 
-0

>  <i_i_glide_confnum>  (168) 
2

>  <i_i_glide_posenum>  (168) 
1

>  <r_i_glide_eff_state_penalty>  (168) 
0

>  <ligand_id>  (168) 
58

>  <original_smiles>  (168) 
O=c1ncc2nnn(Cc3ccc4ncoc4c3)c2[nH]1

>  <smiles>  (168) 
[H]c1nc2c([H])c([H])c(C([H])([H])n3nnc4c([H])n([H])c(=O)nc43)c([H])c2o1

$$$$
58:2:2
     RDKit          3D

 28 31  0  0  1  0  0  0  0  0999 V2000
    5.1982   -0.3945    2.7231 O   0  0  0  0  0  0  0  0  0  0  0  0
    5.0768   -0.9743    1.6466 C   0  0  0  0  0  0  0  0  0  0  0  0
    4.7370   -0.2567    0.4766 N   0  0  0  0  0  0  0  0  0  0  0  0
    4.5946   -0.8751   -0.7648 C   0  0  0  0  0  0  0  0  0  0  0  0
    4.8016   -2.2023   -0.8119 C   0  0  0  0  0  0  0  0  0  0  0  0
    4.7446   -3.0932   -1.9027 N   0  0  0  0  0  0  0  0  0  0  0  0
    5.0230   -4.2248   -1.4262 N   0  0  0  0  0  0  0  0  0  0  0  0
    5.2975   -4.1543   -0.0469 N   0  0  0  0  0  0  0  0  0  0  0  0
    5.5504   -5.3704    0.7169 C   0  0  0  0  0  0  0  0  0  0  0  0
    4.3210   -5.9914    1.3449 C   0  0  0  0  0  0  0  0  0  0  0  0
    4.4215   -6.6369    2.6009 C   0  0  0  0  0  0  0  0  0  0  0  0
    3.2864   -7.2416    3.1944 C   0  0  0  0  0  0  0  0  0  0  0  0
    2.0288   -7.2129    2.5410 C   0  0  0  0  0  0  0  0  0  0  0  0
    0.7722   -7.6980    2.8682 N   0  0  0  0  0  0  0  0  0  0  0  0
    0.0373   -7.3598    1.7950 C   0  0  0  0  0  0  0  0  0  0  0  0
    0.6532   -6.6251    0.8131 O   0  0  0  0  0  0  0  0  0  0  0  0
    1.9576   -6.5557    1.2846 C   0  0  0  0  0  0  0  0  0  0  0  0
    3.0711   -5.9470    0.6831 C   0  0  0  0  0  0  0  0  0  0  0  0
    5.1503   -2.9075    0.3664 C   0  0  0  0  0  0  0  0  0  0  0  0
    5.2802   -2.3172    1.5514 N   0  0  0  0  0  0  0  0  0  0  0  0
    4.3423   -0.3145   -1.6569 H   0  0  0  0  0  0  0  0  0  0  0  0
    6.0157   -6.1191    0.0802 H   0  0  0  0  0  0  0  0  0  0  0  0
    6.2617   -5.1313    1.5044 H   0  0  0  0  0  0  0  0  0  0  0  0
    5.3703   -6.6785    3.1166 H   0  0  0  0  0  0  0  0  0  0  0  0
    3.3665   -7.7376    4.1517 H   0  0  0  0  0  0  0  0  0  0  0  0
   -1.0143   -7.5950    1.7282 H   0  0  0  0  0  0  0  0  0  0  0  0
    2.9577   -5.4861   -0.2871 H   0  0  0  0  0  0  0  0  0  0  0  0
    4.6085    0.7406    0.5570 H   0  0  0  0  0  0  0  0  0  0  0  0
  1  2  2  0
  2 20  1  0
  2  3  1  0
  3  4  1  0
  3 28  1  0
  4  5  2  0
  4 21  1  0
  5 19  1  0
  5  6  1  0
  6  7  2  0
  7  8  1  0
  8  9  1  0
  8 19  1  0
  9 10  1  0
  9 22  1  0
  9 23  1  0
 10 18  1  0
 10 11  2  0
 11 12  1  0
 11 24  1  0
 12 13  2  0
 12 25  1  0
 13 17  1  0
 13 14  1  0
 14 15  2  0
 15 16  1  0
 15 26  1  0
 16 17  1  0
 17 18  2  0
 18 27  1  0
 19 20  2  0
M  END
>  <i_m_ct_stereo_status>  (169) 
1

>  <s_m_source_file>  (169) 
/var/tmp/pbs.5076255.sched01/tmpjtt61wjg/4457_394l_.sdf

>  <i_m_source_file_index>  (169) 
36

>  <i_lp_mmshare_version>  (169) 
48012

>  <i_f3d_flags>  (169) 
0

>  <s_epik_input>  (169) 
W2NIXTFuYyg9TylbbkhdYyhjMTIpbihubjIpW0NIMl1jKFtjSF1bY0hdMylbY0hdYyhjMzQpb1tjSF1uNA==

>  <s_epik_cmdline>  (169) 
J2VwaWtfcHl0aG9uJywgJy1waHQnLCAnMi4wJywgJy1waCcsICc3LjAnLCAnLXRuJywgJzgnLCAnLW1hJywgJzIwMCcsICctaW1hZScsICc8aW5maWxlLm1hZT4nLCAnLW9tYWUnLCAnPG91dGZpbGUubWFlPic=

>  <r_epik_Ionization_Penalty>  (169) 
2.19455

>  <r_epik_Ionization_Penalty_Charging>  (169) 
2.19455

>  <r_epik_Ionization_Penalty_Neutral>  (169) 
1.09256e-07

>  <r_epik_State_Penalty>  (169) 
2.36234

>  <r_epik_Charging_Adjusted_Penalty>  (169) 
4.55689

>  <i_epik_Tot_Q>  (169) 
0

>  <i_epik_Tot_abs_Q>  (169) 
0

>  <s_lp_Force_Field>  (169) 
OPLS3e

>  <r_lp_Energy>  (169) 
32.572

>  <b_lp_Chiralities_Consistent>  (169) 
1

>  <s_lp_Variant>  (169) 
58:0-3

>  <s_i_glide_gridfile>  (169) 
pfpi4k_grid

>  <i_i_glide_lignum>  (169) 
36

>  <i_i_glide_rotatable_bonds>  (169) 
2

>  <r_i_docking_score>  (169) 
-3.34882

>  <r_i_glide_ligand_efficiency>  (169) 
-0.167441

>  <r_i_glide_ligand_efficiency_sa>  (169) 
-0.454505

>  <r_i_glide_ligand_efficiency_ln>  (169) 
-0.838099

>  <r_i_glide_gscore>  (169) 
-3.34882

>  <r_i_glide_lipo>  (169) 
-0.155366

>  <r_i_glide_hbond>  (169) 
-0.176427

>  <r_i_glide_metal>  (169) 
-0

>  <r_i_glide_rewards>  (169) 
-1.86512

>  <r_i_glide_evdw>  (169) 
-24.4173

>  <r_i_glide_ecoul>  (169) 
-2.69097

>  <r_i_glide_erotb>  (169) 
0.496097

>  <r_i_glide_esite>  (169) 
-0.0234882

>  <r_i_glide_emodel>  (169) 
-34.092

>  <r_i_glide_energy>  (169) 
-27.1083

>  <r_i_glide_einternal>  (169) 
0.247919

>  <r_i_glide_intrahb_reward>  (169) 
-0

>  <i_i_glide_confnum>  (169) 
1

>  <i_i_glide_posenum>  (169) 
5

>  <r_i_glide_eff_state_penalty>  (169) 
0

>  <ligand_id>  (169) 
58

>  <original_smiles>  (169) 
O=c1ncc2nnn(Cc3ccc4ncoc4c3)c2[nH]1

>  <smiles>  (169) 
[H]c1nc2c([H])c([H])c(C([H])([H])n3nnc4c([H])n([H])c(=O)nc43)c([H])c2o1

$$$$
60:0:0
     RDKit          3D

 91 98  0  0  1  0  0  0  0  0999 V2000
    2.6106    4.8254    2.9960 C   0  0  0  0  0  0  0  0  0  0  0  0
    2.0083    3.7366    3.9011 C   0  0  2  0  0  0  0  0  0  0  0  0
    3.0899    3.1017    4.7914 C   0  0  0  0  0  0  0  0  0  0  0  0
    2.5046    1.9472    5.6085 C   0  0  0  0  0  0  0  0  0  0  0  0
    1.8253    0.9212    4.6559 C   0  0  1  0  0  0  0  0  0  0  0  0
    0.8377    1.5807    3.9254 O   0  0  0  0  0  0  0  0  0  0  0  0
    1.3202    2.6257    3.0845 C   0  0  0  0  0  0  0  0  0  0  0  0
    2.8170    0.3804    3.8325 O   0  0  0  0  0  0  0  0  0  0  0  0
    3.0296   -1.0202    4.0291 C   0  0  2  0  0  0  0  0  0  0  0  0
    2.5243   -1.7627    2.7532 C   0  0  1  0  0  0  0  0  0  0  0  0
    3.2033   -1.1566    1.5012 C   0  0  0  0  0  0  0  0  0  0  0  0
    2.5066   -3.3316    2.6700 C   0  0  0  0  0  0  0  0  0  0  0  0
    3.6404   -4.3241    3.1276 C   0  0  1  0  0  0  0  0  0  0  0  0
    4.9696   -3.7169    2.6056 C   0  0  0  0  0  0  0  0  0  0  0  0
    3.8783   -4.5920    4.7617 C   0  0  1  0  0  0  0  0  0  0  0  0
    3.6904   -3.3869    5.7244 C   0  0  0  0  0  0  0  0  0  0  0  0
    2.2854   -2.7121    5.9902 C   0  0  2  0  0  0  0  0  0  0  0  0
    2.1080   -2.6364    7.5251 C   0  0  0  0  0  0  0  0  0  0  0  0
    1.0794   -3.5393    5.4719 C   0  0  0  0  0  0  0  0  0  0  0  0
    0.0877   -3.0379    4.9534 O   0  0  0  0  0  0  0  0  0  0  0  0
    1.2457   -4.8455    5.6473 O   0  0  0  0  0  0  0  0  0  0  0  0
    0.8834   -5.7620    4.6225 C   0  0  2  0  0  0  0  0  0  0  0  0
   -0.1918   -6.6705    5.3173 C   0  0  0  0  0  0  0  0  0  0  0  0
   -0.7556   -7.8915    4.5172 C   0  0  1  0  0  0  0  0  0  0  0  0
   -1.7925   -7.4031    3.6947 O   0  0  0  0  0  0  0  0  0  0  0  0
    0.2904   -8.6983    3.6752 C   0  0  0  0  0  0  0  0  0  0  0  0
    1.0606   -9.6871    4.5669 C   0  0  0  0  0  0  0  0  0  0  0  0
   -0.4062   -9.5395    2.5836 C   0  0  0  0  0  0  0  0  0  0  0  0
    1.2428   -7.6456    3.0760 C   0  0  2  0  0  0  0  0  0  0  0  0
    1.6859   -7.5238    1.5694 C   0  0  0  0  0  0  0  0  0  0  0  0
    2.2685   -6.0576    1.3042 C   0  0  0  0  0  0  0  0  0  0  0  0
    3.4641   -5.6631    2.2620 C   0  0  2  0  0  0  0  0  0  0  0  0
    3.3212   -6.6302    3.3032 C   0  0  0  0  0  0  0  0  0  0  0  0
    4.2471   -7.4976    3.6815 C   0  0  0  0  0  0  0  0  0  0  0  0
    3.8887   -7.9789    4.8891 O   0  0  0  0  0  0  0  0  0  0  0  0
    2.9185   -7.0572    5.2921 C   0  0  1  0  0  0  0  0  0  0  0  0
    3.5391   -5.7860    5.6453 O   0  0  0  0  0  0  0  0  0  0  0  0
    2.0240   -6.7349    4.0777 C   0  0  1  0  0  0  0  0  0  0  0  0
    2.3703   -1.2487    5.4120 C   0  0  2  0  0  0  0  0  0  0  0  0
    1.1663   -0.2977    5.3381 C   0  0  1  0  0  0  0  0  0  0  0  0
    0.4591    0.0777    6.6618 C   0  0  0  0  0  0  0  0  0  0  0  0
    3.3631    4.4146    2.3236 H   0  0  0  0  0  0  0  0  0  0  0  0
    3.0948    5.6105    3.5726 H   0  0  0  0  0  0  0  0  0  0  0  0
    1.8521    5.2989    2.3760 H   0  0  0  0  0  0  0  0  0  0  0  0
    1.2582    4.1949    4.5476 H   0  0  0  0  0  0  0  0  0  0  0  0
    3.9123    2.7379    4.1705 H   0  0  0  0  0  0  0  0  0  0  0  0
    3.5021    3.8498    5.4654 H   0  0  0  0  0  0  0  0  0  0  0  0
    3.3038    1.4550    6.1702 H   0  0  0  0  0  0  0  0  0  0  0  0
    1.7719    2.3360    6.3153 H   0  0  0  0  0  0  0  0  0  0  0  0
    0.4657    3.0265    2.5358 H   0  0  0  0  0  0  0  0  0  0  0  0
    2.0001    2.2129    2.3364 H   0  0  0  0  0  0  0  0  0  0  0  0
    4.1130   -1.1137    4.0843 H   0  0  0  0  0  0  0  0  0  0  0  0
    1.4749   -1.4878    2.6413 H   0  0  0  0  0  0  0  0  0  0  0  0
    4.2889   -1.2439    1.5349 H   0  0  0  0  0  0  0  0  0  0  0  0
    2.9661   -0.0974    1.3994 H   0  0  0  0  0  0  0  0  0  0  0  0
    2.8560   -1.6294    0.5803 H   0  0  0  0  0  0  0  0  0  0  0  0
    1.5450   -3.6989    2.9906 H   0  0  0  0  0  0  0  0  0  0  0  0
    2.4313   -3.4884    1.5955 H   0  0  0  0  0  0  0  0  0  0  0  0
    5.8199   -4.3870    2.7509 H   0  0  0  0  0  0  0  0  0  0  0  0
    5.2163   -2.7909    3.1185 H   0  0  0  0  0  0  0  0  0  0  0  0
    4.9237   -3.5034    1.5350 H   0  0  0  0  0  0  0  0  0  0  0  0
    4.9564   -4.7502    4.7830 H   0  0  0  0  0  0  0  0  0  0  0  0
    4.0852   -3.7381    6.6782 H   0  0  0  0  0  0  0  0  0  0  0  0
    4.4386   -2.6457    5.4591 H   0  0  0  0  0  0  0  0  0  0  0  0
    2.8261   -1.9596    7.9900 H   0  0  0  0  0  0  0  0  0  0  0  0
    2.2342   -3.6134    7.9958 H   0  0  0  0  0  0  0  0  0  0  0  0
    1.1162   -2.2966    7.8055 H   0  0  0  0  0  0  0  0  0  0  0  0
    0.4086   -5.2274    3.8040 H   0  0  0  0  0  0  0  0  0  0  0  0
    0.2501   -7.0751    6.2266 H   0  0  0  0  0  0  0  0  0  0  0  0
   -1.0243   -6.0500    5.6736 H   0  0  0  0  0  0  0  0  0  0  0  0
   -1.2268   -8.5834    5.2163 H   0  0  0  0  0  0  0  0  0  0  0  0
   -2.2650   -8.1649    3.3783 H   0  0  0  0  0  0  0  0  0  0  0  0
    1.9546  -10.0533    4.0540 H   0  0  0  0  0  0  0  0  0  0  0  0
    0.4432  -10.5486    4.8341 H   0  0  0  0  0  0  0  0  0  0  0  0
    1.3709   -9.2300    5.5056 H   0  0  0  0  0  0  0  0  0  0  0  0
    0.3370  -10.1391    2.0562 H   0  0  0  0  0  0  0  0  0  0  0  0
   -0.9279   -8.9306    1.8413 H   0  0  0  0  0  0  0  0  0  0  0  0
   -1.1269  -10.2326    3.0159 H   0  0  0  0  0  0  0  0  0  0  0  0
    0.4434   -6.9750    2.7725 H   0  0  0  0  0  0  0  0  0  0  0  0
    2.4386   -8.2807    1.3353 H   0  0  0  0  0  0  0  0  0  0  0  0
    0.8417   -7.7063    0.8993 H   0  0  0  0  0  0  0  0  0  0  0  0
    2.6048   -5.9797    0.2678 H   0  0  0  0  0  0  0  0  0  0  0  0
    1.4371   -5.3665    1.3998 H   0  0  0  0  0  0  0  0  0  0  0  0
    4.3978   -5.9256    1.7495 H   0  0  0  0  0  0  0  0  0  0  0  0
    5.2521   -7.6827    3.3433 H   0  0  0  0  0  0  0  0  0  0  0  0
    2.3912   -7.4374    6.1684 H   0  0  0  0  0  0  0  0  0  0  0  0
    3.0486   -0.7539    6.1039 H   0  0  0  0  0  0  0  0  0  0  0  0
    0.4270   -0.6728    4.6410 H   0  0  0  0  0  0  0  0  0  0  0  0
    1.1726    0.2992    7.4536 H   0  0  0  0  0  0  0  0  0  0  0  0
   -0.1856   -0.7306    7.0049 H   0  0  0  0  0  0  0  0  0  0  0  0
   -0.1793    0.9493    6.5338 H   0  0  0  0  0  0  0  0  0  0  0  0
  1  2  1  0
  1 42  1  0
  1 43  1  0
  1 44  1  0
  2  7  1  0
  2  3  1  0
  2 45  1  1
  3  4  1  0
  3 46  1  0
  3 47  1  0
  4  5  1  0
  4 48  1  0
  4 49  1  0
  5 40  1  0
  5  6  1  6
  5  8  1  0
  6  7  1  0
  7 50  1  0
  7 51  1  0
  8  9  1  0
  9 39  1  0
  9 10  1  0
  9 52  1  1
 10 11  1  0
 10 12  1  0
 10 53  1  6
 11 54  1  0
 11 55  1  0
 11 56  1  0
 12 13  1  0
 12 57  1  0
 12 58  1  0
 13 32  1  0
 13 14  1  6
 13 15  1  0
 14 59  1  0
 14 60  1  0
 14 61  1  0
 15 37  1  0
 15 16  1  0
 15 62  1  6
 16 17  1  0
 16 63  1  0
 16 64  1  0
 17 18  1  1
 17 19  1  0
 17 39  1  0
 18 65  1  0
 18 66  1  0
 18 67  1  0
 19 20  2  0
 19 21  1  0
 21 22  1  0
 22 38  1  0
 22 23  1  0
 22 68  1  6
 23 24  1  0
 23 69  1  0
 23 70  1  0
 24 25  1  0
 24 26  1  0
 24 71  1  1
 25 72  1  0
 26 27  1  0
 26 28  1  0
 26 29  1  0
 27 73  1  0
 27 74  1  0
 27 75  1  0
 28 76  1  0
 28 77  1  0
 28 78  1  0
 29 38  1  0
 29 30  1  0
 29 79  1  6
 30 31  1  0
 30 80  1  0
 30 81  1  0
 31 32  1  0
 31 82  1  0
 31 83  1  0
 32 33  1  0
 32 84  1  6
 38 33  1  6
 33 34  2  0
 34 35  1  0
 34 85  1  0
 35 36  1  0
 36 37  1  0
 36 38  1  0
 36 86  1  1
 39 40  1  0
 39 87  1  1
 40 41  1  0
 40 88  1  6
 41 89  1  0
 41 90  1  0
 41 91  1  0
M  END
>  <i_m_ct_stereo_status>  (170) 
1

>  <s_m_source_file>  (170) 
/var/tmp/pbs.5076255.sched01/tmpjtt61wjg/4457_394l_.sdf

>  <i_m_source_file_index>  (170) 
38

>  <i_lp_mmshare_version>  (170) 
48012

>  <i_f3d_flags>  (170) 
0

>  <s_epik_input>  (170) 
TzFbQ0gyXVtDQEhdKFtDSDNdKVtDSDJdW0NIMl1bQ0BdMTJPW0NASF0zW0NAQEhdKFtDQEhdMltDSDNdKVtDQF00KFtDSDNdKVtDSDJdW0NIXTVbQ0BdKFtDSDNdKShbQ0gyXVtDQEBIXTNbQ0gzXSlbQ0BIXTZDPTdbQ0BAXTgoW0NASF0oTzUpT1tDSF03KVtDQEhdKE9DND1PKVtDSDJdW0NAQEhdKFtPSF0pQyhbQ0gzXSkoW0NIM10pW0NAQEhdOFtDSDJdW0NIMl02

>  <s_epik_cmdline>  (170) 
J2VwaWtfcHl0aG9uJywgJy1waHQnLCAnMi4wJywgJy1waCcsICc3LjAnLCAnLXRuJywgJzgnLCAnLW1hJywgJzIwMCcsICctaW1hZScsICc8aW5maWxlLm1hZT4nLCAnLW9tYWUnLCAnPG91dGZpbGUubWFlPic=

>  <r_lp_tautomer_probability>  (170) 
1

>  <r_epik_Ionization_Penalty>  (170) 
1.38317e-07

>  <r_epik_Ionization_Penalty_Charging>  (170) 
0

>  <r_epik_Ionization_Penalty_Neutral>  (170) 
1.38317e-07

>  <r_epik_State_Penalty>  (170) 
-0

>  <r_epik_Charging_Adjusted_Penalty>  (170) 
0

>  <i_epik_Tot_Q>  (170) 
0

>  <i_epik_Tot_abs_Q>  (170) 
0

>  <s_epik_Chemistry_Notes>  (170) 
This compound has an ester and may undergo hydrolysis at high or low pH. This compound contains an acetal/aminal-like group ( X-CH(R)-Y where X, Y are N, S, or O) that may be acid/base labile, releasing an aldehyde.

>  <s_lp_Force_Field>  (170) 
OPLS3e

>  <r_lp_Energy>  (170) 
216.042

>  <b_lp_Chiralities_Consistent>  (170) 
1

>  <s_lp_Variant>  (170) 
60:0-1

>  <s_i_glide_gridfile>  (170) 
pfpi4k_grid

>  <i_i_glide_lignum>  (170) 
38

>  <i_i_glide_rotatable_bonds>  (170) 
1

>  <r_i_docking_score>  (170) 
-1.94559

>  <r_i_glide_ligand_efficiency>  (170) 
-0.0474534

>  <r_i_glide_ligand_efficiency_sa>  (170) 
-0.16363

>  <r_i_glide_ligand_efficiency_ln>  (170) 
-0.412764

>  <r_i_glide_gscore>  (170) 
-1.94559

>  <r_i_glide_lipo>  (170) 
-0.0676832

>  <r_i_glide_hbond>  (170) 
0

>  <r_i_glide_metal>  (170) 
-0

>  <r_i_glide_rewards>  (170) 
0

>  <r_i_glide_evdw>  (170) 
-34.7732

>  <r_i_glide_ecoul>  (170) 
-0.919699

>  <r_i_glide_erotb>  (170) 
0

>  <r_i_glide_esite>  (170) 
-0.00129547

>  <r_i_glide_emodel>  (170) 
-39.7935

>  <r_i_glide_energy>  (170) 
-35.6929

>  <r_i_glide_einternal>  (170) 
0.333491

>  <r_i_glide_intrahb_reward>  (170) 
-0

>  <i_i_glide_confnum>  (170) 
1

>  <i_i_glide_posenum>  (170) 
11

>  <r_i_glide_eff_state_penalty>  (170) 
0

>  <ligand_id>  (170) 
60

>  <original_smiles>  (170) 
CC1CCC2(OC1)OC1C(C)CC3(C)C4CC(C)(C(=O)OC5CC(O)C(C)(C)C6CCC3C3=COC(O4)C356)C1C2C

>  <smiles>  (170) 
[H]OC1([H])C([H])([H])C2([H])OC(=O)C3(C([H])([H])[H])C([H])([H])C4([H])OC5([H])OC([H])=C6C([H])(C([H])([H])C([H])([H])C([H])(C652)C1(C([H])([H])[H])C([H])([H])[H])C4(C([H])([H])[H])C([H])([H])C([H])(C([H])([H])[H])C1([H])OC2(OC([H])([H])C([H])(C([H])([H])[H])C([H])([H])C2([H])[H])C([H])(C([H])([H])[H])C13[H]

$$$$
60:0:1
     RDKit          3D

 91 98  0  0  1  0  0  0  0  0999 V2000
    3.0843    5.0537    4.0366 C   0  0  0  0  0  0  0  0  0  0  0  0
    2.0766    3.9276    4.3316 C   0  0  2  0  0  0  0  0  0  0  0  0
    2.3043    3.3510    5.7409 C   0  0  0  0  0  0  0  0  0  0  0  0
    1.3716    2.1618    5.9887 C   0  0  0  0  0  0  0  0  0  0  0  0
    1.5661    1.1041    4.8708 C   0  0  1  0  0  0  0  0  0  0  0  0
    1.3032    1.7100    3.6335 O   0  0  0  0  0  0  0  0  0  0  0  0
    2.1738    2.7904    3.3002 C   0  0  0  0  0  0  0  0  0  0  0  0
    2.8746    0.6233    4.9534 O   0  0  0  0  0  0  0  0  0  0  0  0
    2.9608   -0.7640    5.2989 C   0  0  2  0  0  0  0  0  0  0  0  0
    3.4869   -1.5347    4.0453 C   0  0  1  0  0  0  0  0  0  0  0  0
    4.8061   -0.8875    3.5603 C   0  0  0  0  0  0  0  0  0  0  0  0
    3.5986   -3.1019    4.0350 C   0  0  0  0  0  0  0  0  0  0  0  0
    4.1648   -4.0288    5.1729 C   0  0  1  0  0  0  0  0  0  0  0  0
    5.4604   -3.3449    5.6788 C   0  0  0  0  0  0  0  0  0  0  0  0
    3.2403   -4.2864    6.5507 C   0  0  1  0  0  0  0  0  0  0  0  0
    2.4098   -3.0945    7.0858 C   0  0  0  0  0  0  0  0  0  0  0  0
    1.1685   -2.5030    6.3075 C   0  0  2  0  0  0  0  0  0  0  0  0
   -0.0049   -2.4455    7.3068 C   0  0  0  0  0  0  0  0  0  0  0  0
    0.6739   -3.3989    5.1467 C   0  0  0  0  0  0  0  0  0  0  0  0
    0.2959   -2.9447    4.0726 O   0  0  0  0  0  0  0  0  0  0  0  0
    0.7172   -4.6936    5.4323 O   0  0  0  0  0  0  0  0  0  0  0  0
    1.1862   -5.6315    4.4659 C   0  0  2  0  0  0  0  0  0  0  0  0
   -0.0366   -6.6066    4.2924 C   0  0  0  0  0  0  0  0  0  0  0  0
    0.1394   -7.8488    3.3583 C   0  0  1  0  0  0  0  0  0  0  0  0
   -0.1316   -7.4047    2.0404 O   0  0  0  0  0  0  0  0  0  0  0  0
    1.5258   -8.5909    3.4713 C   0  0  0  0  0  0  0  0  0  0  0  0
    1.5355   -9.5321    4.6892 C   0  0  0  0  0  0  0  0  0  0  0  0
    1.8087   -9.4647    2.2276 C   0  0  0  0  0  0  0  0  0  0  0  0
    2.5834   -7.4830    3.6339 C   0  0  2  0  0  0  0  0  0  0  0  0
    3.9299   -7.3316    2.8241 C   0  0  0  0  0  0  0  0  0  0  0  0
    4.4717   -5.8344    2.9669 C   0  0  0  0  0  0  0  0  0  0  0  0
    4.6804   -5.3696    4.4691 C   0  0  2  0  0  0  0  0  0  0  0  0
    3.9149   -6.3483    5.1717 C   0  0  0  0  0  0  0  0  0  0  0  0
    4.3754   -7.1613    6.1113 C   0  0  0  0  0  0  0  0  0  0  0  0
    3.3196   -7.6664    6.7757 O   0  0  0  0  0  0  0  0  0  0  0  0
    2.2916   -6.8066    6.3812 C   0  0  1  0  0  0  0  0  0  0  0  0
    2.4479   -5.4990    7.0129 O   0  0  0  0  0  0  0  0  0  0  0  0
    2.4382   -6.5335    4.8710 C   0  0  1  0  0  0  0  0  0  0  0  0
    1.5539   -1.0324    5.8793 C   0  0  2  0  0  0  0  0  0  0  0  0
    0.6711   -0.1547    4.9756 C   0  0  1  0  0  0  0  0  0  0  0  0
   -0.7599    0.1727    5.4562 C   0  0  0  0  0  0  0  0  0  0  0  0
    4.1061    4.6844    4.0787 H   0  0  0  0  0  0  0  0  0  0  0  0
    3.0120    5.8624    4.7593 H   0  0  0  0  0  0  0  0  0  0  0  0
    2.9344    5.4832    3.0471 H   0  0  0  0  0  0  0  0  0  0  0  0
    1.0686    4.3373    4.2818 H   0  0  0  0  0  0  0  0  0  0  0  0
    3.3429    3.0392    5.8588 H   0  0  0  0  0  0  0  0  0  0  0  0
    2.1123    4.1188    6.4875 H   0  0  0  0  0  0  0  0  0  0  0  0
    1.6009    1.7173    6.9635 H   0  0  0  0  0  0  0  0  0  0  0  0
    0.3398    2.5041    5.9982 H   0  0  0  0  0  0  0  0  0  0  0  0
    1.9080    3.1592    2.3031 H   0  0  0  0  0  0  0  0  0  0  0  0
    3.1960    2.4162    3.2272 H   0  0  0  0  0  0  0  0  0  0  0  0
    3.7231   -0.7977    6.0746 H   0  0  0  0  0  0  0  0  0  0  0  0
    2.7778   -1.3234    3.2461 H   0  0  0  0  0  0  0  0  0  0  0  0
    5.5821   -0.9127    4.3247 H   0  0  0  0  0  0  0  0  0  0  0  0
    4.6566    0.1572    3.2874 H   0  0  0  0  0  0  0  0  0  0  0  0
    5.2007   -1.3781    2.6694 H   0  0  0  0  0  0  0  0  0  0  0  0
    2.6947   -3.5267    3.6295 H   0  0  0  0  0  0  0  0  0  0  0  0
    4.2809   -3.2621    3.1992 H   0  0  0  0  0  0  0  0  0  0  0  0
    6.0220   -3.9658    6.3837 H   0  0  0  0  0  0  0  0  0  0  0  0
    5.2528   -2.4057    6.1836 H   0  0  0  0  0  0  0  0  0  0  0  0
    6.1425   -3.1333    4.8537 H   0  0  0  0  0  0  0  0  0  0  0  0
    4.0292   -4.3810    7.2955 H   0  0  0  0  0  0  0  0  0  0  0  0
    2.0690   -3.4246    8.0689 H   0  0  0  0  0  0  0  0  0  0  0  0
    3.1058   -2.3095    7.3687 H   0  0  0  0  0  0  0  0  0  0  0  0
    0.1804   -1.7290    8.1100 H   0  0  0  0  0  0  0  0  0  0  0  0
   -0.1878   -3.4162    7.7729 H   0  0  0  0  0  0  0  0  0  0  0  0
   -0.9335   -2.1662    6.8205 H   0  0  0  0  0  0  0  0  0  0  0  0
    1.3666   -5.1208    3.5233 H   0  0  0  0  0  0  0  0  0  0  0  0
   -0.2970   -6.9922    5.2777 H   0  0  0  0  0  0  0  0  0  0  0  0
   -0.9241   -6.0415    3.9943 H   0  0  0  0  0  0  0  0  0  0  0  0
   -0.6451   -8.5690    3.5918 H   0  0  0  0  0  0  0  0  0  0  0  0
   -0.1345   -8.1715    1.4741 H   0  0  0  0  0  0  0  0  0  0  0  0
    2.5557   -9.8432    4.9308 H   0  0  0  0  0  0  0  0  0  0  0  0
    0.9407  -10.4287    4.5086 H   0  0  0  0  0  0  0  0  0  0  0  0
    1.1094   -9.0582    5.5718 H   0  0  0  0  0  0  0  0  0  0  0  0
    2.7492  -10.0107    2.3387 H   0  0  0  0  0  0  0  0  0  0  0  0
    1.8747   -8.8885    1.3050 H   0  0  0  0  0  0  0  0  0  0  0  0
    1.0227  -10.2081    2.0942 H   0  0  0  0  0  0  0  0  0  0  0  0
    2.1687   -6.8601    2.8481 H   0  0  0  0  0  0  0  0  0  0  0  0
    4.6788   -8.0414    3.1886 H   0  0  0  0  0  0  0  0  0  0  0  0
    3.7752   -7.5598    1.7674 H   0  0  0  0  0  0  0  0  0  0  0  0
    5.4173   -5.7347    2.4327 H   0  0  0  0  0  0  0  0  0  0  0  0
    3.7688   -5.1904    2.4425 H   0  0  0  0  0  0  0  0  0  0  0  0
    5.7245   -5.5783    4.7348 H   0  0  0  0  0  0  0  0  0  0  0  0
    5.3519   -7.2854    6.5482 H   0  0  0  0  0  0  0  0  0  0  0  0
    1.3272   -7.2185    6.6843 H   0  0  0  0  0  0  0  0  0  0  0  0
    1.5604   -0.5031    6.8302 H   0  0  0  0  0  0  0  0  0  0  0  0
    0.6163   -0.5681    3.9744 H   0  0  0  0  0  0  0  0  0  0  0  0
   -0.7812    0.4323    6.5135 H   0  0  0  0  0  0  0  0  0  0  0  0
   -1.4350   -0.6682    5.2977 H   0  0  0  0  0  0  0  0  0  0  0  0
   -1.1847    1.0069    4.8993 H   0  0  0  0  0  0  0  0  0  0  0  0
  1  2  1  0
  1 42  1  0
  1 43  1  0
  1 44  1  0
  2  7  1  0
  2  3  1  0
  2 45  1  1
  3  4  1  0
  3 46  1  0
  3 47  1  0
  4  5  1  0
  4 48  1  0
  4 49  1  0
  5 40  1  0
  5  6  1  6
  5  8  1  0
  6  7  1  0
  7 50  1  0
  7 51  1  0
  8  9  1  0
  9 39  1  0
  9 10  1  0
  9 52  1  1
 10 11  1  0
 10 12  1  0
 10 53  1  6
 11 54  1  0
 11 55  1  0
 11 56  1  0
 12 13  1  0
 12 57  1  0
 12 58  1  0
 13 32  1  0
 13 14  1  1
 13 15  1  0
 14 59  1  0
 14 60  1  0
 14 61  1  0
 15 37  1  0
 15 16  1  0
 15 62  1  1
 16 17  1  0
 16 63  1  0
 16 64  1  0
 17 18  1  1
 17 19  1  0
 17 39  1  0
 18 65  1  0
 18 66  1  0
 18 67  1  0
 19 20  2  0
 19 21  1  0
 21 22  1  0
 22 38  1  0
 22 23  1  0
 22 68  1  6
 23 24  1  0
 23 69  1  0
 23 70  1  0
 24 25  1  0
 24 26  1  0
 24 71  1  1
 25 72  1  0
 26 27  1  0
 26 28  1  0
 26 29  1  0
 27 73  1  0
 27 74  1  0
 27 75  1  0
 28 76  1  0
 28 77  1  0
 28 78  1  0
 29 38  1  0
 29 30  1  0
 29 79  1  6
 30 31  1  0
 30 80  1  0
 30 81  1  0
 31 32  1  0
 31 82  1  0
 31 83  1  0
 32 33  1  0
 32 84  1  1
 38 33  1  1
 33 34  2  0
 34 35  1  0
 34 85  1  0
 35 36  1  0
 36 37  1  0
 36 38  1  0
 36 86  1  6
 39 40  1  0
 39 87  1  1
 40 41  1  0
 40 88  1  6
 41 89  1  0
 41 90  1  0
 41 91  1  0
M  END
>  <i_m_ct_stereo_status>  (171) 
1

>  <s_m_source_file>  (171) 
/var/tmp/pbs.5076255.sched01/tmpjtt61wjg/4457_394l_.sdf

>  <i_m_source_file_index>  (171) 
38

>  <i_lp_mmshare_version>  (171) 
48012

>  <i_f3d_flags>  (171) 
0

>  <s_epik_input>  (171) 
TzFbQ0gyXVtDQEhdKFtDSDNdKVtDSDJdW0NIMl1bQ0BdMTJPW0NASF0zW0NAQEhdKFtDQEhdMltDSDNdKVtDQF00KFtDSDNdKVtDSDJdW0NIXTVbQ0BdKFtDSDNdKShbQ0gyXVtDQEBIXTNbQ0gzXSlbQ0BIXTZDPTdbQ0BAXTgoW0NASF0oTzUpT1tDSF03KVtDQEhdKE9DND1PKVtDSDJdW0NAQEhdKFtPSF0pQyhbQ0gzXSkoW0NIM10pW0NAQEhdOFtDSDJdW0NIMl02

>  <s_epik_cmdline>  (171) 
J2VwaWtfcHl0aG9uJywgJy1waHQnLCAnMi4wJywgJy1waCcsICc3LjAnLCAnLXRuJywgJzgnLCAnLW1hJywgJzIwMCcsICctaW1hZScsICc8aW5maWxlLm1hZT4nLCAnLW9tYWUnLCAnPG91dGZpbGUubWFlPic=

>  <r_lp_tautomer_probability>  (171) 
1

>  <r_epik_Ionization_Penalty>  (171) 
1.38317e-07

>  <r_epik_Ionization_Penalty_Charging>  (171) 
0

>  <r_epik_Ionization_Penalty_Neutral>  (171) 
1.38317e-07

>  <r_epik_State_Penalty>  (171) 
-0

>  <r_epik_Charging_Adjusted_Penalty>  (171) 
0

>  <i_epik_Tot_Q>  (171) 
0

>  <i_epik_Tot_abs_Q>  (171) 
0

>  <s_epik_Chemistry_Notes>  (171) 
This compound has an ester and may undergo hydrolysis at high or low pH. This compound contains an acetal/aminal-like group ( X-CH(R)-Y where X, Y are N, S, or O) that may be acid/base labile, releasing an aldehyde.

>  <s_lp_Force_Field>  (171) 
OPLS3e

>  <r_lp_Energy>  (171) 
216.042

>  <b_lp_Chiralities_Consistent>  (171) 
1

>  <s_lp_Variant>  (171) 
60:0-1

>  <s_i_glide_gridfile>  (171) 
pfpi4k_grid

>  <i_i_glide_lignum>  (171) 
38

>  <i_i_glide_rotatable_bonds>  (171) 
1

>  <r_i_docking_score>  (171) 
-1.67938

>  <r_i_glide_ligand_efficiency>  (171) 
-0.0409604

>  <r_i_glide_ligand_efficiency_sa>  (171) 
-0.14124

>  <r_i_glide_ligand_efficiency_ln>  (171) 
-0.356285

>  <r_i_glide_gscore>  (171) 
-1.67938

>  <r_i_glide_lipo>  (171) 
-0.19698

>  <r_i_glide_hbond>  (171) 
-0.0149999

>  <r_i_glide_metal>  (171) 
-0

>  <r_i_glide_rewards>  (171) 
0

>  <r_i_glide_evdw>  (171) 
-28.4775

>  <r_i_glide_ecoul>  (171) 
-0.275357

>  <r_i_glide_erotb>  (171) 
0

>  <r_i_glide_esite>  (171) 
-0.00221626

>  <r_i_glide_emodel>  (171) 
-32.2435

>  <r_i_glide_energy>  (171) 
-28.7529

>  <r_i_glide_einternal>  (171) 
0.3277

>  <r_i_glide_intrahb_reward>  (171) 
-0

>  <i_i_glide_confnum>  (171) 
2

>  <i_i_glide_posenum>  (171) 
1

>  <r_i_glide_eff_state_penalty>  (171) 
0

>  <ligand_id>  (171) 
60

>  <original_smiles>  (171) 
CC1CCC2(OC1)OC1C(C)CC3(C)C4CC(C)(C(=O)OC5CC(O)C(C)(C)C6CCC3C3=COC(O4)C356)C1C2C

>  <smiles>  (171) 
[H]OC1([H])C([H])([H])C2([H])OC(=O)C3(C([H])([H])[H])C([H])([H])C4([H])OC5([H])OC([H])=C6C([H])(C([H])([H])C([H])([H])C([H])(C652)C1(C([H])([H])[H])C([H])([H])[H])C4(C([H])([H])[H])C([H])([H])C([H])(C([H])([H])[H])C1([H])OC2(OC([H])([H])C([H])(C([H])([H])[H])C([H])([H])C2([H])[H])C([H])(C([H])([H])[H])C13[H]

$$$$
60:0:2
     RDKit          3D

 91 98  0  0  1  0  0  0  0  0999 V2000
    2.5510    5.3223    4.6123 C   0  0  0  0  0  0  0  0  0  0  0  0
    1.6130    4.1007    4.6332 C   0  0  2  0  0  0  0  0  0  0  0  0
    1.5947    3.4494    6.0285 C   0  0  0  0  0  0  0  0  0  0  0  0
    0.7471    2.1748    6.0120 C   0  0  0  0  0  0  0  0  0  0  0  0
    1.2654    1.2148    4.9045 C   0  0  1  0  0  0  0  0  0  0  0  0
    1.2099    1.8794    3.6762 O   0  0  0  0  0  0  0  0  0  0  0  0
    2.0229    3.0480    3.5864 C   0  0  0  0  0  0  0  0  0  0  0  0
    2.5705    0.8373    5.2434 O   0  0  0  0  0  0  0  0  0  0  0  0
    2.7131   -0.5589    5.5257 C   0  0  2  0  0  0  0  0  0  0  0  0
    3.5555   -1.1911    4.3714 C   0  0  1  0  0  0  0  0  0  0  0  0
    4.8793   -0.4051    4.2075 C   0  0  0  0  0  0  0  0  0  0  0  0
    3.8230   -2.7389    4.3015 C   0  0  0  0  0  0  0  0  0  0  0  0
    4.2231   -3.6938    5.4871 C   0  0  1  0  0  0  0  0  0  0  0  0
    5.3242   -2.9429    6.2787 C   0  0  0  0  0  0  0  0  0  0  0  0
    3.0673   -4.1233    6.6238 C   0  0  1  0  0  0  0  0  0  0  0  0
    2.0297   -3.0455    7.0432 C   0  0  0  0  0  0  0  0  0  0  0  0
    0.9277   -2.5063    6.0507 C   0  0  2  0  0  0  0  0  0  0  0  0
   -0.4328   -2.6210    6.7726 C   0  0  0  0  0  0  0  0  0  0  0  0
    0.7935   -3.3502    4.7679 C   0  0  0  0  0  0  0  0  0  0  0  0
    0.6675   -2.8447    3.6543 O   0  0  0  0  0  0  0  0  0  0  0  0
    0.8654   -4.6570    4.9806 O   0  0  0  0  0  0  0  0  0  0  0  0
    1.6146   -5.4830    4.0919 C   0  0  2  0  0  0  0  0  0  0  0  0
    0.5593   -6.5384    3.6077 C   0  0  0  0  0  0  0  0  0  0  0  0
    1.0391   -7.6926    2.6729 C   0  0  1  0  0  0  0  0  0  0  0  0
    1.0184   -7.1839    1.3509 O   0  0  0  0  0  0  0  0  0  0  0  0
    2.4350   -8.3271    3.0311 C   0  0  0  0  0  0  0  0  0  0  0  0
    2.2798   -9.3480    4.1710 C   0  0  0  0  0  0  0  0  0  0  0  0
    3.0398   -9.0886    1.8264 C   0  0  0  0  0  0  0  0  0  0  0  0
    3.3274   -7.1507    3.4740 C   0  0  2  0  0  0  0  0  0  0  0  0
    4.7906   -6.8325    2.9731 C   0  0  0  0  0  0  0  0  0  0  0  0
    5.1409   -5.3090    3.3043 C   0  0  0  0  0  0  0  0  0  0  0  0
    4.9933   -4.9385    4.8354 C   0  0  2  0  0  0  0  0  0  0  0  0
    4.1968   -6.0211    5.3125 C   0  0  0  0  0  0  0  0  0  0  0  0
    4.5298   -6.8567    6.2853 C   0  0  0  0  0  0  0  0  0  0  0  0
    3.4131   -7.4891    6.6838 O   0  0  0  0  0  0  0  0  0  0  0  0
    2.4113   -6.6941    6.1258 C   0  0  1  0  0  0  0  0  0  0  0  0
    2.3147   -5.4266    6.8436 O   0  0  0  0  0  0  0  0  0  0  0  0
    2.8403   -6.3041    4.6990 C   0  0  1  0  0  0  0  0  0  0  0  0
    1.2463   -0.9828    5.7866 C   0  0  2  0  0  0  0  0  0  0  0  0
    0.4928   -0.1182    4.7595 C   0  0  1  0  0  0  0  0  0  0  0  0
   -1.0353    0.0599    4.9398 C   0  0  0  0  0  0  0  0  0  0  0  0
    3.5770    5.0396    4.8395 H   0  0  0  0  0  0  0  0  0  0  0  0
    2.2551    6.0689    5.3467 H   0  0  0  0  0  0  0  0  0  0  0  0
    2.5576    5.8087    3.6388 H   0  0  0  0  0  0  0  0  0  0  0  0
    0.6020    4.4318    4.3948 H   0  0  0  0  0  0  0  0  0  0  0  0
    2.6140    3.2141    6.3470 H   0  0  0  0  0  0  0  0  0  0  0  0
    1.1860    4.1444    6.7569 H   0  0  0  0  0  0  0  0  0  0  0  0
    0.8099    1.6840    6.9883 H   0  0  0  0  0  0  0  0  0  0  0  0
   -0.2944    2.4318    5.8216 H   0  0  0  0  0  0  0  0  0  0  0  0
    1.9261    3.4638    2.5788 H   0  0  0  0  0  0  0  0  0  0  0  0
    3.0717    2.7679    3.7071 H   0  0  0  0  0  0  0  0  0  0  0  0
    3.3012   -0.5840    6.4406 H   0  0  0  0  0  0  0  0  0  0  0  0
    3.0077   -0.9813    3.4518 H   0  0  0  0  0  0  0  0  0  0  0  0
    5.4819   -0.4207    5.1154 H   0  0  0  0  0  0  0  0  0  0  0  0
    4.6886    0.6399    3.9639 H   0  0  0  0  0  0  0  0  0  0  0  0
    5.4921   -0.8001    3.3949 H   0  0  0  0  0  0  0  0  0  0  0  0
    3.0712   -3.2106    3.6903 H   0  0  0  0  0  0  0  0  0  0  0  0
    4.6709   -2.7828    3.6184 H   0  0  0  0  0  0  0  0  0  0  0  0
    5.7773   -3.5632    7.0550 H   0  0  0  0  0  0  0  0  0  0  0  0
    4.9290   -2.0619    6.7775 H   0  0  0  0  0  0  0  0  0  0  0  0
    6.1417   -2.6199    5.6294 H   0  0  0  0  0  0  0  0  0  0  0  0
    3.6895   -4.2099    7.5132 H   0  0  0  0  0  0  0  0  0  0  0  0
    1.5263   -3.4755    7.9128 H   0  0  0  0  0  0  0  0  0  0  0  0
    2.5793   -2.2267    7.5002 H   0  0  0  0  0  0  0  0  0  0  0  0
   -0.4814   -1.9472    7.6286 H   0  0  0  0  0  0  0  0  0  0  0  0
   -0.6191   -3.6332    7.1397 H   0  0  0  0  0  0  0  0  0  0  0  0
   -1.2619   -2.3807    6.1139 H   0  0  0  0  0  0  0  0  0  0  0  0
    1.9370   -4.8944    3.2370 H   0  0  0  0  0  0  0  0  0  0  0  0
    0.1296   -7.0081    4.4900 H   0  0  0  0  0  0  0  0  0  0  0  0
   -0.2774   -6.0206    3.1386 H   0  0  0  0  0  0  0  0  0  0  0  0
    0.2925   -8.4870    2.6865 H   0  0  0  0  0  0  0  0  0  0  0  0
    1.1878   -7.9143    0.7733 H   0  0  0  0  0  0  0  0  0  0  0  0
    3.2527   -9.5898    4.6074 H   0  0  0  0  0  0  0  0  0  0  0  0
    1.8252  -10.2772    3.8206 H   0  0  0  0  0  0  0  0  0  0  0  0
    1.6374   -8.9759    4.9676 H   0  0  0  0  0  0  0  0  0  0  0  0
    3.9829   -9.5652    2.1075 H   0  0  0  0  0  0  0  0  0  0  0  0
    3.2497   -8.4399    0.9757 H   0  0  0  0  0  0  0  0  0  0  0  0
    2.3716   -9.8795    1.4808 H   0  0  0  0  0  0  0  0  0  0  0  0
    3.0264   -6.5067    2.6486 H   0  0  0  0  0  0  0  0  0  0  0  0
    5.5092   -7.5003    3.4546 H   0  0  0  0  0  0  0  0  0  0  0  0
    4.8775   -6.9976    1.8973 H   0  0  0  0  0  0  0  0  0  0  0  0
    6.1623   -5.0935    2.9856 H   0  0  0  0  0  0  0  0  0  0  0  0
    4.5030   -4.6928    2.6765 H   0  0  0  0  0  0  0  0  0  0  0  0
    5.9768   -5.0767    5.3032 H   0  0  0  0  0  0  0  0  0  0  0  0
    5.4024   -6.9251    6.9133 H   0  0  0  0  0  0  0  0  0  0  0  0
    1.4508   -7.2053    6.1977 H   0  0  0  0  0  0  0  0  0  0  0  0
    1.0086   -0.5148    6.7401 H   0  0  0  0  0  0  0  0  0  0  0  0
    0.6816   -0.4574    3.7490 H   0  0  0  0  0  0  0  0  0  0  0  0
   -1.2984    0.2460    5.9786 H   0  0  0  0  0  0  0  0  0  0  0  0
   -1.5777   -0.8226    4.6024 H   0  0  0  0  0  0  0  0  0  0  0  0
   -1.4076    0.8901    4.3451 H   0  0  0  0  0  0  0  0  0  0  0  0
  1  2  1  0
  1 42  1  0
  1 43  1  0
  1 44  1  0
  2  7  1  0
  2  3  1  0
  2 45  1  6
  3  4  1  0
  3 46  1  0
  3 47  1  0
  4  5  1  0
  4 48  1  0
  4 49  1  0
  5 40  1  0
  5  6  1  6
  5  8  1  0
  6  7  1  0
  7 50  1  0
  7 51  1  0
  8  9  1  0
  9 39  1  0
  9 10  1  0
  9 52  1  1
 10 11  1  0
 10 12  1  0
 10 53  1  6
 11 54  1  0
 11 55  1  0
 11 56  1  0
 12 13  1  0
 12 57  1  0
 12 58  1  0
 13 32  1  0
 13 14  1  1
 13 15  1  0
 14 59  1  0
 14 60  1  0
 14 61  1  0
 15 37  1  0
 15 16  1  0
 15 62  1  1
 16 17  1  0
 16 63  1  0
 16 64  1  0
 17 18  1  1
 17 19  1  0
 17 39  1  0
 18 65  1  0
 18 66  1  0
 18 67  1  0
 19 20  2  0
 19 21  1  0
 21 22  1  0
 22 38  1  0
 22 23  1  0
 22 68  1  6
 23 24  1  0
 23 69  1  0
 23 70  1  0
 24 25  1  0
 24 26  1  0
 24 71  1  6
 25 72  1  0
 26 27  1  0
 26 28  1  0
 26 29  1  0
 27 73  1  0
 27 74  1  0
 27 75  1  0
 28 76  1  0
 28 77  1  0
 28 78  1  0
 29 38  1  0
 29 30  1  0
 29 79  1  6
 30 31  1  0
 30 80  1  0
 30 81  1  0
 31 32  1  0
 31 82  1  0
 31 83  1  0
 32 33  1  0
 32 84  1  1
 38 33  1  1
 33 34  2  0
 34 35  1  0
 34 85  1  0
 35 36  1  0
 36 37  1  0
 36 38  1  0
 36 86  1  6
 39 40  1  0
 39 87  1  1
 40 41  1  0
 40 88  1  6
 41 89  1  0
 41 90  1  0
 41 91  1  0
M  END
>  <i_m_ct_stereo_status>  (172) 
1

>  <s_m_source_file>  (172) 
/var/tmp/pbs.5076255.sched01/tmpjtt61wjg/4457_394l_.sdf

>  <i_m_source_file_index>  (172) 
38

>  <i_lp_mmshare_version>  (172) 
48012

>  <i_f3d_flags>  (172) 
0

>  <s_epik_input>  (172) 
TzFbQ0gyXVtDQEhdKFtDSDNdKVtDSDJdW0NIMl1bQ0BdMTJPW0NASF0zW0NAQEhdKFtDQEhdMltDSDNdKVtDQF00KFtDSDNdKVtDSDJdW0NIXTVbQ0BdKFtDSDNdKShbQ0gyXVtDQEBIXTNbQ0gzXSlbQ0BIXTZDPTdbQ0BAXTgoW0NASF0oTzUpT1tDSF03KVtDQEhdKE9DND1PKVtDSDJdW0NAQEhdKFtPSF0pQyhbQ0gzXSkoW0NIM10pW0NAQEhdOFtDSDJdW0NIMl02

>  <s_epik_cmdline>  (172) 
J2VwaWtfcHl0aG9uJywgJy1waHQnLCAnMi4wJywgJy1waCcsICc3LjAnLCAnLXRuJywgJzgnLCAnLW1hJywgJzIwMCcsICctaW1hZScsICc8aW5maWxlLm1hZT4nLCAnLW9tYWUnLCAnPG91dGZpbGUubWFlPic=

>  <r_lp_tautomer_probability>  (172) 
1

>  <r_epik_Ionization_Penalty>  (172) 
1.38317e-07

>  <r_epik_Ionization_Penalty_Charging>  (172) 
0

>  <r_epik_Ionization_Penalty_Neutral>  (172) 
1.38317e-07

>  <r_epik_State_Penalty>  (172) 
-0

>  <r_epik_Charging_Adjusted_Penalty>  (172) 
0

>  <i_epik_Tot_Q>  (172) 
0

>  <i_epik_Tot_abs_Q>  (172) 
0

>  <s_epik_Chemistry_Notes>  (172) 
This compound has an ester and may undergo hydrolysis at high or low pH. This compound contains an acetal/aminal-like group ( X-CH(R)-Y where X, Y are N, S, or O) that may be acid/base labile, releasing an aldehyde.

>  <s_lp_Force_Field>  (172) 
OPLS3e

>  <r_lp_Energy>  (172) 
216.042

>  <b_lp_Chiralities_Consistent>  (172) 
1

>  <s_lp_Variant>  (172) 
60:0-1

>  <s_i_glide_gridfile>  (172) 
pfpi4k_grid

>  <i_i_glide_lignum>  (172) 
38

>  <i_i_glide_rotatable_bonds>  (172) 
1

>  <r_i_docking_score>  (172) 
-1.30799

>  <r_i_glide_ligand_efficiency>  (172) 
-0.0319023

>  <r_i_glide_ligand_efficiency_sa>  (172) 
-0.110006

>  <r_i_glide_ligand_efficiency_ln>  (172) 
-0.277495

>  <r_i_glide_gscore>  (172) 
-1.30799

>  <r_i_glide_lipo>  (172) 
-0.0859439

>  <r_i_glide_hbond>  (172) 
0

>  <r_i_glide_metal>  (172) 
-0

>  <r_i_glide_rewards>  (172) 
-0.0161763

>  <r_i_glide_evdw>  (172) 
-28.3475

>  <r_i_glide_ecoul>  (172) 
1.4248

>  <r_i_glide_erotb>  (172) 
0

>  <r_i_glide_esite>  (172) 
-0.00221628

>  <r_i_glide_emodel>  (172) 
-29.4965

>  <r_i_glide_energy>  (172) 
-26.9227

>  <r_i_glide_einternal>  (172) 
0.352311

>  <r_i_glide_intrahb_reward>  (172) 
-0

>  <i_i_glide_confnum>  (172) 
1

>  <i_i_glide_posenum>  (172) 
12

>  <r_i_glide_eff_state_penalty>  (172) 
0

>  <ligand_id>  (172) 
60

>  <original_smiles>  (172) 
CC1CCC2(OC1)OC1C(C)CC3(C)C4CC(C)(C(=O)OC5CC(O)C(C)(C)C6CCC3C3=COC(O4)C356)C1C2C

>  <smiles>  (172) 
[H]OC1([H])C([H])([H])C2([H])OC(=O)C3(C([H])([H])[H])C([H])([H])C4([H])OC5([H])OC([H])=C6C([H])(C([H])([H])C([H])([H])C([H])(C652)C1(C([H])([H])[H])C([H])([H])[H])C4(C([H])([H])[H])C([H])([H])C([H])(C([H])([H])[H])C1([H])OC2(OC([H])([H])C([H])(C([H])([H])[H])C([H])([H])C2([H])[H])C([H])(C([H])([H])[H])C13[H]

$$$$
61:0:0
     RDKit          3D

 62 67  0  0  1  0  0  0  0  0999 V2000
    4.6608   -1.4731    6.0022 C   0  0  0  0  0  0  0  0  0  0  0  0
    4.1160   -1.8536    4.7574 O   0  0  0  0  0  0  0  0  0  0  0  0
    4.1630   -3.1292    4.3427 C   0  0  0  0  0  0  0  0  0  0  0  0
    4.7139   -4.0311    4.9761 O   0  0  0  0  0  0  0  0  0  0  0  0
    3.5338   -3.3588    2.9236 C   0  0  1  0  0  0  0  0  0  0  0  0
    3.0931   -4.7035    2.9806 O   0  0  0  0  0  0  0  0  0  0  0  0
    2.1797   -2.5222    2.6736 C   0  0  1  0  0  0  0  0  0  0  0  0
    1.2155   -2.0425    3.8264 C   0  0  0  0  0  0  0  0  0  0  0  0
    1.2926   -0.5546    4.3393 C   0  0  0  0  0  0  0  0  0  0  0  0
    1.2564    0.5886    3.2717 C   0  0  0  0  0  0  0  0  0  0  0  0
    2.6280    0.9697    2.6396 C   0  0  0  0  0  0  0  0  0  0  0  0
    3.3940   -0.2653    2.3712 N   0  0  2  0  0  0  0  0  0  0  0  0
    4.9072   -0.2780    2.3209 C   0  0  0  0  0  0  0  0  0  0  0  0
    5.4914   -1.7304    2.1308 C   0  0  0  0  0  0  0  0  0  0  0  0
    4.4663   -2.8430    1.6214 C   0  0  1  0  0  0  0  0  0  0  0  0
    5.1276   -3.8571    0.5716 C   0  0  1  0  0  0  0  0  0  0  0  0
    4.2002   -5.0962    0.4441 C   0  0  0  0  0  0  0  0  0  0  0  0
    2.7970   -4.6601    0.3028 N   0  0  0  0  0  0  0  0  0  0  0  0
    2.6549   -3.2783   -0.1980 C   0  0  2  0  0  0  0  0  0  0  0  0
    3.0458   -3.4118   -1.7010 C   0  0  0  0  0  0  0  0  0  0  0  0
    4.5438   -3.7607   -1.9531 C   0  0  1  0  0  0  0  0  0  0  0  0
    5.0108   -3.3620   -3.3733 C   0  0  0  0  0  0  0  0  0  0  0  0
    5.4103   -3.2560   -0.8308 N   0  0  1  0  0  0  0  0  0  0  0  0
    5.4249   -1.7680   -0.9030 C   0  0  0  0  0  0  0  0  0  0  0  0
    4.1059   -1.1871   -0.3721 C   0  0  0  0  0  0  0  0  0  0  0  0
    3.4432   -2.1523    0.6752 C   0  0  2  0  0  0  0  0  0  0  0  0
    2.6115   -1.3833    1.7439 C   0  0  2  0  0  0  0  0  0  0  0  0
    4.4654   -0.4121    6.1516 H   0  0  0  0  0  0  0  0  0  0  0  0
    5.7390   -1.6320    6.0193 H   0  0  0  0  0  0  0  0  0  0  0  0
    4.1947   -2.0263    6.8161 H   0  0  0  0  0  0  0  0  0  0  0  0
    2.7657   -4.9258    2.1161 H   0  0  0  0  0  0  0  0  0  0  0  0
    1.5233   -3.1622    2.0907 H   0  0  0  0  0  0  0  0  0  0  0  0
    0.1989   -2.1713    3.4538 H   0  0  0  0  0  0  0  0  0  0  0  0
    1.2839   -2.7261    4.6726 H   0  0  0  0  0  0  0  0  0  0  0  0
    0.4318   -0.4124    4.9966 H   0  0  0  0  0  0  0  0  0  0  0  0
    2.1471   -0.4078    4.9992 H   0  0  0  0  0  0  0  0  0  0  0  0
    0.5364    0.3327    2.4904 H   0  0  0  0  0  0  0  0  0  0  0  0
    0.8599    1.4857    3.7443 H   0  0  0  0  0  0  0  0  0  0  0  0
    2.4900    1.5505    1.7296 H   0  0  0  0  0  0  0  0  0  0  0  0
    3.1919    1.5892    3.3373 H   0  0  0  0  0  0  0  0  0  0  0  0
    5.3022    0.3970    1.5638 H   0  0  0  0  0  0  0  0  0  0  0  0
    5.2818    0.1271    3.2648 H   0  0  0  0  0  0  0  0  0  0  0  0
    6.3922   -1.6781    1.5363 H   0  0  0  0  0  0  0  0  0  0  0  0
    5.9817   -2.0420    3.0471 H   0  0  0  0  0  0  0  0  0  0  0  0
    6.0858   -4.1951    0.9668 H   0  0  0  0  0  0  0  0  0  0  0  0
    4.4885   -5.7890   -0.3427 H   0  0  0  0  0  0  0  0  0  0  0  0
    4.3151   -5.7346    1.3149 H   0  0  0  0  0  0  0  0  0  0  0  0
    2.2970   -5.3166   -0.2880 H   0  0  0  0  0  0  0  0  0  0  0  0
    1.5992   -3.0365   -0.1950 H   0  0  0  0  0  0  0  0  0  0  0  0
    2.4044   -4.1730   -2.1442 H   0  0  0  0  0  0  0  0  0  0  0  0
    2.7536   -2.5291   -2.2702 H   0  0  0  0  0  0  0  0  0  0  0  0
    4.6621   -4.8365   -2.0170 H   0  0  0  0  0  0  0  0  0  0  0  0
    4.5157   -3.9871   -4.1173 H   0  0  0  0  0  0  0  0  0  0  0  0
    6.0848   -3.5035   -3.5038 H   0  0  0  0  0  0  0  0  0  0  0  0
    4.7675   -2.3322   -3.6352 H   0  0  0  0  0  0  0  0  0  0  0  0
    6.2958   -1.3759   -0.3983 H   0  0  0  0  0  0  0  0  0  0  0  0
    5.5877   -1.3989   -1.9104 H   0  0  0  0  0  0  0  0  0  0  0  0
    4.2714   -0.1650   -0.0609 H   0  0  0  0  0  0  0  0  0  0  0  0
    3.4108   -0.9763   -1.1764 H   0  0  0  0  0  0  0  0  0  0  0  0
    3.0304   -1.3215    2.7170 H   0  0  0  0  0  0  0  0  0  0  0  0
    6.3368   -3.5718   -1.0787 H   0  0  0  0  0  0  0  0  0  0  0  0
    3.3434   -0.5957    3.3273 H   0  0  0  0  0  0  0  0  0  0  0  0
  1  2  1  0
  1 28  1  0
  1 29  1  0
  1 30  1  0
  2  3  1  0
  3  4  2  0
  3  5  1  0
  5 15  1  0
  5  6  1  6
  5  7  1  0
  6 31  1  0
  7 27  1  0
  7  8  1  0
  7 32  1  6
  8  9  1  0
  8 33  1  0
  8 34  1  0
  9 10  1  0
  9 35  1  0
  9 36  1  0
 10 11  1  0
 10 37  1  0
 10 38  1  0
 11 12  1  0
 11 39  1  0
 11 40  1  0
 12 27  1  0
 12 13  1  0
 12 62  1  1
 13 14  1  0
 13 41  1  0
 13 42  1  0
 15 14  1  1
 14 43  1  0
 14 44  1  0
 15 26  1  0
 15 16  1  0
 16 23  1  0
 16 17  1  0
 16 45  1  1
 17 18  1  0
 17 46  1  0
 17 47  1  0
 18 19  1  0
 18 48  1  0
 19 26  1  0
 19 20  1  0
 19 49  1  6
 20 21  1  0
 20 50  1  0
 20 51  1  0
 21 22  1  0
 21 23  1  0
 21 52  1  6
 22 53  1  0
 22 54  1  0
 22 55  1  0
 23 24  1  0
 23 61  1  6
 24 25  1  0
 24 56  1  0
 24 57  1  0
 26 25  1  6
 25 58  1  0
 25 59  1  0
 26 27  1  0
 27 60  1  6
M  CHG  2  12   1  23   1
M  END
>  <i_m_ct_stereo_status>  (173) 
1

>  <s_m_source_file>  (173) 
/var/tmp/pbs.5076255.sched01/tmpjtt61wjg/4457_394l_.sdf

>  <i_m_source_file_index>  (173) 
39

>  <i_lp_mmshare_version>  (173) 
48012

>  <i_f3d_flags>  (173) 
0

>  <s_epik_input>  (173) 
W0NIMl0xW0NIMl1OMltDSDJdW0NIMl1bQ0gyXVtDSDJdW0NIXShbQ0BdMyhbT0hdKUMoPU8pT1tDSDNdKVtDQEhdMltDQEBdNChbQ0BAXTEzNSlbQ0BASF02W05IXVtDSDJdW0NASF01TihbQ0BASF0oW0NIMl02KVtDSDNdKVtDSDJdW0NIMl00

>  <s_epik_cmdline>  (173) 
J2VwaWtfcHl0aG9uJywgJy1waHQnLCAnMi4wJywgJy1waCcsICc3LjAnLCAnLXRuJywgJzgnLCAnLW1hJywgJzIwMCcsICctaW1hZScsICc8aW5maWxlLm1hZT4nLCAnLW9tYWUnLCAnPG91dGZpbGUubWFlPic=

>  <r_epik_Ionization_Penalty>  (173) 
0.125799

>  <r_epik_Ionization_Penalty_Charging>  (173) 
0.125505

>  <r_epik_Ionization_Penalty_Neutral>  (173) 
0.000293647

>  <r_epik_State_Penalty>  (173) 
0.191382

>  <r_epik_Charging_Adjusted_Penalty>  (173) 
0.316887

>  <i_epik_Tot_Q>  (173) 
2

>  <i_epik_Tot_abs_Q>  (173) 
2

>  <s_epik_Chemistry_Notes>  (173) 
This compound has an ester and may undergo hydrolysis at high or low pH.

>  <s_lp_Force_Field>  (173) 
OPLS3e

>  <r_lp_Energy>  (173) 
239.073

>  <b_lp_Chiralities_Consistent>  (173) 
1

>  <s_lp_Variant>  (173) 
61:0-1

>  <s_i_glide_gridfile>  (173) 
pfpi4k_grid

>  <i_i_glide_lignum>  (173) 
39

>  <i_i_glide_rotatable_bonds>  (173) 
3

>  <r_i_docking_score>  (173) 
-3.85957

>  <r_i_glide_ligand_efficiency>  (173) 
-0.142947

>  <r_i_glide_ligand_efficiency_sa>  (173) 
-0.428841

>  <r_i_glide_ligand_efficiency_ln>  (173) 
-0.898444

>  <r_i_glide_gscore>  (173) 
-3.85957

>  <r_i_glide_lipo>  (173) 
-0.727279

>  <r_i_glide_hbond>  (173) 
0

>  <r_i_glide_metal>  (173) 
-0

>  <r_i_glide_rewards>  (173) 
-1.33779

>  <r_i_glide_evdw>  (173) 
-24.0256

>  <r_i_glide_ecoul>  (173) 
-4.86084

>  <r_i_glide_erotb>  (173) 
0.135904

>  <r_i_glide_esite>  (173) 
0

>  <r_i_glide_emodel>  (173) 
-39.8994

>  <r_i_glide_energy>  (173) 
-28.8864

>  <r_i_glide_einternal>  (173) 
1.33089

>  <r_i_glide_intrahb_reward>  (173) 
-0.5

>  <i_i_glide_confnum>  (173) 
2

>  <i_i_glide_posenum>  (173) 
7

>  <r_i_glide_eff_state_penalty>  (173) 
0

>  <ligand_id>  (173) 
61

>  <original_smiles>  (173) 
COC(=O)C1(O)C2CCCCN3CCC14C1CNC5CC(C)N1CCC54C23

>  <smiles>  (173) 
[H]OC1(C(=O)OC([H])([H])[H])C2([H])C([H])([H])C([H])([H])C([H])([H])C([H])([H])[N+]3([H])C([H])([H])C([H])([H])C14C1(C([H])([H])C([H])([H])[N+]5([H])C([H])(C([H])([H])[H])C([H])([H])C1([H])N([H])C([H])([H])C45[H])C23[H]

$$$$
61:0:1
     RDKit          3D

 62 67  0  0  1  0  0  0  0  0999 V2000
    5.8044   -3.9652    5.8101 C   0  0  0  0  0  0  0  0  0  0  0  0
    5.1000   -4.0413    4.5807 O   0  0  0  0  0  0  0  0  0  0  0  0
    4.1026   -3.1680    4.3343 C   0  0  0  0  0  0  0  0  0  0  0  0
    3.7702   -2.2576    5.0951 O   0  0  0  0  0  0  0  0  0  0  0  0
    3.4553   -3.3725    2.9324 C   0  0  1  0  0  0  0  0  0  0  0  0
    3.0272   -4.7163    3.0136 O   0  0  0  0  0  0  0  0  0  0  0  0
    2.1024   -2.5336    2.6847 C   0  0  1  0  0  0  0  0  0  0  0  0
    1.1080   -2.0643    3.8184 C   0  0  0  0  0  0  0  0  0  0  0  0
    1.1810   -0.5817    4.3448 C   0  0  0  0  0  0  0  0  0  0  0  0
    1.1554    0.5732    3.2882 C   0  0  0  0  0  0  0  0  0  0  0  0
    2.5376    0.9611    2.6819 C   0  0  0  0  0  0  0  0  0  0  0  0
    3.3139   -0.2722    2.4363 N   0  0  2  0  0  0  0  0  0  0  0  0
    4.8251   -0.2754    2.3997 C   0  0  0  0  0  0  0  0  0  0  0  0
    5.4152   -1.7223    2.1966 C   0  0  0  0  0  0  0  0  0  0  0  0
    4.4039   -2.8404    1.6543 C   0  0  1  0  0  0  0  0  0  0  0  0
    5.0827   -3.8412    0.6028 C   0  0  1  0  0  0  0  0  0  0  0  0
    4.1597   -5.0799    0.4465 C   0  0  0  0  0  0  0  0  0  0  0  0
    2.7650   -4.6419    0.2651 N   0  0  0  0  0  0  0  0  0  0  0  0
    2.6182   -3.2526   -0.2033 C   0  0  2  0  0  0  0  0  0  0  0  0
    3.0277   -3.3730   -1.7025 C   0  0  0  0  0  0  0  0  0  0  0  0
    4.5287   -3.7213   -1.9310 C   0  0  1  0  0  0  0  0  0  0  0  0
    5.0138   -3.3129   -3.3402 C   0  0  0  0  0  0  0  0  0  0  0  0
    5.3813   -3.2251   -0.7910 N   0  0  1  0  0  0  0  0  0  0  0  0
    5.3959   -1.7363   -0.8455 C   0  0  0  0  0  0  0  0  0  0  0  0
    4.0685   -1.1616   -0.3249 C   0  0  0  0  0  0  0  0  0  0  0  0
    3.3942   -2.1398    0.7029 C   0  0  2  0  0  0  0  0  0  0  0  0
    2.5523   -1.3854    1.7830 C   0  0  2  0  0  0  0  0  0  0  0  0
    6.6042   -4.7045    5.8186 H   0  0  0  0  0  0  0  0  0  0  0  0
    5.1394   -4.1686    6.6507 H   0  0  0  0  0  0  0  0  0  0  0  0
    6.2529   -2.9802    5.9510 H   0  0  0  0  0  0  0  0  0  0  0  0
    3.7878   -5.2583    3.1524 H   0  0  0  0  0  0  0  0  0  0  0  0
    1.4631   -3.1727    2.0828 H   0  0  0  0  0  0  0  0  0  0  0  0
    0.0987   -2.1906    3.4271 H   0  0  0  0  0  0  0  0  0  0  0  0
    1.1550   -2.7555    4.6602 H   0  0  0  0  0  0  0  0  0  0  0  0
    0.3154   -0.4433    4.9961 H   0  0  0  0  0  0  0  0  0  0  0  0
    2.0371   -0.4468    5.0063 H   0  0  0  0  0  0  0  0  0  0  0  0
    0.4474    0.3235    2.4942 H   0  0  0  0  0  0  0  0  0  0  0  0
    0.7464    1.4651    3.7623 H   0  0  0  0  0  0  0  0  0  0  0  0
    2.4154    1.5443    1.7704 H   0  0  0  0  0  0  0  0  0  0  0  0
    3.0851    1.5819    3.3908 H   0  0  0  0  0  0  0  0  0  0  0  0
    5.2234    0.4065    1.6520 H   0  0  0  0  0  0  0  0  0  0  0  0
    5.1851    0.1200    3.3515 H   0  0  0  0  0  0  0  0  0  0  0  0
    6.3232   -1.6641    1.6120 H   0  0  0  0  0  0  0  0  0  0  0  0
    5.8992   -2.0195    3.1204 H   0  0  0  0  0  0  0  0  0  0  0  0
    6.0349   -4.1797    1.0105 H   0  0  0  0  0  0  0  0  0  0  0  0
    4.4706   -5.7716   -0.3340 H   0  0  0  0  0  0  0  0  0  0  0  0
    4.2376   -5.7235    1.3164 H   0  0  0  0  0  0  0  0  0  0  0  0
    2.2472   -5.3068   -0.2951 H   0  0  0  0  0  0  0  0  0  0  0  0
    1.5580   -3.0272   -0.2076 H   0  0  0  0  0  0  0  0  0  0  0  0
    2.3985   -4.1351   -2.1627 H   0  0  0  0  0  0  0  0  0  0  0  0
    2.7391   -2.4885   -2.2701 H   0  0  0  0  0  0  0  0  0  0  0  0
    4.6475   -4.7968   -2.0005 H   0  0  0  0  0  0  0  0  0  0  0  0
    4.5319   -3.9318   -4.0981 H   0  0  0  0  0  0  0  0  0  0  0  0
    6.0901   -3.4546   -3.4524 H   0  0  0  0  0  0  0  0  0  0  0  0
    4.7771   -2.2804   -3.5949 H   0  0  0  0  0  0  0  0  0  0  0  0
    6.2582   -1.3467   -0.3243 H   0  0  0  0  0  0  0  0  0  0  0  0
    5.5711   -1.3570   -1.8469 H   0  0  0  0  0  0  0  0  0  0  0  0
    4.2228   -0.1426    0.0015 H   0  0  0  0  0  0  0  0  0  0  0  0
    3.3844   -0.9472   -1.1391 H   0  0  0  0  0  0  0  0  0  0  0  0
    2.9608   -1.3380    2.7695 H   0  0  0  0  0  0  0  0  0  0  0  0
    6.3129   -3.5373   -1.0287 H   0  0  0  0  0  0  0  0  0  0  0  0
    3.2420   -0.5992    3.3924 H   0  0  0  0  0  0  0  0  0  0  0  0
  1  2  1  0
  1 28  1  0
  1 29  1  0
  1 30  1  0
  2  3  1  0
  3  4  2  0
  3  5  1  0
  5 15  1  0
  5  6  1  6
  5  7  1  0
  6 31  1  0
  7 27  1  0
  7  8  1  0
  7 32  1  6
  8  9  1  0
  8 33  1  0
  8 34  1  0
  9 10  1  0
  9 35  1  0
  9 36  1  0
 10 11  1  0
 10 37  1  0
 10 38  1  0
 11 12  1  0
 11 39  1  0
 11 40  1  0
 12 27  1  0
 12 13  1  0
 12 62  1  1
 13 14  1  0
 13 41  1  0
 13 42  1  0
 15 14  1  1
 14 43  1  0
 14 44  1  0
 15 26  1  0
 15 16  1  0
 16 23  1  0
 16 17  1  0
 16 45  1  1
 17 18  1  0
 17 46  1  0
 17 47  1  0
 18 19  1  0
 18 48  1  0
 19 26  1  0
 19 20  1  0
 19 49  1  6
 20 21  1  0
 20 50  1  0
 20 51  1  0
 21 22  1  0
 21 23  1  0
 21 52  1  6
 22 53  1  0
 22 54  1  0
 22 55  1  0
 23 24  1  0
 23 61  1  6
 24 25  1  0
 24 56  1  0
 24 57  1  0
 26 25  1  6
 25 58  1  0
 25 59  1  0
 26 27  1  0
 27 60  1  6
M  CHG  2  12   1  23   1
M  END
>  <i_m_ct_stereo_status>  (174) 
1

>  <s_m_source_file>  (174) 
/var/tmp/pbs.5076255.sched01/tmpjtt61wjg/4457_394l_.sdf

>  <i_m_source_file_index>  (174) 
39

>  <i_lp_mmshare_version>  (174) 
48012

>  <i_f3d_flags>  (174) 
0

>  <s_epik_input>  (174) 
W0NIMl0xW0NIMl1OMltDSDJdW0NIMl1bQ0gyXVtDSDJdW0NIXShbQ0BdMyhbT0hdKUMoPU8pT1tDSDNdKVtDQEhdMltDQEBdNChbQ0BAXTEzNSlbQ0BASF02W05IXVtDSDJdW0NASF01TihbQ0BASF0oW0NIMl02KVtDSDNdKVtDSDJdW0NIMl00

>  <s_epik_cmdline>  (174) 
J2VwaWtfcHl0aG9uJywgJy1waHQnLCAnMi4wJywgJy1waCcsICc3LjAnLCAnLXRuJywgJzgnLCAnLW1hJywgJzIwMCcsICctaW1hZScsICc8aW5maWxlLm1hZT4nLCAnLW9tYWUnLCAnPG91dGZpbGUubWFlPic=

>  <r_epik_Ionization_Penalty>  (174) 
0.125799

>  <r_epik_Ionization_Penalty_Charging>  (174) 
0.125505

>  <r_epik_Ionization_Penalty_Neutral>  (174) 
0.000293647

>  <r_epik_State_Penalty>  (174) 
0.191382

>  <r_epik_Charging_Adjusted_Penalty>  (174) 
0.316887

>  <i_epik_Tot_Q>  (174) 
2

>  <i_epik_Tot_abs_Q>  (174) 
2

>  <s_epik_Chemistry_Notes>  (174) 
This compound has an ester and may undergo hydrolysis at high or low pH.

>  <s_lp_Force_Field>  (174) 
OPLS3e

>  <r_lp_Energy>  (174) 
239.073

>  <b_lp_Chiralities_Consistent>  (174) 
1

>  <s_lp_Variant>  (174) 
61:0-1

>  <s_i_glide_gridfile>  (174) 
pfpi4k_grid

>  <i_i_glide_lignum>  (174) 
39

>  <i_i_glide_rotatable_bonds>  (174) 
3

>  <r_i_docking_score>  (174) 
-3.77408

>  <r_i_glide_ligand_efficiency>  (174) 
-0.139781

>  <r_i_glide_ligand_efficiency_sa>  (174) 
-0.419342

>  <r_i_glide_ligand_efficiency_ln>  (174) 
-0.878543

>  <r_i_glide_gscore>  (174) 
-3.77408

>  <r_i_glide_lipo>  (174) 
-0.704784

>  <r_i_glide_hbond>  (174) 
0

>  <r_i_glide_metal>  (174) 
-0

>  <r_i_glide_rewards>  (174) 
-1.33508

>  <r_i_glide_evdw>  (174) 
-24.0659

>  <r_i_glide_ecoul>  (174) 
-4.44545

>  <r_i_glide_erotb>  (174) 
0.135904

>  <r_i_glide_esite>  (174) 
0

>  <r_i_glide_emodel>  (174) 
-39.3566

>  <r_i_glide_energy>  (174) 
-28.5113

>  <r_i_glide_einternal>  (174) 
1.6393

>  <r_i_glide_intrahb_reward>  (174) 
-0.5

>  <i_i_glide_confnum>  (174) 
2

>  <i_i_glide_posenum>  (174) 
22

>  <r_i_glide_eff_state_penalty>  (174) 
0

>  <ligand_id>  (174) 
61

>  <original_smiles>  (174) 
COC(=O)C1(O)C2CCCCN3CCC14C1CNC5CC(C)N1CCC54C23

>  <smiles>  (174) 
[H]OC1(C(=O)OC([H])([H])[H])C2([H])C([H])([H])C([H])([H])C([H])([H])C([H])([H])[N+]3([H])C([H])([H])C([H])([H])C14C1(C([H])([H])C([H])([H])[N+]5([H])C([H])(C([H])([H])[H])C([H])([H])C1([H])N([H])C([H])([H])C45[H])C23[H]

$$$$
61:0:2
     RDKit          3D

 62 67  0  0  1  0  0  0  0  0999 V2000
    4.0802   -7.6206    5.9409 C   0  0  0  0  0  0  0  0  0  0  0  0
    4.3350   -7.1606    4.6294 O   0  0  0  0  0  0  0  0  0  0  0  0
    5.4306   -6.4315    4.3574 C   0  0  0  0  0  0  0  0  0  0  0  0
    6.2171   -6.0359    5.2188 O   0  0  0  0  0  0  0  0  0  0  0  0
    5.5808   -6.0457    2.8444 C   0  0  1  0  0  0  0  0  0  0  0  0
    6.9850   -5.9478    2.6826 O   0  0  0  0  0  0  0  0  0  0  0  0
    5.1574   -7.2217    1.8243 C   0  0  1  0  0  0  0  0  0  0  0  0
    5.1976   -8.7592    2.1842 C   0  0  0  0  0  0  0  0  0  0  0  0
    3.8710   -9.4983    2.6018 C   0  0  0  0  0  0  0  0  0  0  0  0
    2.6221   -9.3311    1.6800 C   0  0  0  0  0  0  0  0  0  0  0  0
    1.7442   -8.0750    1.9536 C   0  0  0  0  0  0  0  0  0  0  0  0
    2.6230   -6.9196    2.2199 N   0  0  2  0  0  0  0  0  0  0  0  0
    2.1668   -5.7438    3.0570 C   0  0  0  0  0  0  0  0  0  0  0  0
    3.3237   -4.6903    3.2904 C   0  0  0  0  0  0  0  0  0  0  0  0
    4.5834   -4.7965    2.3115 C   0  0  1  0  0  0  0  0  0  0  0  0
    5.1472   -3.3599    1.8739 C   0  0  1  0  0  0  0  0  0  0  0  0
    6.5589   -3.5599    1.2691 C   0  0  0  0  0  0  0  0  0  0  0  0
    6.5421   -4.6923    0.3292 N   0  0  0  0  0  0  0  0  0  0  0  0
    5.2071   -5.0099   -0.2136 C   0  0  2  0  0  0  0  0  0  0  0  0
    4.9756   -3.8228   -1.2056 C   0  0  0  0  0  0  0  0  0  0  0  0
    4.8005   -2.4363   -0.5269 C   0  0  1  0  0  0  0  0  0  0  0  0
    4.0306   -1.4418   -1.4235 C   0  0  0  0  0  0  0  0  0  0  0  0
    4.2580   -2.5773    0.8717 N   0  0  1  0  0  0  0  0  0  0  0  0
    2.8472   -3.0399    0.7786 C   0  0  0  0  0  0  0  0  0  0  0  0
    2.7897   -4.5373    0.4235 C   0  0  0  0  0  0  0  0  0  0  0  0
    4.0731   -5.2842    0.9240 C   0  0  2  0  0  0  0  0  0  0  0  0
    3.7924   -6.7724    1.2887 C   0  0  2  0  0  0  0  0  0  0  0  0
    3.1833   -8.2398    5.9236 H   0  0  0  0  0  0  0  0  0  0  0  0
    3.9120   -6.7863    6.6218 H   0  0  0  0  0  0  0  0  0  0  0  0
    4.9074   -8.2297    6.3061 H   0  0  0  0  0  0  0  0  0  0  0  0
    7.1560   -5.7282    1.7737 H   0  0  0  0  0  0  0  0  0  0  0  0
    5.8521   -7.1746    0.9869 H   0  0  0  0  0  0  0  0  0  0  0  0
    5.5562   -9.2826    1.2957 H   0  0  0  0  0  0  0  0  0  0  0  0
    5.9663   -8.9408    2.9343 H   0  0  0  0  0  0  0  0  0  0  0  0
    4.1096  -10.5645    2.6239 H   0  0  0  0  0  0  0  0  0  0  0  0
    3.5928   -9.2736    3.6307 H   0  0  0  0  0  0  0  0  0  0  0  0
    2.9421   -9.3666    0.6350 H   0  0  0  0  0  0  0  0  0  0  0  0
    1.9840  -10.2050    1.8084 H   0  0  0  0  0  0  0  0  0  0  0  0
    1.0770   -7.8780    1.1142 H   0  0  0  0  0  0  0  0  0  0  0  0
    1.1149   -8.2565    2.8285 H   0  0  0  0  0  0  0  0  0  0  0  0
    1.2689   -5.2667    2.6642 H   0  0  0  0  0  0  0  0  0  0  0  0
    1.8471   -6.1248    4.0304 H   0  0  0  0  0  0  0  0  0  0  0  0
    2.8989   -3.6952    3.3224 H   0  0  0  0  0  0  0  0  0  0  0  0
    3.6258   -4.7201    4.3344 H   0  0  0  0  0  0  0  0  0  0  0  0
    5.2472   -2.7384    2.7633 H   0  0  0  0  0  0  0  0  0  0  0  0
    6.9900   -2.6611    0.8346 H   0  0  0  0  0  0  0  0  0  0  0  0
    7.2736   -3.7595    2.0583 H   0  0  0  0  0  0  0  0  0  0  0  0
    7.2342   -4.5702   -0.3974 H   0  0  0  0  0  0  0  0  0  0  0  0
    5.2910   -5.9130   -0.8135 H   0  0  0  0  0  0  0  0  0  0  0  0
    5.8169   -3.7576   -1.9001 H   0  0  0  0  0  0  0  0  0  0  0  0
    4.1384   -4.0293   -1.8723 H   0  0  0  0  0  0  0  0  0  0  0  0
    5.7646   -1.9379   -0.4869 H   0  0  0  0  0  0  0  0  0  0  0  0
    4.6237   -1.1758   -2.3013 H   0  0  0  0  0  0  0  0  0  0  0  0
    3.8263   -0.5178   -0.8855 H   0  0  0  0  0  0  0  0  0  0  0  0
    3.0833   -1.8288   -1.8023 H   0  0  0  0  0  0  0  0  0  0  0  0
    2.3052   -2.7927    1.6824 H   0  0  0  0  0  0  0  0  0  0  0  0
    2.2709   -2.4837    0.0463 H   0  0  0  0  0  0  0  0  0  0  0  0
    1.8389   -4.9421    0.7461 H   0  0  0  0  0  0  0  0  0  0  0  0
    2.6581   -4.6776   -0.6449 H   0  0  0  0  0  0  0  0  0  0  0  0
    3.7850   -7.0146    2.3227 H   0  0  0  0  0  0  0  0  0  0  0  0
    4.2190   -1.6313    1.2190 H   0  0  0  0  0  0  0  0  0  0  0  0
    3.1163   -7.3751    2.9791 H   0  0  0  0  0  0  0  0  0  0  0  0
  1  2  1  0
  1 28  1  0
  1 29  1  0
  1 30  1  0
  2  3  1  0
  3  4  2  0
  3  5  1  0
  5 15  1  0
  5  6  1  1
  5  7  1  0
  6 31  1  0
  7 27  1  0
  7  8  1  0
  7 32  1  6
  8  9  1  0
  8 33  1  0
  8 34  1  0
  9 10  1  0
  9 35  1  0
  9 36  1  0
 10 11  1  0
 10 37  1  0
 10 38  1  0
 11 12  1  0
 11 39  1  0
 11 40  1  0
 12 27  1  0
 12 13  1  0
 12 62  1  1
 13 14  1  0
 13 41  1  0
 13 42  1  0
 15 14  1  1
 14 43  1  0
 14 44  1  0
 15 26  1  0
 15 16  1  0
 16 23  1  0
 16 17  1  0
 16 45  1  1
 17 18  1  0
 17 46  1  0
 17 47  1  0
 18 19  1  0
 18 48  1  0
 19 26  1  0
 19 20  1  0
 19 49  1  6
 20 21  1  0
 20 50  1  0
 20 51  1  0
 21 22  1  0
 21 23  1  0
 21 52  1  1
 22 53  1  0
 22 54  1  0
 22 55  1  0
 23 24  1  0
 23 61  1  1
 24 25  1  0
 24 56  1  0
 24 57  1  0
 26 25  1  6
 25 58  1  0
 25 59  1  0
 26 27  1  0
 27 60  1  6
M  CHG  2  12   1  23   1
M  END
>  <i_m_ct_stereo_status>  (175) 
1

>  <s_m_source_file>  (175) 
/var/tmp/pbs.5076255.sched01/tmpjtt61wjg/4457_394l_.sdf

>  <i_m_source_file_index>  (175) 
39

>  <i_lp_mmshare_version>  (175) 
48012

>  <i_f3d_flags>  (175) 
0

>  <s_epik_input>  (175) 
W0NIMl0xW0NIMl1OMltDSDJdW0NIMl1bQ0gyXVtDSDJdW0NIXShbQ0BdMyhbT0hdKUMoPU8pT1tDSDNdKVtDQEhdMltDQEBdNChbQ0BAXTEzNSlbQ0BASF02W05IXVtDSDJdW0NASF01TihbQ0BASF0oW0NIMl02KVtDSDNdKVtDSDJdW0NIMl00

>  <s_epik_cmdline>  (175) 
J2VwaWtfcHl0aG9uJywgJy1waHQnLCAnMi4wJywgJy1waCcsICc3LjAnLCAnLXRuJywgJzgnLCAnLW1hJywgJzIwMCcsICctaW1hZScsICc8aW5maWxlLm1hZT4nLCAnLW9tYWUnLCAnPG91dGZpbGUubWFlPic=

>  <r_epik_Ionization_Penalty>  (175) 
0.125799

>  <r_epik_Ionization_Penalty_Charging>  (175) 
0.125505

>  <r_epik_Ionization_Penalty_Neutral>  (175) 
0.000293647

>  <r_epik_State_Penalty>  (175) 
0.191382

>  <r_epik_Charging_Adjusted_Penalty>  (175) 
0.316887

>  <i_epik_Tot_Q>  (175) 
2

>  <i_epik_Tot_abs_Q>  (175) 
2

>  <s_epik_Chemistry_Notes>  (175) 
This compound has an ester and may undergo hydrolysis at high or low pH.

>  <s_lp_Force_Field>  (175) 
OPLS3e

>  <r_lp_Energy>  (175) 
239.073

>  <b_lp_Chiralities_Consistent>  (175) 
1

>  <s_lp_Variant>  (175) 
61:0-1

>  <s_i_glide_gridfile>  (175) 
pfpi4k_grid

>  <i_i_glide_lignum>  (175) 
39

>  <i_i_glide_rotatable_bonds>  (175) 
3

>  <r_i_docking_score>  (175) 
-3.3544

>  <r_i_glide_ligand_efficiency>  (175) 
-0.124237

>  <r_i_glide_ligand_efficiency_sa>  (175) 
-0.372711

>  <r_i_glide_ligand_efficiency_ln>  (175) 
-0.780849

>  <r_i_glide_gscore>  (175) 
-3.3544

>  <r_i_glide_lipo>  (175) 
-0.30684

>  <r_i_glide_hbond>  (175) 
0

>  <r_i_glide_metal>  (175) 
-0

>  <r_i_glide_rewards>  (175) 
-1.33508

>  <r_i_glide_evdw>  (175) 
-23.4728

>  <r_i_glide_ecoul>  (175) 
-4.46124

>  <r_i_glide_erotb>  (175) 
0.135904

>  <r_i_glide_esite>  (175) 
-0.00555537

>  <r_i_glide_emodel>  (175) 
-38.1431

>  <r_i_glide_energy>  (175) 
-27.934

>  <r_i_glide_einternal>  (175) 
1.28449

>  <r_i_glide_intrahb_reward>  (175) 
-0.5

>  <i_i_glide_confnum>  (175) 
1

>  <i_i_glide_posenum>  (175) 
28

>  <r_i_glide_eff_state_penalty>  (175) 
0

>  <ligand_id>  (175) 
61

>  <original_smiles>  (175) 
COC(=O)C1(O)C2CCCCN3CCC14C1CNC5CC(C)N1CCC54C23

>  <smiles>  (175) 
[H]OC1(C(=O)OC([H])([H])[H])C2([H])C([H])([H])C([H])([H])C([H])([H])C([H])([H])[N+]3([H])C([H])([H])C([H])([H])C14C1(C([H])([H])C([H])([H])[N+]5([H])C([H])(C([H])([H])[H])C([H])([H])C1([H])N([H])C([H])([H])C45[H])C23[H]

$$$$
61:2:0
     RDKit          3D

 62 67  0  0  1  0  0  0  0  0999 V2000
    6.5103   -5.4800    4.3875 C   0  0  0  0  0  0  0  0  0  0  0  0
    5.9494   -4.7689    3.3036 O   0  0  0  0  0  0  0  0  0  0  0  0
    6.3634   -5.0162    2.0540 C   0  0  0  0  0  0  0  0  0  0  0  0
    7.4486   -5.5011    1.7564 O   0  0  0  0  0  0  0  0  0  0  0  0
    5.3094   -4.6253    0.9701 C   0  0  1  0  0  0  0  0  0  0  0  0
    5.4254   -5.7332    0.0835 O   0  0  0  0  0  0  0  0  0  0  0  0
    3.8066   -4.7928    1.4349 C   0  0  1  0  0  0  0  0  0  0  0  0
    3.3720   -5.7927    2.5535 C   0  0  0  0  0  0  0  0  0  0  0  0
    2.2821   -5.2886    3.5199 C   0  0  0  0  0  0  0  0  0  0  0  0
    2.7475   -4.2381    4.5565 C   0  0  0  0  0  0  0  0  0  0  0  0
    3.0638   -2.8223    4.0245 C   0  0  0  0  0  0  0  0  0  0  0  0
    3.9788   -2.9126    2.8754 N   0  0  2  0  0  0  0  0  0  0  0  0
    5.1340   -1.9632    2.8059 C   0  0  0  0  0  0  0  0  0  0  0  0
    6.0305   -2.1834    1.5482 C   0  0  0  0  0  0  0  0  0  0  0  0
    5.3407   -3.0450    0.4307 C   0  0  1  0  0  0  0  0  0  0  0  0
    5.8647   -2.5714   -1.0154 C   0  0  1  0  0  0  0  0  0  0  0  0
    5.5015   -3.6672   -2.0004 C   0  0  0  0  0  0  0  0  0  0  0  0
    4.1356   -4.1418   -1.7233 N   0  0  0  0  0  0  0  0  0  0  0  0
    3.2409   -3.1707   -1.0866 C   0  0  2  0  0  0  0  0  0  0  0  0
    3.0164   -2.1626   -2.2322 C   0  0  0  0  0  0  0  0  0  0  0  0
    4.2669   -1.3990   -2.6998 C   0  0  1  0  0  0  0  0  0  0  0  0
    3.7988   -0.0655   -3.3552 C   0  0  0  0  0  0  0  0  0  0  0  0
    5.2622   -1.2910   -1.5711 N   0  0  0  0  0  0  0  0  0  0  0  0
    4.6643   -0.4758   -0.5066 C   0  0  0  0  0  0  0  0  0  0  0  0
    3.5996   -1.1476    0.3589 C   0  0  0  0  0  0  0  0  0  0  0  0
    3.8347   -2.6649    0.3272 C   0  0  2  0  0  0  0  0  0  0  0  0
    3.3193   -3.3618    1.6072 C   0  0  1  0  0  0  0  0  0  0  0  0
    6.0709   -5.0603    5.2914 H   0  0  0  0  0  0  0  0  0  0  0  0
    7.5991   -5.4104    4.4427 H   0  0  0  0  0  0  0  0  0  0  0  0
    6.2066   -6.5230    4.3074 H   0  0  0  0  0  0  0  0  0  0  0  0
    5.4370   -5.4793   -0.8231 H   0  0  0  0  0  0  0  0  0  0  0  0
    3.2453   -5.1647    0.5837 H   0  0  0  0  0  0  0  0  0  0  0  0
    3.0072   -6.6869    2.0587 H   0  0  0  0  0  0  0  0  0  0  0  0
    4.1787   -6.2102    3.1376 H   0  0  0  0  0  0  0  0  0  0  0  0
    1.4035   -4.9450    2.9772 H   0  0  0  0  0  0  0  0  0  0  0  0
    1.9518   -6.1547    4.0881 H   0  0  0  0  0  0  0  0  0  0  0  0
    1.9638   -4.1176    5.3008 H   0  0  0  0  0  0  0  0  0  0  0  0
    3.6078   -4.6251    5.1056 H   0  0  0  0  0  0  0  0  0  0  0  0
    2.1600   -2.2728    3.7570 H   0  0  0  0  0  0  0  0  0  0  0  0
    3.5404   -2.2511    4.8206 H   0  0  0  0  0  0  0  0  0  0  0  0
    4.8251   -0.9229    2.9179 H   0  0  0  0  0  0  0  0  0  0  0  0
    5.7558   -2.1333    3.6794 H   0  0  0  0  0  0  0  0  0  0  0  0
    6.3723   -1.2143    1.2153 H   0  0  0  0  0  0  0  0  0  0  0  0
    7.0067   -2.6064    1.7941 H   0  0  0  0  0  0  0  0  0  0  0  0
    6.9527   -2.4673   -1.0182 H   0  0  0  0  0  0  0  0  0  0  0  0
    5.6981   -3.4864   -3.0621 H   0  0  0  0  0  0  0  0  0  0  0  0
    6.1750   -4.4525   -1.7853 H   0  0  0  0  0  0  0  0  0  0  0  0
    3.7084   -4.4466   -2.6000 H   0  0  0  0  0  0  0  0  0  0  0  0
    2.2946   -3.6771   -0.9045 H   0  0  0  0  0  0  0  0  0  0  0  0
    2.5785   -2.6688   -3.0943 H   0  0  0  0  0  0  0  0  0  0  0  0
    2.2189   -1.4357   -1.9170 H   0  0  0  0  0  0  0  0  0  0  0  0
    4.7382   -1.9165   -3.5542 H   0  0  0  0  0  0  0  0  0  0  0  0
    3.3825   -0.2702   -4.3548 H   0  0  0  0  0  0  0  0  0  0  0  0
    4.6070    0.6609   -3.4592 H   0  0  0  0  0  0  0  0  0  0  0  0
    3.0710    0.5264   -2.7794 H   0  0  0  0  0  0  0  0  0  0  0  0
    5.4393   -0.0095    0.0835 H   0  0  0  0  0  0  0  0  0  0  0  0
    4.2289    0.3900   -0.9294 H   0  0  0  0  0  0  0  0  0  0  0  0
    3.6008   -0.6784    1.3334 H   0  0  0  0  0  0  0  0  0  0  0  0
    2.6327   -0.8821    0.0276 H   0  0  0  0  0  0  0  0  0  0  0  0
    2.2309   -3.2781    1.6356 H   0  0  0  0  0  0  0  0  0  0  0  0
    4.4945   -3.7515    3.1254 H   0  0  0  0  0  0  0  0  0  0  0  0
    4.1094   -4.9596   -1.1207 H   0  0  0  0  0  0  0  0  0  0  0  0
  1  2  1  0
  1 28  1  0
  1 29  1  0
  1 30  1  0
  2  3  1  0
  3  4  2  0
  3  5  1  0
  5 15  1  0
  5  6  1  6
  5  7  1  0
  6 31  1  0
  7 27  1  0
  7  8  1  0
  7 32  1  6
  8  9  1  0
  8 33  1  0
  8 34  1  0
  9 10  1  0
  9 35  1  0
  9 36  1  0
 10 11  1  0
 10 37  1  0
 10 38  1  0
 11 12  1  0
 11 39  1  0
 11 40  1  0
 12 27  1  0
 12 13  1  0
 12 61  1  1
 13 14  1  0
 13 41  1  0
 13 42  1  0
 15 14  1  1
 14 43  1  0
 14 44  1  0
 15 26  1  0
 15 16  1  0
 16 23  1  0
 16 17  1  0
 16 45  1  1
 17 18  1  0
 17 46  1  0
 17 47  1  0
 18 19  1  0
 18 48  1  0
 18 62  1  0
 19 26  1  0
 19 20  1  0
 19 49  1  1
 20 21  1  0
 20 50  1  0
 20 51  1  0
 21 22  1  0
 21 23  1  0
 21 52  1  6
 22 53  1  0
 22 54  1  0
 22 55  1  0
 23 24  1  0
 24 25  1  0
 24 56  1  0
 24 57  1  0
 26 25  1  1
 25 58  1  0
 25 59  1  0
 26 27  1  0
 27 60  1  1
M  CHG  2  12   1  18   1
M  END
>  <i_m_ct_stereo_status>  (176) 
1

>  <s_m_source_file>  (176) 
/var/tmp/pbs.5076255.sched01/tmpjtt61wjg/4457_394l_.sdf

>  <i_m_source_file_index>  (176) 
41

>  <i_lp_mmshare_version>  (176) 
48012

>  <i_f3d_flags>  (176) 
0

>  <s_epik_input>  (176) 
W0NIMl0xW0NIMl1OMltDSDJdW0NIMl1bQ0gyXVtDSDJdW0NIXShbQ0BdMyhbT0hdKUMoPU8pT1tDSDNdKVtDQEhdMltDQEBdNChbQ0BAXTEzNSlbQ0BASF02W05IXVtDSDJdW0NASF01TihbQ0BASF0oW0NIMl02KVtDSDNdKVtDSDJdW0NIMl00

>  <s_epik_cmdline>  (176) 
J2VwaWtfcHl0aG9uJywgJy1waHQnLCAnMi4wJywgJy1waCcsICc3LjAnLCAnLXRuJywgJzgnLCAnLW1hJywgJzIwMCcsICctaW1hZScsICc8aW5maWxlLm1hZT4nLCAnLW9tYWUnLCAnPG91dGZpbGUubWFlPic=

>  <r_epik_Ionization_Penalty>  (176) 
0.342816

>  <r_epik_Ionization_Penalty_Charging>  (176) 
0.342682

>  <r_epik_Ionization_Penalty_Neutral>  (176) 
0.000134007

>  <r_epik_State_Penalty>  (176) 
1.18104

>  <r_epik_Charging_Adjusted_Penalty>  (176) 
1.52372

>  <i_epik_Tot_Q>  (176) 
2

>  <i_epik_Tot_abs_Q>  (176) 
2

>  <s_epik_Chemistry_Notes>  (176) 
This compound has an ester and may undergo hydrolysis at high or low pH.

>  <s_lp_Force_Field>  (176) 
OPLS3e

>  <r_lp_Energy>  (176) 
164.456

>  <b_lp_Chiralities_Consistent>  (176) 
1

>  <s_lp_Variant>  (176) 
61:0-3

>  <s_i_glide_gridfile>  (176) 
pfpi4k_grid

>  <i_i_glide_lignum>  (176) 
41

>  <i_i_glide_rotatable_bonds>  (176) 
3

>  <r_i_docking_score>  (176) 
-3.60694

>  <r_i_glide_ligand_efficiency>  (176) 
-0.13359

>  <r_i_glide_ligand_efficiency_sa>  (176) 
-0.400771

>  <r_i_glide_ligand_efficiency_ln>  (176) 
-0.839635

>  <r_i_glide_gscore>  (176) 
-3.60694

>  <r_i_glide_lipo>  (176) 
-0.533268

>  <r_i_glide_hbond>  (176) 
0

>  <r_i_glide_metal>  (176) 
-0

>  <r_i_glide_rewards>  (176) 
-1.39896

>  <r_i_glide_evdw>  (176) 
-6.01283

>  <r_i_glide_ecoul>  (176) 
-9.68677

>  <r_i_glide_erotb>  (176) 
0.135904

>  <r_i_glide_esite>  (176) 
-0.0569552

>  <r_i_glide_emodel>  (176) 
-18.2419

>  <r_i_glide_energy>  (176) 
-15.6996

>  <r_i_glide_einternal>  (176) 
5.47924

>  <r_i_glide_intrahb_reward>  (176) 
-0.5

>  <i_i_glide_confnum>  (176) 
2

>  <i_i_glide_posenum>  (176) 
19

>  <r_i_glide_eff_state_penalty>  (176) 
0

>  <ligand_id>  (176) 
61

>  <original_smiles>  (176) 
COC(=O)C1(O)C2CCCCN3CCC14C1CNC5CC(C)N1CCC54C23

>  <smiles>  (176) 
[H]OC1(C(=O)OC([H])([H])[H])C2([H])C([H])([H])C([H])([H])C([H])([H])C([H])([H])[N+]3([H])C([H])([H])C([H])([H])C14C1([H])N5C([H])([H])C([H])([H])C4(C([H])(C([H])([H])C5([H])C([H])([H])[H])[N+]([H])([H])C1([H])[H])C23[H]

$$$$
61:3:0
     RDKit          3D

 61 66  0  0  1  0  0  0  0  0999 V2000
    8.6157   -4.4035    0.8495 C   0  0  0  0  0  0  0  0  0  0  0  0
    7.5442   -3.4928    0.9538 O   0  0  0  0  0  0  0  0  0  0  0  0
    7.0616   -2.8769   -0.1290 C   0  0  0  0  0  0  0  0  0  0  0  0
    7.5488   -2.9213   -1.2595 O   0  0  0  0  0  0  0  0  0  0  0  0
    5.8025   -2.0378    0.1852 C   0  0  1  0  0  0  0  0  0  0  0  0
    6.3043   -0.7197    0.2499 O   0  0  0  0  0  0  0  0  0  0  0  0
    4.7983   -1.8987   -0.9749 C   0  0  2  0  0  0  0  0  0  0  0  0
    4.8006   -0.9064   -2.1451 C   0  0  0  0  0  0  0  0  0  0  0  0
    3.6050   -1.1288   -3.1349 C   0  0  0  0  0  0  0  0  0  0  0  0
    3.0759   -2.5902   -3.3384 C   0  0  0  0  0  0  0  0  0  0  0  0
    2.2385   -3.2145   -2.1807 C   0  0  0  0  0  0  0  0  0  0  0  0
    3.0255   -3.2473   -0.9371 N   0  0  0  0  0  0  0  0  0  0  0  0
    3.4616   -4.4869   -0.2400 C   0  0  0  0  0  0  0  0  0  0  0  0
    4.5575   -4.2324    0.8616 C   0  0  0  0  0  0  0  0  0  0  0  0
    4.8071   -2.7066    1.3157 C   0  0  1  0  0  0  0  0  0  0  0  0
    5.0948   -2.5283    2.8676 C   0  0  1  0  0  0  0  0  0  0  0  0
    5.7074   -1.1137    3.0414 C   0  0  0  0  0  0  0  0  0  0  0  0
    4.8919   -0.1056    2.3369 N   0  0  0  0  0  0  0  0  0  0  0  0
    3.5304   -0.5312    1.9995 C   0  0  2  0  0  0  0  0  0  0  0  0
    2.8233   -0.4540    3.3896 C   0  0  0  0  0  0  0  0  0  0  0  0
    3.3603   -1.4817    4.4293 C   0  0  1  0  0  0  0  0  0  0  0  0
    2.3471   -1.7266    5.5633 C   0  0  0  0  0  0  0  0  0  0  0  0
    3.9007   -2.7165    3.8091 N   0  0  0  0  0  0  0  0  0  0  0  0
    2.7905   -3.4465    3.1997 C   0  0  0  0  0  0  0  0  0  0  0  0
    2.3020   -2.7639    1.9042 C   0  0  0  0  0  0  0  0  0  0  0  0
    3.4691   -1.9577    1.2205 C   0  0  2  0  0  0  0  0  0  0  0  0
    3.4021   -1.9616   -0.3388 C   0  0  1  0  0  0  0  0  0  0  0  0
    8.8437   -4.8098    1.8349 H   0  0  0  0  0  0  0  0  0  0  0  0
    9.5068   -3.9020    0.4752 H   0  0  0  0  0  0  0  0  0  0  0  0
    8.3683   -5.2356    0.1915 H   0  0  0  0  0  0  0  0  0  0  0  0
    6.9202   -0.6889    0.9682 H   0  0  0  0  0  0  0  0  0  0  0  0
    5.0715   -2.7889   -1.5546 H   0  0  0  0  0  0  0  0  0  0  0  0
    4.7686    0.1292   -1.8032 H   0  0  0  0  0  0  0  0  0  0  0  0
    5.7371   -1.0432   -2.6737 H   0  0  0  0  0  0  0  0  0  0  0  0
    2.7691   -0.4884   -2.8439 H   0  0  0  0  0  0  0  0  0  0  0  0
    3.9167   -0.7385   -4.1066 H   0  0  0  0  0  0  0  0  0  0  0  0
    2.4387   -2.5785   -4.2217 H   0  0  0  0  0  0  0  0  0  0  0  0
    3.9145   -3.2455   -3.5912 H   0  0  0  0  0  0  0  0  0  0  0  0
    1.3171   -2.6600   -2.0379 H   0  0  0  0  0  0  0  0  0  0  0  0
    1.9058   -4.2061   -2.4628 H   0  0  0  0  0  0  0  0  0  0  0  0
    2.6210   -5.0671    0.1523 H   0  0  0  0  0  0  0  0  0  0  0  0
    3.9395   -5.1096   -0.9923 H   0  0  0  0  0  0  0  0  0  0  0  0
    4.3960   -4.8907    1.7071 H   0  0  0  0  0  0  0  0  0  0  0  0
    5.4537   -4.7045    0.4710 H   0  0  0  0  0  0  0  0  0  0  0  0
    5.8470   -3.2680    3.1422 H   0  0  0  0  0  0  0  0  0  0  0  0
    5.8621   -0.8510    4.0826 H   0  0  0  0  0  0  0  0  0  0  0  0
    6.7152   -1.0916    2.6408 H   0  0  0  0  0  0  0  0  0  0  0  0
    5.3463    0.0678    1.4377 H   0  0  0  0  0  0  0  0  0  0  0  0
    3.0729    0.2225    1.3569 H   0  0  0  0  0  0  0  0  0  0  0  0
    2.9854    0.5449    3.8071 H   0  0  0  0  0  0  0  0  0  0  0  0
    1.7403   -0.5025    3.2914 H   0  0  0  0  0  0  0  0  0  0  0  0
    4.1648   -1.0036    4.9813 H   0  0  0  0  0  0  0  0  0  0  0  0
    2.2422   -0.8390    6.1851 H   0  0  0  0  0  0  0  0  0  0  0  0
    2.6829   -2.5388    6.2090 H   0  0  0  0  0  0  0  0  0  0  0  0
    1.3545   -1.9782    5.1928 H   0  0  0  0  0  0  0  0  0  0  0  0
    3.0725   -4.4797    3.0422 H   0  0  0  0  0  0  0  0  0  0  0  0
    1.9547   -3.5541    3.8868 H   0  0  0  0  0  0  0  0  0  0  0  0
    1.8255   -3.5206    1.3010 H   0  0  0  0  0  0  0  0  0  0  0  0
    1.4396   -2.1269    2.0859 H   0  0  0  0  0  0  0  0  0  0  0  0
    2.7578   -1.1469   -0.6514 H   0  0  0  0  0  0  0  0  0  0  0  0
    3.8608   -3.2779   -1.4983 H   0  0  0  0  0  0  0  0  0  0  0  0
  1  2  1  0
  1 28  1  0
  1 29  1  0
  1 30  1  0
  2  3  1  0
  3  4  2  0
  3  5  1  0
  5 15  1  0
  5  6  1  1
  5  7  1  0
  6 31  1  0
  7 27  1  0
  7  8  1  0
  7 32  1  6
  8  9  1  0
  8 33  1  0
  8 34  1  0
  9 10  1  0
  9 35  1  0
  9 36  1  0
 10 11  1  0
 10 37  1  0
 10 38  1  0
 11 12  1  0
 11 39  1  0
 11 40  1  0
 12 27  1  0
 12 13  1  0
 12 61  1  0
 13 14  1  0
 13 41  1  0
 13 42  1  0
 15 14  1  6
 14 43  1  0
 14 44  1  0
 15 26  1  0
 15 16  1  0
 16 23  1  0
 16 17  1  0
 16 45  1  1
 17 18  1  0
 17 46  1  0
 17 47  1  0
 18 19  1  0
 18 48  1  0
 19 26  1  0
 19 20  1  0
 19 49  1  6
 20 21  1  0
 20 50  1  0
 20 51  1  0
 21 22  1  0
 21 23  1  0
 21 52  1  1
 22 53  1  0
 22 54  1  0
 22 55  1  0
 23 24  1  0
 24 25  1  0
 24 56  1  0
 24 57  1  0
 26 25  1  1
 25 58  1  0
 25 59  1  0
 26 27  1  0
 27 60  1  6
M  CHG  1  12   1
M  END
>  <i_m_ct_stereo_status>  (177) 
1

>  <s_m_source_file>  (177) 
/var/tmp/pbs.5076255.sched01/tmpjtt61wjg/4457_394l_.sdf

>  <i_m_source_file_index>  (177) 
42

>  <i_lp_mmshare_version>  (177) 
48012

>  <i_f3d_flags>  (177) 
0

>  <s_epik_input>  (177) 
W0NIMl0xW0NIMl1OMltDSDJdW0NIMl1bQ0gyXVtDSDJdW0NIXShbQ0BdMyhbT0hdKUMoPU8pT1tDSDNdKVtDQEhdMltDQEBdNChbQ0BAXTEzNSlbQ0BASF02W05IXVtDSDJdW0NASF01TihbQ0BASF0oW0NIMl02KVtDSDNdKVtDSDJdW0NIMl00

>  <s_epik_cmdline>  (177) 
J2VwaWtfcHl0aG9uJywgJy1waHQnLCAnMi4wJywgJy1waCcsICc3LjAnLCAnLXRuJywgJzgnLCAnLW1hJywgJzIwMCcsICctaW1hZScsICc8aW5maWxlLm1hZT4nLCAnLW9tYWUnLCAnPG91dGZpbGUubWFlPic=

>  <r_epik_Ionization_Penalty>  (177) 
1.89765

>  <r_epik_Ionization_Penalty_Charging>  (177) 
0.00594137

>  <r_epik_Ionization_Penalty_Neutral>  (177) 
1.89171

>  <r_epik_State_Penalty>  (177) 
1.51138

>  <r_epik_Charging_Adjusted_Penalty>  (177) 
1.51732

>  <i_epik_Tot_Q>  (177) 
1

>  <i_epik_Tot_abs_Q>  (177) 
1

>  <s_epik_Chemistry_Notes>  (177) 
This compound has an ester and may undergo hydrolysis at high or low pH.

>  <s_lp_Force_Field>  (177) 
OPLS3e

>  <r_lp_Energy>  (177) 
186.857

>  <b_lp_Chiralities_Consistent>  (177) 
1

>  <s_lp_Variant>  (177) 
61:0-4

>  <s_i_glide_gridfile>  (177) 
pfpi4k_grid

>  <i_i_glide_lignum>  (177) 
42

>  <i_i_glide_rotatable_bonds>  (177) 
3

>  <r_i_docking_score>  (177) 
-3.52639

>  <r_i_glide_ligand_efficiency>  (177) 
-0.130607

>  <r_i_glide_ligand_efficiency_sa>  (177) 
-0.391821

>  <r_i_glide_ligand_efficiency_ln>  (177) 
-0.820885

>  <r_i_glide_gscore>  (177) 
-3.52639

>  <r_i_glide_lipo>  (177) 
-0.575275

>  <r_i_glide_hbond>  (177) 
-0.125904

>  <r_i_glide_metal>  (177) 
-0

>  <r_i_glide_rewards>  (177) 
-0.937048

>  <r_i_glide_evdw>  (177) 
-21.7895

>  <r_i_glide_ecoul>  (177) 
-6.23497

>  <r_i_glide_erotb>  (177) 
0.136556

>  <r_i_glide_esite>  (177) 
0

>  <r_i_glide_emodel>  (177) 
-32.3202

>  <r_i_glide_energy>  (177) 
-28.0244

>  <r_i_glide_einternal>  (177) 
3.17448

>  <r_i_glide_intrahb_reward>  (177) 
-0

>  <i_i_glide_confnum>  (177) 
3

>  <i_i_glide_posenum>  (177) 
21

>  <r_i_glide_eff_state_penalty>  (177) 
0

>  <ligand_id>  (177) 
61

>  <original_smiles>  (177) 
COC(=O)C1(O)C2CCCCN3CCC14C1CNC5CC(C)N1CCC54C23

>  <smiles>  (177) 
[H]OC1(C(=O)OC([H])([H])[H])C2([H])C([H])([H])C([H])([H])C([H])([H])C([H])([H])[N+]3([H])C([H])([H])C([H])([H])C14C1([H])N5C([H])([H])C([H])([H])C4(C([H])(N([H])C1([H])[H])C([H])([H])C5([H])C([H])([H])[H])C23[H]

$$$$
62:0:0
     RDKit          3D

 80 86  0  0  1  0  0  0  0  0999 V2000
   -0.7209   -5.0426    7.0577 C   0  0  0  0  0  0  0  0  0  0  0  0
   -0.1022   -5.4111    5.8348 O   0  0  0  0  0  0  0  0  0  0  0  0
    0.8143   -6.5043    5.8930 C   0  0  2  0  0  0  0  0  0  0  0  0
    2.0603   -6.3938    6.8008 C   0  0  1  0  0  0  0  0  0  0  0  0
    1.8362   -7.1505    8.1953 C   0  0  1  0  0  0  0  0  0  0  0  0
    1.6923   -6.2261    9.2535 O   0  0  0  0  0  0  0  0  0  0  0  0
    0.6742   -8.1552    8.4059 C   0  0  0  0  0  0  0  0  0  0  0  0
    0.8497   -9.5220    7.7164 C   0  0  0  0  0  0  0  0  0  0  0  0
    0.3326   -9.6506    6.2796 C   0  0  0  0  0  0  0  0  0  0  0  0
    1.3438   -9.5262    5.1893 N   0  0  2  0  0  0  0  0  0  0  0  0
    2.2924  -10.6775    5.1046 C   0  0  0  0  0  0  0  0  0  0  0  0
    3.4477  -10.0862    4.2818 C   0  0  2  0  0  0  0  0  0  0  0  0
    4.3802   -9.1915    5.1712 C   0  0  1  0  0  0  0  0  0  0  0  0
    5.4833   -8.7180    4.4054 O   0  0  0  0  0  0  0  0  0  0  0  0
    6.6573   -8.4491    5.1511 C   0  0  0  0  0  0  0  0  0  0  0  0
    3.3640   -8.1347    5.6940 C   0  0  1  0  0  0  0  0  0  0  0  0
    3.5545   -6.6200    6.0911 C   0  0  1  0  0  0  0  0  0  0  0  0
    4.3939   -5.9810    4.8327 C   0  0  0  0  0  0  0  0  0  0  0  0
    4.1900   -6.1652    3.3160 C   0  0  0  0  0  0  0  0  0  0  0  0
    2.8101   -5.8075    2.7703 C   0  0  0  0  0  0  0  0  0  0  0  0
    2.8659   -4.9288    1.6735 C   0  0  0  0  0  0  0  0  0  0  0  0
    2.4326   -3.6107    1.9663 C   0  0  0  0  0  0  0  0  0  0  0  0
    2.0676   -3.1839    3.2712 C   0  0  0  0  0  0  0  0  0  0  0  0
    1.9444   -4.2151    4.2218 C   0  0  0  0  0  0  0  0  0  0  0  0
    1.9387   -5.6020    3.8337 C   0  0  0  0  0  0  0  0  0  0  0  0
    1.3172   -6.8867    4.5271 C   0  0  1  0  0  0  0  0  0  0  0  0
    2.1288   -8.2914    4.7106 C   0  0  2  0  0  0  0  0  0  0  0  0
    2.6081   -9.0993    3.4493 C   0  0  1  0  0  0  0  0  0  0  0  0
    3.2591   -8.5404    2.3332 O   0  0  0  0  0  0  0  0  0  0  0  0
    3.6144   -9.4494    1.2988 C   0  0  0  0  0  0  0  0  0  0  0  0
    1.9920   -3.7156    5.5779 N   0  0  0  0  0  0  0  0  0  0  0  0
    3.3389   -3.3844    6.1435 C   0  0  0  0  0  0  0  0  0  0  0  0
    4.0399   -4.3005    7.2858 C   0  0  1  0  0  0  0  0  0  0  0  0
    3.3861   -4.0330    8.5155 O   0  0  0  0  0  0  0  0  0  0  0  0
    4.4351   -5.8643    7.1537 C   0  0  1  0  0  0  0  0  0  0  0  0
    4.5657   -6.4325    8.4566 O   0  0  0  0  0  0  0  0  0  0  0  0
    5.3097   -7.6446    8.5578 C   0  0  0  0  0  0  0  0  0  0  0  0
   -1.3866   -4.2023    6.8753 H   0  0  0  0  0  0  0  0  0  0  0  0
   -0.0046   -4.7280    7.8153 H   0  0  0  0  0  0  0  0  0  0  0  0
   -1.3194   -5.8543    7.4573 H   0  0  0  0  0  0  0  0  0  0  0  0
    0.1452   -7.2610    6.2172 H   0  0  0  0  0  0  0  0  0  0  0  0
    1.9485   -5.4014    7.1603 H   0  0  0  0  0  0  0  0  0  0  0  0
    2.6939   -7.7445    8.4751 H   0  0  0  0  0  0  0  0  0  0  0  0
    2.4709   -5.6806    9.2433 H   0  0  0  0  0  0  0  0  0  0  0  0
    0.6526   -8.3898    9.4784 H   0  0  0  0  0  0  0  0  0  0  0  0
   -0.3131   -7.7284    8.2170 H   0  0  0  0  0  0  0  0  0  0  0  0
    1.8636   -9.9248    7.8649 H   0  0  0  0  0  0  0  0  0  0  0  0
    0.2177  -10.2096    8.2733 H   0  0  0  0  0  0  0  0  0  0  0  0
   -0.0180  -10.6720    6.1956 H   0  0  0  0  0  0  0  0  0  0  0  0
   -0.5822   -9.1029    6.0832 H   0  0  0  0  0  0  0  0  0  0  0  0
    2.6282  -11.0509    6.0738 H   0  0  0  0  0  0  0  0  0  0  0  0
    1.8080  -11.5132    4.5894 H   0  0  0  0  0  0  0  0  0  0  0  0
    3.9605  -10.8678    3.7223 H   0  0  0  0  0  0  0  0  0  0  0  0
    4.7625   -9.8080    5.9818 H   0  0  0  0  0  0  0  0  0  0  0  0
    7.3450   -7.9793    4.4583 H   0  0  0  0  0  0  0  0  0  0  0  0
    7.1390   -9.3528    5.5421 H   0  0  0  0  0  0  0  0  0  0  0  0
    6.4495   -7.7137    5.9219 H   0  0  0  0  0  0  0  0  0  0  0  0
    3.0940   -8.6331    6.6133 H   0  0  0  0  0  0  0  0  0  0  0  0
    4.4968   -4.9155    4.8777 H   0  0  0  0  0  0  0  0  0  0  0  0
    5.4375   -6.2622    4.9360 H   0  0  0  0  0  0  0  0  0  0  0  0
    4.8338   -5.4201    2.8605 H   0  0  0  0  0  0  0  0  0  0  0  0
    4.6700   -7.0513    2.9542 H   0  0  0  0  0  0  0  0  0  0  0  0
    3.4279   -5.1419    0.7754 H   0  0  0  0  0  0  0  0  0  0  0  0
    2.4736   -2.8769    1.1815 H   0  0  0  0  0  0  0  0  0  0  0  0
    1.9093   -2.1491    3.5155 H   0  0  0  0  0  0  0  0  0  0  0  0
    0.4434   -7.1154    3.9127 H   0  0  0  0  0  0  0  0  0  0  0  0
    1.7617   -9.6113    2.9707 H   0  0  0  0  0  0  0  0  0  0  0  0
    4.0713   -8.8921    0.4811 H   0  0  0  0  0  0  0  0  0  0  0  0
    2.7343   -9.9516    0.9055 H   0  0  0  0  0  0  0  0  0  0  0  0
    4.3402  -10.1891    1.6306 H   0  0  0  0  0  0  0  0  0  0  0  0
    1.4108   -2.8965    5.6843 H   0  0  0  0  0  0  0  0  0  0  0  0
    4.0341   -3.1013    5.3537 H   0  0  0  0  0  0  0  0  0  0  0  0
    3.1915   -2.4125    6.6081 H   0  0  0  0  0  0  0  0  0  0  0  0
    5.0026   -3.8229    7.4521 H   0  0  0  0  0  0  0  0  0  0  0  0
    3.4170   -3.1033    8.6796 H   0  0  0  0  0  0  0  0  0  0  0  0
    5.4784   -5.8655    6.8433 H   0  0  0  0  0  0  0  0  0  0  0  0
    5.3159   -7.9725    9.5982 H   0  0  0  0  0  0  0  0  0  0  0  0
    6.3437   -7.5356    8.2343 H   0  0  0  0  0  0  0  0  0  0  0  0
    4.8542   -8.4448    7.9844 H   0  0  0  0  0  0  0  0  0  0  0  0
    0.7291   -9.7049    4.3973 H   0  0  0  0  0  0  0  0  0  0  0  0
  1  2  1  0
  1 38  1  0
  1 39  1  0
  1 40  1  0
  2  3  1  0
  3 26  1  0
  3  4  1  0
  3 41  1  1
  4 17  1  0
  4  5  1  0
  4 42  1  1
  5  6  1  0
  5  7  1  0
  5 43  1  1
  6 44  1  0
  7  8  1  0
  7 45  1  0
  7 46  1  0
  8  9  1  0
  8 47  1  0
  8 48  1  0
  9 10  1  0
  9 49  1  0
  9 50  1  0
 27 10  1  1
 10 11  1  0
 10 80  1  6
 11 12  1  0
 11 51  1  0
 11 52  1  0
 12 28  1  0
 12 13  1  0
 12 53  1  6
 13 14  1  0
 13 16  1  0
 13 54  1  1
 14 15  1  0
 15 55  1  0
 15 56  1  0
 15 57  1  0
 16 27  1  0
 16 17  1  0
 16 58  1  1
 17 35  1  0
 17 18  1  6
 18 19  1  0
 18 59  1  0
 18 60  1  0
 19 20  1  0
 19 61  1  0
 19 62  1  0
 20 25  2  0
 20 21  1  0
 21 22  2  0
 21 63  1  0
 22 23  1  0
 22 64  1  0
 23 24  2  0
 23 65  1  0
 24 25  1  0
 24 31  1  0
 25 26  1  0
 26 27  1  0
 26 66  1  6
 27 28  1  0
 28 29  1  0
 28 67  1  6
 29 30  1  0
 30 68  1  0
 30 69  1  0
 30 70  1  0
 31 32  1  0
 31 71  1  0
 32 33  1  0
 32 72  1  0
 32 73  1  0
 33 34  1  0
 33 35  1  0
 33 74  1  1
 34 75  1  0
 35 36  1  0
 35 76  1  6
 36 37  1  0
 37 77  1  0
 37 78  1  0
 37 79  1  0
M  CHG  1  10   1
M  END
>  <i_m_ct_stereo_status>  (178) 
1

>  <s_m_source_file>  (178) 
/var/tmp/pbs.5076255.sched01/tmpbnv9a_8s/88lo2bg1ru.sdf

>  <i_m_source_file_index>  (178) 
1

>  <i_lp_mmshare_version>  (178) 
48012

>  <i_f3d_flags>  (178) 
0

>  <s_epik_input>  (178) 
W09IXVtDQEhdMVtDSDJdW0NIMl1bQ0gyXU4oW0NIMl1bQ0BIXShbQ0BIXShbQ0BASF0yMylPW0NIM10pW0NAQEhdNE9bQ0gzXSlbQ0BAXTM0W0NAQEhdKFtDQEBIXShbQ0BASF0xW0NAQF0yNTYpT1tDSDNdKWM3YyhbQ0gyXVtDSDJdNSlbY0hdW2NIXVtjSF1jN1tOSF1bQ0gyXVtDQEBIXShbT0hdKVtDQEhdNk9bQ0gzXQ==

>  <s_epik_cmdline>  (178) 
J2VwaWtfcHl0aG9uJywgJy1waHQnLCAnMi4wJywgJy1waCcsICc3LjAnLCAnLXRuJywgJzgnLCAnLW1hJywgJzIwMCcsICctaW1hZScsICc8aW5maWxlLm1hZT4nLCAnLW9tYWUnLCAnPG91dGZpbGUubWFlPic=

>  <r_epik_Ionization_Penalty>  (178) 
0.0653583

>  <r_epik_Ionization_Penalty_Charging>  (178) 
0.0651556

>  <r_epik_Ionization_Penalty_Neutral>  (178) 
0.000202645

>  <r_epik_State_Penalty>  (178) 
0.0178476

>  <r_epik_Charging_Adjusted_Penalty>  (178) 
0.0830032

>  <i_epik_Tot_Q>  (178) 
1

>  <i_epik_Tot_abs_Q>  (178) 
1

>  <s_lp_Force_Field>  (178) 
OPLS3e

>  <r_lp_Energy>  (178) 
318.229

>  <b_lp_Chiralities_Consistent>  (178) 
1

>  <s_lp_Variant>  (178) 
62:0-1

>  <s_i_glide_gridfile>  (178) 
pfpi4k_grid

>  <i_i_glide_lignum>  (178) 
1

>  <i_i_glide_rotatable_bonds>  (178) 
6

>  <r_i_docking_score>  (178) 
-2.65621

>  <r_i_glide_ligand_efficiency>  (178) 
-0.0717895

>  <r_i_glide_ligand_efficiency_sa>  (178) 
-0.239219

>  <r_i_glide_ligand_efficiency_ln>  (178) 
-0.57607

>  <r_i_glide_gscore>  (178) 
-2.65621

>  <r_i_glide_lipo>  (178) 
-0.0563196

>  <r_i_glide_hbond>  (178) 
0

>  <r_i_glide_metal>  (178) 
-0

>  <r_i_glide_rewards>  (178) 
-1

>  <r_i_glide_evdw>  (178) 
-17.8647

>  <r_i_glide_ecoul>  (178) 
-4.46732

>  <r_i_glide_erotb>  (178) 
0

>  <r_i_glide_esite>  (178) 
-0.0365617

>  <r_i_glide_emodel>  (178) 
-36.5486

>  <r_i_glide_energy>  (178) 
-22.332

>  <r_i_glide_einternal>  (178) 
0.737428

>  <r_i_glide_intrahb_reward>  (178) 
-1

>  <i_i_glide_confnum>  (178) 
2

>  <i_i_glide_posenum>  (178) 
4

>  <r_i_glide_eff_state_penalty>  (178) 
0

>  <ligand_id>  (178) 
62

>  <original_smiles>  (178) 
COC1C2C(O)CCCN3CC4C(OC)C5C26CCc2cccc(c2C1C53C4OC)NCC(O)C6OC

>  <smiles>  (178) 
[H]OC1([H])C([H])([H])N([H])c2c([H])c([H])c([H])c3c2C2([H])C([H])(OC([H])([H])[H])C4([H])C([H])(O[H])C([H])([H])C([H])([H])C([H])([H])[N+]5([H])C([H])([H])C6([H])C([H])(OC([H])([H])[H])C([H])(C4(C([H])([H])C3([H])[H])C1([H])OC([H])([H])[H])C25C6([H])OC([H])([H])[H]

$$$$
62:0:1
     RDKit          3D

 80 86  0  0  1  0  0  0  0  0999 V2000
    2.7241    3.0828    3.8576 C   0  0  0  0  0  0  0  0  0  0  0  0
    2.7257    3.1784    5.2730 O   0  0  0  0  0  0  0  0  0  0  0  0
    1.5110    3.6086    5.8754 C   0  0  2  0  0  0  0  0  0  0  0  0
    1.0146    5.0439    5.6014 C   0  0  1  0  0  0  0  0  0  0  0  0
   -0.1214    5.0582    4.4780 C   0  0  1  0  0  0  0  0  0  0  0  0
    0.3648    5.6368    3.2842 O   0  0  0  0  0  0  0  0  0  0  0  0
   -0.8598    3.7792    4.0093 C   0  0  0  0  0  0  0  0  0  0  0  0
   -1.9007    3.2011    4.9822 C   0  0  0  0  0  0  0  0  0  0  0  0
   -1.3680    2.2108    6.0292 C   0  0  0  0  0  0  0  0  0  0  0  0
   -1.0882    2.7478    7.4001 N   0  0  2  0  0  0  0  0  0  0  0  0
   -2.3217    3.1191    8.1575 C   0  0  0  0  0  0  0  0  0  0  0  0
   -1.7642    4.0253    9.2559 C   0  0  2  0  0  0  0  0  0  0  0  0
   -1.4839    5.4686    8.7008 C   0  0  1  0  0  0  0  0  0  0  0  0
   -1.0228    6.3367    9.7258 O   0  0  0  0  0  0  0  0  0  0  0  0
   -2.0372    6.7746   10.6182 C   0  0  0  0  0  0  0  0  0  0  0  0
   -0.4884    5.1665    7.5380 C   0  0  1  0  0  0  0  0  0  0  0  0
    0.7038    6.0109    6.9218 C   0  0  1  0  0  0  0  0  0  0  0  0
    1.4943    6.5078    8.2679 C   0  0  0  0  0  0  0  0  0  0  0  0
    1.9494    5.7549    9.5470 C   0  0  0  0  0  0  0  0  0  0  0  0
    2.7889    4.5160    9.3066 C   0  0  0  0  0  0  0  0  0  0  0  0
    3.9598    4.4556   10.0649 C   0  0  0  0  0  0  0  0  0  0  0  0
    5.1649    4.5959    9.3248 C   0  0  0  0  0  0  0  0  0  0  0  0
    5.1657    4.9005    7.9419 C   0  0  0  0  0  0  0  0  0  0  0  0
    3.9297    4.8030    7.2945 C   0  0  0  0  0  0  0  0  0  0  0  0
    2.7828    4.2355    7.9452 C   0  0  0  0  0  0  0  0  0  0  0  0
    1.5377    3.4377    7.3667 C   0  0  1  0  0  0  0  0  0  0  0  0
    0.0119    3.7004    7.8812 C   0  0  2  0  0  0  0  0  0  0  0  0
   -0.3827    3.3738    9.3761 C   0  0  1  0  0  0  0  0  0  0  0  0
    0.3601    3.7516   10.5105 O   0  0  0  0  0  0  0  0  0  0  0  0
   -0.2031    3.4276   11.7751 C   0  0  0  0  0  0  0  0  0  0  0  0
    3.8908    5.5062    6.0389 N   0  0  0  0  0  0  0  0  0  0  0  0
    3.6875    6.9850    6.0913 C   0  0  0  0  0  0  0  0  0  0  0  0
    2.3145    7.6852    5.5982 C   0  0  1  0  0  0  0  0  0  0  0  0
    2.3299    7.6742    4.1791 O   0  0  0  0  0  0  0  0  0  0  0  0
    0.8442    7.4350    6.2305 C   0  0  1  0  0  0  0  0  0  0  0  0
   -0.1832    7.8081    5.3232 O   0  0  0  0  0  0  0  0  0  0  0  0
   -0.3087    9.1987    5.0218 C   0  0  0  0  0  0  0  0  0  0  0  0
    3.7117    2.7540    3.5442 H   0  0  0  0  0  0  0  0  0  0  0  0
    2.5217    4.0368    3.3701 H   0  0  0  0  0  0  0  0  0  0  0  0
    2.0029    2.3429    3.5124 H   0  0  0  0  0  0  0  0  0  0  0  0
    0.8605    2.8725    5.4746 H   0  0  0  0  0  0  0  0  0  0  0  0
    1.8167    5.4286    5.0061 H   0  0  0  0  0  0  0  0  0  0  0  0
   -0.9222    5.7195    4.7781 H   0  0  0  0  0  0  0  0  0  0  0  0
    0.2303    5.0442    2.5402 H   0  0  0  0  0  0  0  0  0  0  0  0
   -1.4404    4.0486    3.1204 H   0  0  0  0  0  0  0  0  0  0  0  0
   -0.1853    3.0073    3.6367 H   0  0  0  0  0  0  0  0  0  0  0  0
   -2.5525    3.9770    5.4037 H   0  0  0  0  0  0  0  0  0  0  0  0
   -2.5666    2.5996    4.3625 H   0  0  0  0  0  0  0  0  0  0  0  0
   -2.1821    1.5038    6.1874 H   0  0  0  0  0  0  0  0  0  0  0  0
   -0.5914    1.5452    5.6570 H   0  0  0  0  0  0  0  0  0  0  0  0
   -3.0723    3.6323    7.5578 H   0  0  0  0  0  0  0  0  0  0  0  0
   -2.7862    2.2212    8.5783 H   0  0  0  0  0  0  0  0  0  0  0  0
   -2.4022    3.9491   10.1377 H   0  0  0  0  0  0  0  0  0  0  0  0
   -2.3941    5.8955    8.2828 H   0  0  0  0  0  0  0  0  0  0  0  0
   -1.5903    7.4078   11.3816 H   0  0  0  0  0  0  0  0  0  0  0  0
   -2.5286    5.9493   11.1313 H   0  0  0  0  0  0  0  0  0  0  0  0
   -2.7935    7.3582   10.0942 H   0  0  0  0  0  0  0  0  0  0  0  0
   -1.2035    5.0897    6.7345 H   0  0  0  0  0  0  0  0  0  0  0  0
    2.3630    7.0926    8.0459 H   0  0  0  0  0  0  0  0  0  0  0  0
    0.8685    7.2696    8.7279 H   0  0  0  0  0  0  0  0  0  0  0  0
    2.6424    6.4446   10.0350 H   0  0  0  0  0  0  0  0  0  0  0  0
    1.1823    5.7234   10.3062 H   0  0  0  0  0  0  0  0  0  0  0  0
    3.9687    4.5403   11.1434 H   0  0  0  0  0  0  0  0  0  0  0  0
    6.0945    4.6069    9.8577 H   0  0  0  0  0  0  0  0  0  0  0  0
    6.0605    5.2201    7.4292 H   0  0  0  0  0  0  0  0  0  0  0  0
    1.7594    2.3897    7.5665 H   0  0  0  0  0  0  0  0  0  0  0  0
   -0.4674    2.2893    9.5319 H   0  0  0  0  0  0  0  0  0  0  0  0
    0.4988    3.7160   12.5566 H   0  0  0  0  0  0  0  0  0  0  0  0
   -0.3923    2.3599   11.8754 H   0  0  0  0  0  0  0  0  0  0  0  0
   -1.1271    3.9688   11.9715 H   0  0  0  0  0  0  0  0  0  0  0  0
    4.7185    5.3158    5.4866 H   0  0  0  0  0  0  0  0  0  0  0  0
    4.0473    7.3974    7.0352 H   0  0  0  0  0  0  0  0  0  0  0  0
    4.4394    7.3458    5.3940 H   0  0  0  0  0  0  0  0  0  0  0  0
    2.4947    8.7397    5.7935 H   0  0  0  0  0  0  0  0  0  0  0  0
    1.4931    7.9780    3.8399 H   0  0  0  0  0  0  0  0  0  0  0  0
    0.7031    8.2101    6.9811 H   0  0  0  0  0  0  0  0  0  0  0  0
   -1.1165    9.3521    4.3053 H   0  0  0  0  0  0  0  0  0  0  0  0
    0.5839    9.6219    4.5614 H   0  0  0  0  0  0  0  0  0  0  0  0
   -0.5588    9.7838    5.9069 H   0  0  0  0  0  0  0  0  0  0  0  0
   -0.7962    1.8948    7.8570 H   0  0  0  0  0  0  0  0  0  0  0  0
  1  2  1  0
  1 38  1  0
  1 39  1  0
  1 40  1  0
  2  3  1  0
  3 26  1  0
  3  4  1  0
  3 41  1  6
  4 17  1  0
  4  5  1  0
  4 42  1  6
  5  6  1  0
  5  7  1  0
  5 43  1  1
  6 44  1  0
  7  8  1  0
  7 45  1  0
  7 46  1  0
  8  9  1  0
  8 47  1  0
  8 48  1  0
  9 10  1  0
  9 49  1  0
  9 50  1  0
 27 10  1  6
 10 11  1  0
 10 80  1  1
 11 12  1  0
 11 51  1  0
 11 52  1  0
 12 28  1  0
 12 13  1  0
 12 53  1  1
 13 14  1  0
 13 16  1  0
 13 54  1  6
 14 15  1  0
 15 55  1  0
 15 56  1  0
 15 57  1  0
 16 27  1  0
 16 17  1  0
 16 58  1  6
 17 35  1  0
 17 18  1  1
 18 19  1  0
 18 59  1  0
 18 60  1  0
 19 20  1  0
 19 61  1  0
 19 62  1  0
 20 25  2  0
 20 21  1  0
 21 22  2  0
 21 63  1  0
 22 23  1  0
 22 64  1  0
 23 24  2  0
 23 65  1  0
 24 25  1  0
 24 31  1  0
 25 26  1  0
 26 27  1  0
 26 66  1  6
 27 28  1  0
 28 29  1  0
 28 67  1  6
 29 30  1  0
 30 68  1  0
 30 69  1  0
 30 70  1  0
 31 32  1  0
 31 71  1  0
 32 33  1  0
 32 72  1  0
 32 73  1  0
 33 34  1  0
 33 35  1  0
 33 74  1  6
 34 75  1  0
 35 36  1  0
 35 76  1  1
 36 37  1  0
 37 77  1  0
 37 78  1  0
 37 79  1  0
M  CHG  1  10   1
M  END
>  <i_m_ct_stereo_status>  (179) 
1

>  <s_m_source_file>  (179) 
/var/tmp/pbs.5076255.sched01/tmpbnv9a_8s/88lo2bg1ru.sdf

>  <i_m_source_file_index>  (179) 
1

>  <i_lp_mmshare_version>  (179) 
48012

>  <i_f3d_flags>  (179) 
0

>  <s_epik_input>  (179) 
W09IXVtDQEhdMVtDSDJdW0NIMl1bQ0gyXU4oW0NIMl1bQ0BIXShbQ0BIXShbQ0BASF0yMylPW0NIM10pW0NAQEhdNE9bQ0gzXSlbQ0BAXTM0W0NAQEhdKFtDQEBIXShbQ0BASF0xW0NAQF0yNTYpT1tDSDNdKWM3YyhbQ0gyXVtDSDJdNSlbY0hdW2NIXVtjSF1jN1tOSF1bQ0gyXVtDQEBIXShbT0hdKVtDQEhdNk9bQ0gzXQ==

>  <s_epik_cmdline>  (179) 
J2VwaWtfcHl0aG9uJywgJy1waHQnLCAnMi4wJywgJy1waCcsICc3LjAnLCAnLXRuJywgJzgnLCAnLW1hJywgJzIwMCcsICctaW1hZScsICc8aW5maWxlLm1hZT4nLCAnLW9tYWUnLCAnPG91dGZpbGUubWFlPic=

>  <r_epik_Ionization_Penalty>  (179) 
0.0653583

>  <r_epik_Ionization_Penalty_Charging>  (179) 
0.0651556

>  <r_epik_Ionization_Penalty_Neutral>  (179) 
0.000202645

>  <r_epik_State_Penalty>  (179) 
0.0178476

>  <r_epik_Charging_Adjusted_Penalty>  (179) 
0.0830032

>  <i_epik_Tot_Q>  (179) 
1

>  <i_epik_Tot_abs_Q>  (179) 
1

>  <s_lp_Force_Field>  (179) 
OPLS3e

>  <r_lp_Energy>  (179) 
318.229

>  <b_lp_Chiralities_Consistent>  (179) 
1

>  <s_lp_Variant>  (179) 
62:0-1

>  <s_i_glide_gridfile>  (179) 
pfpi4k_grid

>  <i_i_glide_lignum>  (179) 
1

>  <i_i_glide_rotatable_bonds>  (179) 
6

>  <r_i_docking_score>  (179) 
-1.97625

>  <r_i_glide_ligand_efficiency>  (179) 
-0.0534123

>  <r_i_glide_ligand_efficiency_sa>  (179) 
-0.177982

>  <r_i_glide_ligand_efficiency_ln>  (179) 
-0.428603

>  <r_i_glide_gscore>  (179) 
-1.97625

>  <r_i_glide_lipo>  (179) 
-0.0847663

>  <r_i_glide_hbond>  (179) 
-0.155525

>  <r_i_glide_metal>  (179) 
-0

>  <r_i_glide_rewards>  (179) 
0

>  <r_i_glide_evdw>  (179) 
-18.7897

>  <r_i_glide_ecoul>  (179) 
-5.30985

>  <r_i_glide_erotb>  (179) 
0

>  <r_i_glide_esite>  (179) 
0

>  <r_i_glide_emodel>  (179) 
-26.1277

>  <r_i_glide_energy>  (179) 
-24.0995

>  <r_i_glide_einternal>  (179) 
3.41655

>  <r_i_glide_intrahb_reward>  (179) 
-0

>  <i_i_glide_confnum>  (179) 
1

>  <i_i_glide_posenum>  (179) 
6

>  <r_i_glide_eff_state_penalty>  (179) 
0

>  <ligand_id>  (179) 
62

>  <original_smiles>  (179) 
COC1C2C(O)CCCN3CC4C(OC)C5C26CCc2cccc(c2C1C53C4OC)NCC(O)C6OC

>  <smiles>  (179) 
[H]OC1([H])C([H])([H])N([H])c2c([H])c([H])c([H])c3c2C2([H])C([H])(OC([H])([H])[H])C4([H])C([H])(O[H])C([H])([H])C([H])([H])C([H])([H])[N+]5([H])C([H])([H])C6([H])C([H])(OC([H])([H])[H])C([H])(C4(C([H])([H])C3([H])[H])C1([H])OC([H])([H])[H])C25C6([H])OC([H])([H])[H]

$$$$
62:0:2
     RDKit          3D

 80 86  0  0  1  0  0  0  0  0999 V2000
    0.0912   -1.7420    4.2075 C   0  0  0  0  0  0  0  0  0  0  0  0
    0.8370   -2.5481    3.3101 O   0  0  0  0  0  0  0  0  0  0  0  0
    1.5421   -3.6503    3.8767 C   0  0  2  0  0  0  0  0  0  0  0  0
    2.6691   -3.3533    4.8925 C   0  0  1  0  0  0  0  0  0  0  0  0
    2.1494   -3.5401    6.3955 C   0  0  1  0  0  0  0  0  0  0  0  0
    2.0170   -2.2810    7.0248 O   0  0  0  0  0  0  0  0  0  0  0  0
    0.8347   -4.2847    6.7323 C   0  0  0  0  0  0  0  0  0  0  0  0
    0.8791   -5.8180    6.5909 C   0  0  0  0  0  0  0  0  0  0  0  0
    0.5418   -6.3859    5.2054 C   0  0  0  0  0  0  0  0  0  0  0  0
    1.6893   -6.7511    4.3124 N   0  0  2  0  0  0  0  0  0  0  0  0
    2.4593   -7.9555    4.7833 C   0  0  0  0  0  0  0  0  0  0  0  0
    3.7833   -7.8015    4.0141 C   0  0  2  0  0  0  0  0  0  0  0  0
    4.7193   -6.7536    4.7068 C   0  0  1  0  0  0  0  0  0  0  0  0
    5.9618   -6.7017    4.0276 O   0  0  0  0  0  0  0  0  0  0  0  0
    7.0555   -6.2691    4.8120 C   0  0  0  0  0  0  0  0  0  0  0  0
    3.8202   -5.4871    4.6754 C   0  0  1  0  0  0  0  0  0  0  0  0
    4.1898   -3.9555    4.5643 C   0  0  1  0  0  0  0  0  0  0  0  0
    5.2541   -3.8905    3.3324 C   0  0  0  0  0  0  0  0  0  0  0  0
    5.2216   -4.5745    1.9461 C   0  0  0  0  0  0  0  0  0  0  0  0
    3.9978   -4.3011    1.0904 C   0  0  0  0  0  0  0  0  0  0  0  0
    4.3078   -3.8730   -0.2178 C   0  0  0  0  0  0  0  0  0  0  0  0
    4.0312   -2.5066   -0.4650 C   0  0  0  0  0  0  0  0  0  0  0  0
    3.5899   -1.6158    0.5446 C   0  0  0  0  0  0  0  0  0  0  0  0
    3.2086   -2.2056    1.7542 C   0  0  0  0  0  0  0  0  0  0  0  0
    3.0572   -3.6409    1.8544 C   0  0  0  0  0  0  0  0  0  0  0  0
    2.1518   -4.5292    2.8234 C   0  0  1  0  0  0  0  0  0  0  0  0
    2.7158   -5.8507    3.5981 C   0  0  2  0  0  0  0  0  0  0  0  0
    3.2118   -7.0996    2.7799 C   0  0  1  0  0  0  0  0  0  0  0  0
    4.0742   -7.0470    1.6659 O   0  0  0  0  0  0  0  0  0  0  0  0
    4.3684   -8.2852    1.0351 C   0  0  0  0  0  0  0  0  0  0  0  0
    3.1677   -1.2800    2.8506 N   0  0  0  0  0  0  0  0  0  0  0  0
    4.4650   -0.9004    3.4912 C   0  0  0  0  0  0  0  0  0  0  0  0
    4.8644   -1.4198    4.9702 C   0  0  1  0  0  0  0  0  0  0  0  0
    4.0976   -0.6607    5.8818 O   0  0  0  0  0  0  0  0  0  0  0  0
    5.0263   -2.9589    5.4447 C   0  0  1  0  0  0  0  0  0  0  0  0
    4.8974   -3.0418    6.8614 O   0  0  0  0  0  0  0  0  0  0  0  0
    5.4430   -4.1991    7.4910 C   0  0  0  0  0  0  0  0  0  0  0  0
   -0.4001   -0.9486    3.6490 H   0  0  0  0  0  0  0  0  0  0  0  0
    0.7189   -1.2568    4.9523 H   0  0  0  0  0  0  0  0  0  0  0  0
   -0.6789   -2.3248    4.7085 H   0  0  0  0  0  0  0  0  0  0  0  0
    0.7216   -4.1741    4.3154 H   0  0  0  0  0  0  0  0  0  0  0  0
    2.6570   -2.2897    4.8641 H   0  0  0  0  0  0  0  0  0  0  0  0
    2.8675   -4.0704    7.0073 H   0  0  0  0  0  0  0  0  0  0  0  0
    2.9013   -1.9584    7.1761 H   0  0  0  0  0  0  0  0  0  0  0  0
    0.6458   -4.1157    7.7941 H   0  0  0  0  0  0  0  0  0  0  0  0
   -0.0439   -3.8590    6.2467 H   0  0  0  0  0  0  0  0  0  0  0  0
    1.7823   -6.2541    7.0339 H   0  0  0  0  0  0  0  0  0  0  0  0
    0.0696   -6.1882    7.2215 H   0  0  0  0  0  0  0  0  0  0  0  0
    0.0451   -7.3372    5.3903 H   0  0  0  0  0  0  0  0  0  0  0  0
   -0.2480   -5.8505    4.6848 H   0  0  0  0  0  0  0  0  0  0  0  0
    2.6062   -7.9880    5.8607 H   0  0  0  0  0  0  0  0  0  0  0  0
    1.9167   -8.8616    4.4955 H   0  0  0  0  0  0  0  0  0  0  0  0
    4.2371   -8.7793    3.8444 H   0  0  0  0  0  0  0  0  0  0  0  0
    4.8960   -7.0796    5.7283 H   0  0  0  0  0  0  0  0  0  0  0  0
    7.8895   -6.1470    4.1325 H   0  0  0  0  0  0  0  0  0  0  0  0
    7.3502   -6.9882    5.5879 H   0  0  0  0  0  0  0  0  0  0  0  0
    6.8403   -5.2761    5.1925 H   0  0  0  0  0  0  0  0  0  0  0  0
    3.3629   -5.5967    5.6470 H   0  0  0  0  0  0  0  0  0  0  0  0
    5.5280   -2.8978    3.0414 H   0  0  0  0  0  0  0  0  0  0  0  0
    6.2037   -4.2619    3.7169 H   0  0  0  0  0  0  0  0  0  0  0  0
    6.0303   -4.1064    1.3874 H   0  0  0  0  0  0  0  0  0  0  0  0
    5.6019   -5.5756    1.9838 H   0  0  0  0  0  0  0  0  0  0  0  0
    4.9475   -4.4455   -0.8883 H   0  0  0  0  0  0  0  0  0  0  0  0
    4.2674   -2.1042   -1.4339 H   0  0  0  0  0  0  0  0  0  0  0  0
    3.5611   -0.5380    0.3971 H   0  0  0  0  0  0  0  0  0  0  0  0
    1.3509   -4.8799    2.1816 H   0  0  0  0  0  0  0  0  0  0  0  0
    2.3587   -7.6514    2.3645 H   0  0  0  0  0  0  0  0  0  0  0  0
    5.0085   -8.0980    0.1744 H   0  0  0  0  0  0  0  0  0  0  0  0
    3.4667   -8.7795    0.6791 H   0  0  0  0  0  0  0  0  0  0  0  0
    4.9051   -8.9720    1.6860 H   0  0  0  0  0  0  0  0  0  0  0  0
    2.7057   -0.4235    2.5647 H   0  0  0  0  0  0  0  0  0  0  0  0
    5.2918   -0.9848    2.7833 H   0  0  0  0  0  0  0  0  0  0  0  0
    4.4063    0.1809    3.5795 H   0  0  0  0  0  0  0  0  0  0  0  0
    5.8456   -1.0002    5.1595 H   0  0  0  0  0  0  0  0  0  0  0  0
    3.1807   -0.7488    5.6460 H   0  0  0  0  0  0  0  0  0  0  0  0
    6.0853   -3.1704    5.3401 H   0  0  0  0  0  0  0  0  0  0  0  0
    5.2663   -4.1448    8.5659 H   0  0  0  0  0  0  0  0  0  0  0  0
    6.5168   -4.3083    7.3333 H   0  0  0  0  0  0  0  0  0  0  0  0
    4.9543   -5.1057    7.1491 H   0  0  0  0  0  0  0  0  0  0  0  0
    1.1786   -7.1393    3.5360 H   0  0  0  0  0  0  0  0  0  0  0  0
  1  2  1  0
  1 38  1  0
  1 39  1  0
  1 40  1  0
  2  3  1  0
  3 26  1  0
  3  4  1  0
  3 41  1  1
  4 17  1  0
  4  5  1  0
  4 42  1  1
  5  6  1  0
  5  7  1  0
  5 43  1  1
  6 44  1  0
  7  8  1  0
  7 45  1  0
  7 46  1  0
  8  9  1  0
  8 47  1  0
  8 48  1  0
  9 10  1  0
  9 49  1  0
  9 50  1  0
 27 10  1  1
 10 11  1  0
 10 80  1  6
 11 12  1  0
 11 51  1  0
 11 52  1  0
 12 28  1  0
 12 13  1  0
 12 53  1  6
 13 14  1  0
 13 16  1  0
 13 54  1  1
 14 15  1  0
 15 55  1  0
 15 56  1  0
 15 57  1  0
 16 27  1  0
 16 17  1  0
 16 58  1  1
 17 35  1  0
 17 18  1  6
 18 19  1  0
 18 59  1  0
 18 60  1  0
 19 20  1  0
 19 61  1  0
 19 62  1  0
 20 25  2  0
 20 21  1  0
 21 22  2  0
 21 63  1  0
 22 23  1  0
 22 64  1  0
 23 24  2  0
 23 65  1  0
 24 25  1  0
 24 31  1  0
 25 26  1  0
 26 27  1  0
 26 66  1  6
 27 28  1  0
 28 29  1  0
 28 67  1  6
 29 30  1  0
 30 68  1  0
 30 69  1  0
 30 70  1  0
 31 32  1  0
 31 71  1  0
 32 33  1  0
 32 72  1  0
 32 73  1  0
 33 34  1  0
 33 35  1  0
 33 74  1  1
 34 75  1  0
 35 36  1  0
 35 76  1  1
 36 37  1  0
 37 77  1  0
 37 78  1  0
 37 79  1  0
M  CHG  1  10   1
M  END
>  <i_m_ct_stereo_status>  (180) 
1

>  <s_m_source_file>  (180) 
/var/tmp/pbs.5076255.sched01/tmpbnv9a_8s/88lo2bg1ru.sdf

>  <i_m_source_file_index>  (180) 
1

>  <i_lp_mmshare_version>  (180) 
48012

>  <i_f3d_flags>  (180) 
0

>  <s_epik_input>  (180) 
W09IXVtDQEhdMVtDSDJdW0NIMl1bQ0gyXU4oW0NIMl1bQ0BIXShbQ0BIXShbQ0BASF0yMylPW0NIM10pW0NAQEhdNE9bQ0gzXSlbQ0BAXTM0W0NAQEhdKFtDQEBIXShbQ0BASF0xW0NAQF0yNTYpT1tDSDNdKWM3YyhbQ0gyXVtDSDJdNSlbY0hdW2NIXVtjSF1jN1tOSF1bQ0gyXVtDQEBIXShbT0hdKVtDQEhdNk9bQ0gzXQ==

>  <s_epik_cmdline>  (180) 
J2VwaWtfcHl0aG9uJywgJy1waHQnLCAnMi4wJywgJy1waCcsICc3LjAnLCAnLXRuJywgJzgnLCAnLW1hJywgJzIwMCcsICctaW1hZScsICc8aW5maWxlLm1hZT4nLCAnLW9tYWUnLCAnPG91dGZpbGUubWFlPic=

>  <r_epik_Ionization_Penalty>  (180) 
0.0653583

>  <r_epik_Ionization_Penalty_Charging>  (180) 
0.0651556

>  <r_epik_Ionization_Penalty_Neutral>  (180) 
0.000202645

>  <r_epik_State_Penalty>  (180) 
0.0178476

>  <r_epik_Charging_Adjusted_Penalty>  (180) 
0.0830032

>  <i_epik_Tot_Q>  (180) 
1

>  <i_epik_Tot_abs_Q>  (180) 
1

>  <s_lp_Force_Field>  (180) 
OPLS3e

>  <r_lp_Energy>  (180) 
318.229

>  <b_lp_Chiralities_Consistent>  (180) 
1

>  <s_lp_Variant>  (180) 
62:0-1

>  <s_i_glide_gridfile>  (180) 
pfpi4k_grid

>  <i_i_glide_lignum>  (180) 
1

>  <i_i_glide_rotatable_bonds>  (180) 
6

>  <r_i_docking_score>  (180) 
-1.55073

>  <r_i_glide_ligand_efficiency>  (180) 
-0.0419117

>  <r_i_glide_ligand_efficiency_sa>  (180) 
-0.139659

>  <r_i_glide_ligand_efficiency_ln>  (180) 
-0.336318

>  <r_i_glide_gscore>  (180) 
-1.55073

>  <r_i_glide_lipo>  (180) 
-0.193123

>  <r_i_glide_hbond>  (180) 
0

>  <r_i_glide_metal>  (180) 
-0

>  <r_i_glide_rewards>  (180) 
-0.5

>  <r_i_glide_evdw>  (180) 
-19.4005

>  <r_i_glide_ecoul>  (180) 
0.788891

>  <r_i_glide_erotb>  (180) 
0

>  <r_i_glide_esite>  (180) 
-0.005922

>  <r_i_glide_emodel>  (180) 
-24.9606

>  <r_i_glide_energy>  (180) 
-18.6116

>  <r_i_glide_einternal>  (180) 
0.626076

>  <r_i_glide_intrahb_reward>  (180) 
-0.5

>  <i_i_glide_confnum>  (180) 
1

>  <i_i_glide_posenum>  (180) 
34

>  <r_i_glide_eff_state_penalty>  (180) 
0

>  <ligand_id>  (180) 
62

>  <original_smiles>  (180) 
COC1C2C(O)CCCN3CC4C(OC)C5C26CCc2cccc(c2C1C53C4OC)NCC(O)C6OC

>  <smiles>  (180) 
[H]OC1([H])C([H])([H])N([H])c2c([H])c([H])c([H])c3c2C2([H])C([H])(OC([H])([H])[H])C4([H])C([H])(O[H])C([H])([H])C([H])([H])C([H])([H])[N+]5([H])C([H])([H])C6([H])C([H])(OC([H])([H])[H])C([H])(C4(C([H])([H])C3([H])[H])C1([H])OC([H])([H])[H])C25C6([H])OC([H])([H])[H]

$$$$
64:0:0
     RDKit          3D

 26 28  0  0  1  0  0  0  0  0999 V2000
    3.2187   -2.6220   -0.4792 C   0  0  0  0  0  0  0  0  0  0  0  0
    3.0170   -2.6233   -2.0056 C   0  0  0  0  0  0  0  0  0  0  0  0
    1.7044   -3.3915   -2.2886 C   0  0  0  0  0  0  0  0  0  0  0  0
    3.0279   -1.2345   -2.6710 C   0  0  0  0  0  0  0  0  0  0  0  0
    4.0635   -0.3656   -2.6835 C   0  0  0  0  0  0  0  0  0  0  0  0
    5.2456   -0.8297   -2.1219 N   0  0  0  0  0  0  0  0  0  0  0  0
    5.5165   -2.2634   -2.3725 C   0  0  0  0  0  0  0  0  0  0  0  0
    4.2238   -2.8449   -2.9702 C   0  0  1  0  0  0  0  0  0  0  0  0
    4.5246   -4.2188   -3.4945 C   0  0  0  0  0  0  0  0  0  0  0  0
    3.5056   -1.8554   -3.9491 C   0  0  2  0  0  0  0  0  0  0  0  0
    4.0188   -0.4386   -4.2204 C   0  0  0  0  0  0  0  0  0  0  0  0
    3.4820   -3.6108   -0.0998 H   0  0  0  0  0  0  0  0  0  0  0  0
    2.3126   -2.3157    0.0354 H   0  0  0  0  0  0  0  0  0  0  0  0
    3.9968   -1.9353   -0.1475 H   0  0  0  0  0  0  0  0  0  0  0  0
    1.7389   -4.4064   -1.9077 H   0  0  0  0  0  0  0  0  0  0  0  0
    1.4463   -3.3909   -3.3379 H   0  0  0  0  0  0  0  0  0  0  0  0
    0.8500   -2.9953   -1.7612 H   0  0  0  0  0  0  0  0  0  0  0  0
    5.7946   -2.7889   -1.4502 H   0  0  0  0  0  0  0  0  0  0  0  0
    6.3133   -2.4148   -3.0902 H   0  0  0  0  0  0  0  0  0  0  0  0
    5.3336   -4.2348   -4.2144 H   0  0  0  0  0  0  0  0  0  0  0  0
    3.6415   -4.5756   -3.9870 H   0  0  0  0  0  0  0  0  0  0  0  0
    4.7803   -4.8447   -2.6470 H   0  0  0  0  0  0  0  0  0  0  0  0
    2.7148   -2.2240   -4.6161 H   0  0  0  0  0  0  0  0  0  0  0  0
    4.9552   -0.4729   -4.7746 H   0  0  0  0  0  0  0  0  0  0  0  0
    3.3020    0.2192   -4.7149 H   0  0  0  0  0  0  0  0  0  0  0  0
    5.2752   -0.5798   -1.1269 H   0  0  0  0  0  0  0  0  0  0  0  0
  1  2  1  0
  1 12  1  0
  1 13  1  0
  1 14  1  0
  2  8  1  0
  2  3  1  0
  2  4  1  0
  3 15  1  0
  3 16  1  0
  3 17  1  0
  4 10  1  0
  4  5  2  0
  5 11  1  0
  5  6  1  0
  6  7  1  0
  6 26  1  0
  7  8  1  0
  7 18  1  0
  7 19  1  0
  8  9  1  6
  8 10  1  0
  9 20  1  0
  9 21  1  0
  9 22  1  0
 10 11  1  0
 10 23  1  6
 11 24  1  0
 11 25  1  0
M  END
>  <i_m_ct_stereo_status>  (181) 
1

>  <s_m_source_file>  (181) 
/var/tmp/pbs.5076255.sched01/tmpbnv9a_8s/88lo2bg1ru.sdf

>  <i_m_source_file_index>  (181) 
4

>  <i_lp_mmshare_version>  (181) 
48012

>  <i_f3d_flags>  (181) 
0

>  <s_epik_input>  (181) 
W0NIM11bQ0BAXTEyW0NASF0zW0NAQEhdKEMxKFtDSDNdKVtDSDNdKUMoW0NIMl0zKT1OW0NIMl0y

>  <s_epik_cmdline>  (181) 
J2VwaWtfcHl0aG9uJywgJy1waHQnLCAnMi4wJywgJy1waCcsICc3LjAnLCAnLXRuJywgJzgnLCAnLW1hJywgJzIwMCcsICctaW1hZScsICc8aW5maWxlLm1hZT4nLCAnLW9tYWUnLCAnPG91dGZpbGUubWFlPic=

>  <r_lp_tautomer_probability>  (181) 
1

>  <r_epik_Ionization_Penalty>  (181) 
0.0574103

>  <r_epik_Ionization_Penalty_Charging>  (181) 
4.3807e-07

>  <r_epik_Ionization_Penalty_Neutral>  (181) 
0.0574099

>  <r_epik_State_Penalty>  (181) 
-0

>  <r_epik_Charging_Adjusted_Penalty>  (181) 
4.3807e-07

>  <i_epik_Tot_Q>  (181) 
0

>  <i_epik_Tot_abs_Q>  (181) 
0

>  <s_epik_Chemistry_Notes>  (181) 
This compound has an imine and may undergo hydrolysis.

>  <s_lp_Force_Field>  (181) 
OPLS3e

>  <r_lp_Energy>  (181) 
74.6984

>  <b_lp_Chiralities_Consistent>  (181) 
1

>  <s_lp_Variant>  (181) 
64:0-1

>  <s_i_glide_gridfile>  (181) 
pfpi4k_grid

>  <i_i_glide_lignum>  (181) 
4

>  <i_i_glide_rotatable_bonds>  (181) 
0

>  <r_i_docking_score>  (181) 
-3.58131

>  <r_i_glide_ligand_efficiency>  (181) 
-0.325573

>  <r_i_glide_ligand_efficiency_sa>  (181) 
-0.724068

>  <r_i_glide_ligand_efficiency_ln>  (181) 
-1.05398

>  <r_i_glide_gscore>  (181) 
-3.58131

>  <r_i_glide_lipo>  (181) 
-0.736308

>  <r_i_glide_hbond>  (181) 
0

>  <r_i_glide_metal>  (181) 
-0

>  <r_i_glide_rewards>  (181) 
-2.25

>  <r_i_glide_evdw>  (181) 
-6.70865

>  <r_i_glide_ecoul>  (181) 
-1.4144

>  <r_i_glide_erotb>  (181) 
0

>  <r_i_glide_esite>  (181) 
-0.0474051

>  <r_i_glide_emodel>  (181) 
-10.8648

>  <r_i_glide_energy>  (181) 
-8.12305

>  <r_i_glide_einternal>  (181) 
0

>  <r_i_glide_intrahb_reward>  (181) 
-0

>  <i_i_glide_confnum>  (181) 
1

>  <i_i_glide_posenum>  (181) 
6

>  <r_i_glide_eff_state_penalty>  (181) 
0

>  <ligand_id>  (181) 
64

>  <original_smiles>  (181) 
CC1(C)C2C3=NCC1(C)C2C3

>  <smiles>  (181) 
[H]N1C2=C3C([H])(C2([H])[H])C(C([H])([H])[H])(C1([H])[H])C3(C([H])([H])[H])C([H])([H])[H]

$$$$
64:0:1
     RDKit          3D

 26 28  0  0  1  0  0  0  0  0999 V2000
    3.4435   -2.7785    0.3831 C   0  0  0  0  0  0  0  0  0  0  0  0
    4.2901   -3.3668   -0.7518 C   0  0  0  0  0  0  0  0  0  0  0  0
    4.7152   -4.7812   -0.3298 C   0  0  0  0  0  0  0  0  0  0  0  0
    3.5567   -3.3751   -2.1113 C   0  0  0  0  0  0  0  0  0  0  0  0
    3.1026   -2.3165   -2.8156 C   0  0  0  0  0  0  0  0  0  0  0  0
    3.4479   -1.0611   -2.3195 N   0  0  0  0  0  0  0  0  0  0  0  0
    4.7753   -1.0169   -1.6849 C   0  0  0  0  0  0  0  0  0  0  0  0
    5.2790   -2.4759   -1.5552 C   0  0  1  0  0  0  0  0  0  0  0  0
    6.7116   -2.5203   -1.0834 C   0  0  0  0  0  0  0  0  0  0  0  0
    4.8821   -3.2988   -2.8333 C   0  0  2  0  0  0  0  0  0  0  0  0
    4.0195   -2.7143   -3.9670 C   0  0  0  0  0  0  0  0  0  0  0  0
    4.0748   -2.5321    1.2321 H   0  0  0  0  0  0  0  0  0  0  0  0
    2.6899   -3.4797    0.7340 H   0  0  0  0  0  0  0  0  0  0  0  0
    2.9166   -1.8669    0.0996 H   0  0  0  0  0  0  0  0  0  0  0  0
    5.3836   -4.7308    0.5299 H   0  0  0  0  0  0  0  0  0  0  0  0
    5.2443   -5.3253   -1.1064 H   0  0  0  0  0  0  0  0  0  0  0  0
    3.8643   -5.3951   -0.0288 H   0  0  0  0  0  0  0  0  0  0  0  0
    4.7035   -0.5221   -0.7139 H   0  0  0  0  0  0  0  0  0  0  0  0
    5.4380   -0.4197   -2.3089 H   0  0  0  0  0  0  0  0  0  0  0  0
    7.3808   -1.9751   -1.7402 H   0  0  0  0  0  0  0  0  0  0  0  0
    7.0752   -3.5473   -1.0807 H   0  0  0  0  0  0  0  0  0  0  0  0
    6.8181   -2.1479   -0.0623 H   0  0  0  0  0  0  0  0  0  0  0  0
    5.3837   -4.2424   -3.0147 H   0  0  0  0  0  0  0  0  0  0  0  0
    4.5248   -1.8944   -4.4774 H   0  0  0  0  0  0  0  0  0  0  0  0
    3.6557   -3.4601   -4.6781 H   0  0  0  0  0  0  0  0  0  0  0  0
    2.7049   -0.6598   -1.7607 H   0  0  0  0  0  0  0  0  0  0  0  0
  1  2  1  0
  1 12  1  0
  1 13  1  0
  1 14  1  0
  2  8  1  0
  2  3  1  0
  2  4  1  0
  3 15  1  0
  3 16  1  0
  3 17  1  0
  4 10  1  0
  4  5  2  0
  5 11  1  0
  5  6  1  0
  6  7  1  0
  6 26  1  0
  7  8  1  0
  7 18  1  0
  7 19  1  0
  8  9  1  1
  8 10  1  0
  9 20  1  0
  9 21  1  0
  9 22  1  0
 10 11  1  0
 10 23  1  6
 11 24  1  0
 11 25  1  0
M  END
>  <i_m_ct_stereo_status>  (182) 
1

>  <s_m_source_file>  (182) 
/var/tmp/pbs.5076255.sched01/tmpbnv9a_8s/88lo2bg1ru.sdf

>  <i_m_source_file_index>  (182) 
4

>  <i_lp_mmshare_version>  (182) 
48012

>  <i_f3d_flags>  (182) 
0

>  <s_epik_input>  (182) 
W0NIM11bQ0BAXTEyW0NASF0zW0NAQEhdKEMxKFtDSDNdKVtDSDNdKUMoW0NIMl0zKT1OW0NIMl0y

>  <s_epik_cmdline>  (182) 
J2VwaWtfcHl0aG9uJywgJy1waHQnLCAnMi4wJywgJy1waCcsICc3LjAnLCAnLXRuJywgJzgnLCAnLW1hJywgJzIwMCcsICctaW1hZScsICc8aW5maWxlLm1hZT4nLCAnLW9tYWUnLCAnPG91dGZpbGUubWFlPic=

>  <r_lp_tautomer_probability>  (182) 
1

>  <r_epik_Ionization_Penalty>  (182) 
0.0574103

>  <r_epik_Ionization_Penalty_Charging>  (182) 
4.3807e-07

>  <r_epik_Ionization_Penalty_Neutral>  (182) 
0.0574099

>  <r_epik_State_Penalty>  (182) 
-0

>  <r_epik_Charging_Adjusted_Penalty>  (182) 
4.3807e-07

>  <i_epik_Tot_Q>  (182) 
0

>  <i_epik_Tot_abs_Q>  (182) 
0

>  <s_epik_Chemistry_Notes>  (182) 
This compound has an imine and may undergo hydrolysis.

>  <s_lp_Force_Field>  (182) 
OPLS3e

>  <r_lp_Energy>  (182) 
74.6984

>  <b_lp_Chiralities_Consistent>  (182) 
1

>  <s_lp_Variant>  (182) 
64:0-1

>  <s_i_glide_gridfile>  (182) 
pfpi4k_grid

>  <i_i_glide_lignum>  (182) 
4

>  <i_i_glide_rotatable_bonds>  (182) 
0

>  <r_i_docking_score>  (182) 
-3.30205

>  <r_i_glide_ligand_efficiency>  (182) 
-0.300186

>  <r_i_glide_ligand_efficiency_sa>  (182) 
-0.667608

>  <r_i_glide_ligand_efficiency_ln>  (182) 
-0.971792

>  <r_i_glide_gscore>  (182) 
-3.30205

>  <r_i_glide_lipo>  (182) 
-0.220887

>  <r_i_glide_hbond>  (182) 
-0.0854838

>  <r_i_glide_metal>  (182) 
-0

>  <r_i_glide_rewards>  (182) 
-2.25

>  <r_i_glide_evdw>  (182) 
-15.2126

>  <r_i_glide_ecoul>  (182) 
0.476014

>  <r_i_glide_erotb>  (182) 
0

>  <r_i_glide_esite>  (182) 
-0.0564456

>  <r_i_glide_emodel>  (182) 
-17.3606

>  <r_i_glide_energy>  (182) 
-14.7366

>  <r_i_glide_einternal>  (182) 
0

>  <r_i_glide_intrahb_reward>  (182) 
-0

>  <i_i_glide_confnum>  (182) 
2

>  <i_i_glide_posenum>  (182) 
10

>  <r_i_glide_eff_state_penalty>  (182) 
0

>  <ligand_id>  (182) 
64

>  <original_smiles>  (182) 
CC1(C)C2C3=NCC1(C)C2C3

>  <smiles>  (182) 
[H]N1C2=C3C([H])(C2([H])[H])C(C([H])([H])[H])(C1([H])[H])C3(C([H])([H])[H])C([H])([H])[H]

$$$$
64:0:2
     RDKit          3D

 26 28  0  0  1  0  0  0  0  0999 V2000
    2.0927   -3.5318   -1.3983 C   0  0  0  0  0  0  0  0  0  0  0  0
    2.9196   -2.9336   -2.5509 C   0  0  0  0  0  0  0  0  0  0  0  0
    2.1680   -3.1243   -3.8601 C   0  0  0  0  0  0  0  0  0  0  0  0
    3.2083   -1.4543   -2.3033 C   0  0  0  0  0  0  0  0  0  0  0  0
    3.9442   -0.9457   -1.2866 C   0  0  0  0  0  0  0  0  0  0  0  0
    4.6421   -1.8286   -0.4717 N   0  0  0  0  0  0  0  0  0  0  0  0
    5.1178   -3.0286   -1.1684 C   0  0  0  0  0  0  0  0  0  0  0  0
    4.4877   -3.0014   -2.5861 C   0  0  1  0  0  0  0  0  0  0  0  0
    5.0903   -4.0623   -3.4352 C   0  0  0  0  0  0  0  0  0  0  0  0
    4.4269   -1.5449   -3.1645 C   0  0  2  0  0  0  0  0  0  0  0  0
    4.8433   -0.3314   -2.3334 C   0  0  0  0  0  0  0  0  0  0  0  0
    2.0827   -4.6122   -1.3961 H   0  0  0  0  0  0  0  0  0  0  0  0
    1.0690   -3.1923   -1.4880 H   0  0  0  0  0  0  0  0  0  0  0  0
    2.4500   -3.2091   -0.4248 H   0  0  0  0  0  0  0  0  0  0  0  0
    2.1401   -4.1720   -4.1232 H   0  0  0  0  0  0  0  0  0  0  0  0
    2.6391   -2.6012   -4.7036 H   0  0  0  0  0  0  0  0  0  0  0  0
    1.1648   -2.7298   -3.7758 H   0  0  0  0  0  0  0  0  0  0  0  0
    4.8144   -3.9105   -0.6133 H   0  0  0  0  0  0  0  0  0  0  0  0
    6.2059   -3.0288   -1.2143 H   0  0  0  0  0  0  0  0  0  0  0  0
    6.1613   -3.9029   -3.4785 H   0  0  0  0  0  0  0  0  0  0  0  0
    4.7162   -4.0052   -4.4478 H   0  0  0  0  0  0  0  0  0  0  0  0
    4.8830   -5.0518   -3.0511 H   0  0  0  0  0  0  0  0  0  0  0  0
    4.3071   -1.4122   -4.2348 H   0  0  0  0  0  0  0  0  0  0  0  0
    5.8877   -0.3412   -2.0811 H   0  0  0  0  0  0  0  0  0  0  0  0
    4.5415    0.5950   -2.7975 H   0  0  0  0  0  0  0  0  0  0  0  0
    4.1527   -2.0368    0.3864 H   0  0  0  0  0  0  0  0  0  0  0  0
  1  2  1  0
  1 12  1  0
  1 13  1  0
  1 14  1  0
  2  8  1  0
  2  3  1  0
  2  4  1  0
  3 15  1  0
  3 16  1  0
  3 17  1  0
  4 10  1  0
  4  5  2  0
  5 11  1  0
  5  6  1  0
  6  7  1  0
  6 26  1  0
  7  8  1  0
  7 18  1  0
  7 19  1  0
  8  9  1  6
  8 10  1  0
  9 20  1  0
  9 21  1  0
  9 22  1  0
 10 11  1  0
 10 23  1  6
 11 24  1  0
 11 25  1  0
M  END
>  <i_m_ct_stereo_status>  (183) 
1

>  <s_m_source_file>  (183) 
/var/tmp/pbs.5076255.sched01/tmpbnv9a_8s/88lo2bg1ru.sdf

>  <i_m_source_file_index>  (183) 
4

>  <i_lp_mmshare_version>  (183) 
48012

>  <i_f3d_flags>  (183) 
0

>  <s_epik_input>  (183) 
W0NIM11bQ0BAXTEyW0NASF0zW0NAQEhdKEMxKFtDSDNdKVtDSDNdKUMoW0NIMl0zKT1OW0NIMl0y

>  <s_epik_cmdline>  (183) 
J2VwaWtfcHl0aG9uJywgJy1waHQnLCAnMi4wJywgJy1waCcsICc3LjAnLCAnLXRuJywgJzgnLCAnLW1hJywgJzIwMCcsICctaW1hZScsICc8aW5maWxlLm1hZT4nLCAnLW9tYWUnLCAnPG91dGZpbGUubWFlPic=

>  <r_lp_tautomer_probability>  (183) 
1

>  <r_epik_Ionization_Penalty>  (183) 
0.0574103

>  <r_epik_Ionization_Penalty_Charging>  (183) 
4.3807e-07

>  <r_epik_Ionization_Penalty_Neutral>  (183) 
0.0574099

>  <r_epik_State_Penalty>  (183) 
-0

>  <r_epik_Charging_Adjusted_Penalty>  (183) 
4.3807e-07

>  <i_epik_Tot_Q>  (183) 
0

>  <i_epik_Tot_abs_Q>  (183) 
0

>  <s_epik_Chemistry_Notes>  (183) 
This compound has an imine and may undergo hydrolysis.

>  <s_lp_Force_Field>  (183) 
OPLS3e

>  <r_lp_Energy>  (183) 
74.6984

>  <b_lp_Chiralities_Consistent>  (183) 
1

>  <s_lp_Variant>  (183) 
64:0-1

>  <s_i_glide_gridfile>  (183) 
pfpi4k_grid

>  <i_i_glide_lignum>  (183) 
4

>  <i_i_glide_rotatable_bonds>  (183) 
0

>  <r_i_docking_score>  (183) 
-3.10844

>  <r_i_glide_ligand_efficiency>  (183) 
-0.282585

>  <r_i_glide_ligand_efficiency_sa>  (183) 
-0.628464

>  <r_i_glide_ligand_efficiency_ln>  (183) 
-0.914812

>  <r_i_glide_gscore>  (183) 
-3.10844

>  <r_i_glide_lipo>  (183) 
-0.312925

>  <r_i_glide_hbond>  (183) 
0

>  <r_i_glide_metal>  (183) 
-0

>  <r_i_glide_rewards>  (183) 
-2.25

>  <r_i_glide_evdw>  (183) 
-11.0483

>  <r_i_glide_ecoul>  (183) 
0.206013

>  <r_i_glide_erotb>  (183) 
0

>  <r_i_glide_esite>  (183) 
-0.0239997

>  <r_i_glide_emodel>  (183) 
-13.2246

>  <r_i_glide_energy>  (183) 
-10.8423

>  <r_i_glide_einternal>  (183) 
0

>  <r_i_glide_intrahb_reward>  (183) 
-0

>  <i_i_glide_confnum>  (183) 
2

>  <i_i_glide_posenum>  (183) 
24

>  <r_i_glide_eff_state_penalty>  (183) 
0

>  <ligand_id>  (183) 
64

>  <original_smiles>  (183) 
CC1(C)C2C3=NCC1(C)C2C3

>  <smiles>  (183) 
[H]N1C2=C3C([H])(C2([H])[H])C(C([H])([H])[H])(C1([H])[H])C3(C([H])([H])[H])C([H])([H])[H]

$$$$
65:0:0
     RDKit          3D

 69 73  0  0  1  0  0  0  0  0999 V2000
    4.9168   -8.7308    1.9024 C   0  0  0  0  0  0  0  0  0  0  0  0
    3.9710   -7.5647    2.3322 C   0  0  2  0  0  0  0  0  0  0  0  0
    2.5354   -7.9677    1.9265 C   0  0  0  0  0  0  0  0  0  0  0  0
    1.4061   -6.9717    2.2507 C   0  0  0  0  0  0  0  0  0  0  0  0
    0.0488   -7.5794    1.9264 C   0  0  2  0  0  0  0  0  0  0  0  0
   -1.0615   -7.0474    2.6529 O   0  0  0  0  0  0  0  0  0  0  0  0
   -0.7581   -8.4255    2.8574 C   0  0  0  0  0  0  0  0  0  0  0  0
   -1.7729   -9.4158    2.3245 C   0  0  0  0  0  0  0  0  0  0  0  0
   -0.2323   -8.8041    4.2259 C   0  0  0  0  0  0  0  0  0  0  0  0
    4.3756   -6.1311    1.8224 C   0  0  2  0  0  0  0  0  0  0  0  0
    4.9652   -6.0973    0.3978 C   0  0  0  0  0  0  0  0  0  0  0  0
    6.0599   -5.0100    0.4354 C   0  0  0  0  0  0  0  0  0  0  0  0
    5.8512   -4.1546    1.7081 C   0  0  1  0  0  0  0  0  0  0  0  0
    4.8796   -2.9626    1.4488 C   0  0  2  0  0  0  0  0  0  0  0  0
    5.3795   -1.7557    0.5399 C   0  0  1  0  0  0  0  0  0  0  0  0
    6.0013   -2.0854   -0.6797 O   0  0  0  0  0  0  0  0  0  0  0  0
    4.2304   -0.7378    0.1999 C   0  0  0  0  0  0  0  0  0  0  0  0
    3.1088   -0.9885    1.1864 C   0  0  2  0  0  0  0  0  0  0  0  0
    2.0967   -0.0262    1.5843 N   0  0  0  0  0  0  0  0  0  0  0  0
    2.1060   -0.7432    2.8826 C   0  0  0  0  0  0  0  0  0  0  0  0
    3.5942   -1.0368    2.6149 C   0  0  2  0  0  0  0  0  0  0  0  0
    4.4941    0.1146    3.1328 C   0  0  0  0  0  0  0  0  0  0  0  0
    4.3487   -2.3714    2.8148 C   0  0  1  0  0  0  0  0  0  0  0  0
    3.5878   -3.4450    3.6005 C   0  0  0  0  0  0  0  0  0  0  0  0
    4.5606   -4.5888    3.9380 C   0  0  0  0  0  0  0  0  0  0  0  0
    5.3056   -5.2262    2.7214 C   0  0  1  0  0  0  0  0  0  0  0  0
    6.4807   -6.0502    3.3203 C   0  0  0  0  0  0  0  0  0  0  0  0
    4.8121   -8.9143    0.8226 H   0  0  0  0  0  0  0  0  0  0  0  0
    4.6856   -9.6508    2.4413 H   0  0  0  0  0  0  0  0  0  0  0  0
    5.9677   -8.5213    2.0703 H   0  0  0  0  0  0  0  0  0  0  0  0
    3.9729   -7.5370    3.4192 H   0  0  0  0  0  0  0  0  0  0  0  0
    2.5248   -8.2296    0.8860 H   0  0  0  0  0  0  0  0  0  0  0  0
    2.3239   -8.9179    2.4231 H   0  0  0  0  0  0  0  0  0  0  0  0
    1.4494   -6.7042    3.3130 H   0  0  0  0  0  0  0  0  0  0  0  0
    1.4897   -6.0563    1.6606 H   0  0  0  0  0  0  0  0  0  0  0  0
   -0.1374   -7.6905    0.8500 H   0  0  0  0  0  0  0  0  0  0  0  0
   -1.2602  -10.3462    2.0910 H   0  0  0  0  0  0  0  0  0  0  0  0
   -2.1994   -9.0557    1.3915 H   0  0  0  0  0  0  0  0  0  0  0  0
   -2.5836   -9.5668    3.0418 H   0  0  0  0  0  0  0  0  0  0  0  0
    0.4766   -9.6223    4.1136 H   0  0  0  0  0  0  0  0  0  0  0  0
   -1.0420   -9.1236    4.8698 H   0  0  0  0  0  0  0  0  0  0  0  0
    0.2716   -7.9424    4.6752 H   0  0  0  0  0  0  0  0  0  0  0  0
    3.4555   -5.5536    1.7806 H   0  0  0  0  0  0  0  0  0  0  0  0
    5.3748   -7.0512    0.0808 H   0  0  0  0  0  0  0  0  0  0  0  0
    4.1788   -5.8000   -0.3048 H   0  0  0  0  0  0  0  0  0  0  0  0
    7.0086   -5.5060    0.5586 H   0  0  0  0  0  0  0  0  0  0  0  0
    6.1222   -4.4369   -0.4922 H   0  0  0  0  0  0  0  0  0  0  0  0
    6.7998   -3.7351    2.0523 H   0  0  0  0  0  0  0  0  0  0  0  0
    4.0326   -3.4117    0.9289 H   0  0  0  0  0  0  0  0  0  0  0  0
    6.1478   -1.2434    1.1149 H   0  0  0  0  0  0  0  0  0  0  0  0
    5.4332   -2.6805   -1.1475 H   0  0  0  0  0  0  0  0  0  0  0  0
    4.6037    0.2809    0.2747 H   0  0  0  0  0  0  0  0  0  0  0  0
    3.8657   -0.8558   -0.8226 H   0  0  0  0  0  0  0  0  0  0  0  0
    2.5507   -1.8971    0.9039 H   0  0  0  0  0  0  0  0  0  0  0  0
    2.4818    0.9250    1.6442 H   0  0  0  0  0  0  0  0  0  0  0  0
    1.9176   -0.0665    3.7164 H   0  0  0  0  0  0  0  0  0  0  0  0
    1.4500   -1.6230    2.8834 H   0  0  0  0  0  0  0  0  0  0  0  0
    4.6054    0.0587    4.2174 H   0  0  0  0  0  0  0  0  0  0  0  0
    4.0604    1.0902    2.8996 H   0  0  0  0  0  0  0  0  0  0  0  0
    5.4888    0.0808    2.6901 H   0  0  0  0  0  0  0  0  0  0  0  0
    5.2332   -2.1413    3.4095 H   0  0  0  0  0  0  0  0  0  0  0  0
    3.1802   -3.0084    4.5148 H   0  0  0  0  0  0  0  0  0  0  0  0
    2.7358   -3.8059    3.0225 H   0  0  0  0  0  0  0  0  0  0  0  0
    5.2997   -4.1810    4.6266 H   0  0  0  0  0  0  0  0  0  0  0  0
    4.0236   -5.3583    4.4935 H   0  0  0  0  0  0  0  0  0  0  0  0
    7.2102   -5.4209    3.8334 H   0  0  0  0  0  0  0  0  0  0  0  0
    7.0050   -6.6174    2.5537 H   0  0  0  0  0  0  0  0  0  0  0  0
    6.1141   -6.7616    4.0616 H   0  0  0  0  0  0  0  0  0  0  0  0
    1.2844   -0.1063    0.9833 H   0  0  0  0  0  0  0  0  0  0  0  0
  1  2  1  0
  1 28  1  0
  1 29  1  0
  1 30  1  0
  2  3  1  0
  2 10  1  0
  2 31  1  1
  3  4  1  0
  3 32  1  0
  3 33  1  0
  4  5  1  0
  4 34  1  0
  4 35  1  0
  5  7  1  0
  5  6  1  0
  5 36  1  6
  6  7  1  0
  7  8  1  0
  7  9  1  0
  8 37  1  0
  8 38  1  0
  8 39  1  0
  9 40  1  0
  9 41  1  0
  9 42  1  0
 10 26  1  0
 10 11  1  0
 10 43  1  6
 11 12  1  0
 11 44  1  0
 11 45  1  0
 12 13  1  0
 12 46  1  0
 12 47  1  0
 13 26  1  0
 13 14  1  0
 13 48  1  1
 14 23  1  0
 14 15  1  0
 14 49  1  6
 15 16  1  0
 15 17  1  0
 15 50  1  1
 16 51  1  0
 17 18  1  0
 17 52  1  0
 17 53  1  0
 18 21  1  0
 18 19  1  0
 18 54  1  6
 19 20  1  0
 19 55  1  0
 19 69  1  0
 20 21  1  0
 20 56  1  0
 20 57  1  0
 21 22  1  6
 21 23  1  0
 22 58  1  0
 22 59  1  0
 22 60  1  0
 23 24  1  0
 23 61  1  1
 24 25  1  0
 24 62  1  0
 24 63  1  0
 25 26  1  0
 25 64  1  0
 25 65  1  0
 26 27  1  1
 27 66  1  0
 27 67  1  0
 27 68  1  0
M  CHG  1  19   1
M  END
>  <i_m_ct_stereo_status>  (184) 
1

>  <s_m_source_file>  (184) 
/var/tmp/pbs.5076255.sched01/tmpbnv9a_8s/88lo2bg1ru.sdf

>  <i_m_source_file_index>  (184) 
5

>  <i_lp_mmshare_version>  (184) 
48012

>  <i_f3d_flags>  (184) 
0

>  <s_epik_input>  (184) 
W0NIM11DMShbQ0gzXSlbQ0BASF0oTzEpW0NIMl1bQ0gyXVtDQEBIXShbQ0gzXSlbQ0BIXShbQ0gyXVtDSDJdMilbQ0BdKFtDSDNdKShbQ0gyXVtDSDJdW0NAQEhdMzQpW0NAQEhdMltDQEBIXTNbQ0BASF0oW09IXSlbQ0gyXVtDQEhdKFtOSF1bQ0gyXTUpW0NAXTQ1W0NIM10=

>  <s_epik_cmdline>  (184) 
J2VwaWtfcHl0aG9uJywgJy1waHQnLCAnMi4wJywgJy1waCcsICc3LjAnLCAnLXRuJywgJzgnLCAnLW1hJywgJzIwMCcsICctaW1hZScsICc8aW5maWxlLm1hZT4nLCAnLW9tYWUnLCAnPG91dGZpbGUubWFlPic=

>  <r_lp_tautomer_probability>  (184) 
1

>  <r_epik_Ionization_Penalty>  (184) 
3.70131e-05

>  <r_epik_Ionization_Penalty_Charging>  (184) 
3.68708e-05

>  <r_epik_Ionization_Penalty_Neutral>  (184) 
1.42313e-07

>  <r_epik_State_Penalty>  (184) 
-0

>  <r_epik_Charging_Adjusted_Penalty>  (184) 
3.68708e-05

>  <i_epik_Tot_Q>  (184) 
1

>  <i_epik_Tot_abs_Q>  (184) 
1

>  <s_lp_Force_Field>  (184) 
OPLS3e

>  <r_lp_Energy>  (184) 
79.7464

>  <b_lp_Chiralities_Consistent>  (184) 
1

>  <s_lp_Variant>  (184) 
65:0-1

>  <s_i_glide_gridfile>  (184) 
pfpi4k_grid

>  <i_i_glide_lignum>  (184) 
5

>  <i_i_glide_rotatable_bonds>  (184) 
5

>  <r_i_docking_score>  (184) 
-3.90148

>  <r_i_glide_ligand_efficiency>  (184) 
-0.144499

>  <r_i_glide_ligand_efficiency_sa>  (184) 
-0.433497

>  <r_i_glide_ligand_efficiency_ln>  (184) 
-0.9082

>  <r_i_glide_gscore>  (184) 
-3.90148

>  <r_i_glide_lipo>  (184) 
-0.854814

>  <r_i_glide_hbond>  (184) 
-0.324457

>  <r_i_glide_metal>  (184) 
-0

>  <r_i_glide_rewards>  (184) 
-0.841392

>  <r_i_glide_evdw>  (184) 
-21.5154

>  <r_i_glide_ecoul>  (184) 
-8.51459

>  <r_i_glide_erotb>  (184) 
0.54601

>  <r_i_glide_esite>  (184) 
-0.0738658

>  <r_i_glide_emodel>  (184) 
-34.8753

>  <r_i_glide_energy>  (184) 
-30.03

>  <r_i_glide_einternal>  (184) 
8.55229

>  <r_i_glide_intrahb_reward>  (184) 
-0

>  <i_i_glide_confnum>  (184) 
2

>  <i_i_glide_posenum>  (184) 
27

>  <r_i_glide_eff_state_penalty>  (184) 
0

>  <ligand_id>  (184) 
65

>  <original_smiles>  (184) 
CC(CCC1OC1(C)C)C1CCC2C3C(O)CC4NCC4(C)C3CCC12C

>  <smiles>  (184) 
[H]OC1([H])C([H])([H])C2([H])C(C([H])([H])[H])(C3([H])C([H])([H])C([H])([H])C4(C([H])([H])[H])C([H])(C([H])(C([H])([H])[H])C([H])([H])C([H])([H])C5([H])OC5(C([H])([H])[H])C([H])([H])[H])C([H])([H])C([H])([H])C4([H])C13[H])C([H])([H])[N+]2([H])[H]

$$$$
65:0:1
     RDKit          3D

 69 73  0  0  1  0  0  0  0  0999 V2000
    4.8726   -8.4911    1.0606 C   0  0  0  0  0  0  0  0  0  0  0  0
    3.9970   -7.4267    1.7598 C   0  0  2  0  0  0  0  0  0  0  0  0
    2.5129   -7.7743    1.4702 C   0  0  0  0  0  0  0  0  0  0  0  0
    1.6507   -7.8077    2.7309 C   0  0  0  0  0  0  0  0  0  0  0  0
    0.1661   -7.9446    2.4313 C   0  0  2  0  0  0  0  0  0  0  0  0
   -0.5501   -6.7223    2.2206 O   0  0  0  0  0  0  0  0  0  0  0  0
   -0.9026   -7.4943    3.3777 C   0  0  0  0  0  0  0  0  0  0  0  0
   -2.2553   -8.1706    3.3674 C   0  0  0  0  0  0  0  0  0  0  0  0
   -0.5866   -6.8484    4.7131 C   0  0  0  0  0  0  0  0  0  0  0  0
    4.3502   -5.9202    1.4125 C   0  0  2  0  0  0  0  0  0  0  0  0
    4.9095   -5.6845   -0.0065 C   0  0  0  0  0  0  0  0  0  0  0  0
    6.0071   -4.6183    0.1267 C   0  0  0  0  0  0  0  0  0  0  0  0
    5.8054   -3.9046    1.4789 C   0  0  1  0  0  0  0  0  0  0  0  0
    4.8228   -2.7022    1.3371 C   0  0  2  0  0  0  0  0  0  0  0  0
    5.3068   -1.4139    0.5459 C   0  0  1  0  0  0  0  0  0  0  0  0
    5.9107   -1.6229   -0.7079 O   0  0  0  0  0  0  0  0  0  0  0  0
    4.1462   -0.3945    0.3068 C   0  0  0  0  0  0  0  0  0  0  0  0
    3.0231   -0.7549    1.2655 C   0  0  2  0  0  0  0  0  0  0  0  0
    1.9932    0.1515    1.7582 N   0  0  0  0  0  0  0  0  0  0  0  0
    2.0332   -0.6879    2.9914 C   0  0  0  0  0  0  0  0  0  0  0  0
    3.5161   -0.9219    2.6890 C   0  0  2  0  0  0  0  0  0  0  0  0
    4.4059    0.1832    3.3025 C   0  0  0  0  0  0  0  0  0  0  0  0
    4.2969   -2.2593    2.7551 C   0  0  1  0  0  0  0  0  0  0  0  0
    3.5638   -3.4186    3.4382 C   0  0  0  0  0  0  0  0  0  0  0  0
    4.5523   -4.5771    3.6534 C   0  0  0  0  0  0  0  0  0  0  0  0
    5.2775   -5.0855    2.3740 C   0  0  1  0  0  0  0  0  0  0  0  0
    6.4658   -5.9542    2.8544 C   0  0  0  0  0  0  0  0  0  0  0  0
    4.6278   -8.5249   -0.0072 H   0  0  0  0  0  0  0  0  0  0  0  0
    4.7103   -9.4866    1.4823 H   0  0  0  0  0  0  0  0  0  0  0  0
    5.9375   -8.2895    1.1351 H   0  0  0  0  0  0  0  0  0  0  0  0
    4.1588   -7.5700    2.8223 H   0  0  0  0  0  0  0  0  0  0  0  0
    2.1011   -7.0659    0.7520 H   0  0  0  0  0  0  0  0  0  0  0  0
    2.4309   -8.7584    0.9935 H   0  0  0  0  0  0  0  0  0  0  0  0
    1.9569   -8.6520    3.3539 H   0  0  0  0  0  0  0  0  0  0  0  0
    1.8327   -6.8907    3.2966 H   0  0  0  0  0  0  0  0  0  0  0  0
   -0.0980   -8.7688    1.7585 H   0  0  0  0  0  0  0  0  0  0  0  0
   -2.2650   -8.9985    4.0727 H   0  0  0  0  0  0  0  0  0  0  0  0
   -2.5117   -8.5242    2.3692 H   0  0  0  0  0  0  0  0  0  0  0  0
   -3.0237   -7.4743    3.6580 H   0  0  0  0  0  0  0  0  0  0  0  0
   -0.3103   -7.6267    5.4210 H   0  0  0  0  0  0  0  0  0  0  0  0
   -1.4549   -6.3168    5.1001 H   0  0  0  0  0  0  0  0  0  0  0  0
    0.2440   -6.1493    4.6025 H   0  0  0  0  0  0  0  0  0  0  0  0
    3.3965   -5.3810    1.4490 H   0  0  0  0  0  0  0  0  0  0  0  0
    5.3362   -6.5946   -0.3947 H   0  0  0  0  0  0  0  0  0  0  0  0
    4.1269   -5.3429   -0.6942 H   0  0  0  0  0  0  0  0  0  0  0  0
    6.9633   -5.1169    0.1826 H   0  0  0  0  0  0  0  0  0  0  0  0
    6.0638   -3.9671   -0.7475 H   0  0  0  0  0  0  0  0  0  0  0  0
    6.7475   -3.5171    1.8747 H   0  0  0  0  0  0  0  0  0  0  0  0
    3.9843   -3.1191    0.7782 H   0  0  0  0  0  0  0  0  0  0  0  0
    6.0758   -0.9449    1.1557 H   0  0  0  0  0  0  0  0  0  0  0  0
    5.3375   -2.1709   -1.2268 H   0  0  0  0  0  0  0  0  0  0  0  0
    4.4977    0.6208    0.4824 H   0  0  0  0  0  0  0  0  0  0  0  0
    3.7871   -0.4406   -0.7191 H   0  0  0  0  0  0  0  0  0  0  0  0
    2.4771   -1.6477    0.9125 H   0  0  0  0  0  0  0  0  0  0  0  0
    2.3602    1.0970    1.9096 H   0  0  0  0  0  0  0  0  0  0  0  0
    1.8384   -0.0950    3.8849 H   0  0  0  0  0  0  0  0  0  0  0  0
    1.3945   -1.5772    2.9165 H   0  0  0  0  0  0  0  0  0  0  0  0
    4.5173    0.0401    4.3768 H   0  0  0  0  0  0  0  0  0  0  0  0
    3.9769    1.1774    3.1576 H   0  0  0  0  0  0  0  0  0  0  0  0
    5.4008    0.1890    2.8666 H   0  0  0  0  0  0  0  0  0  0  0  0
    5.1844   -2.0697    3.3570 H   0  0  0  0  0  0  0  0  0  0  0  0
    3.1601   -3.0825    4.3955 H   0  0  0  0  0  0  0  0  0  0  0  0
    2.7183   -3.7383    2.8320 H   0  0  0  0  0  0  0  0  0  0  0  0
    5.3086   -4.2281    4.3574 H   0  0  0  0  0  0  0  0  0  0  0  0
    4.0413   -5.4054    4.1359 H   0  0  0  0  0  0  0  0  0  0  0  0
    7.2125   -5.3578    3.3728 H   0  0  0  0  0  0  0  0  0  0  0  0
    6.9717   -6.4538    2.0304 H   0  0  0  0  0  0  0  0  0  0  0  0
    6.1408   -6.7223    3.5563 H   0  0  0  0  0  0  0  0  0  0  0  0
    1.1566    0.1056    1.1859 H   0  0  0  0  0  0  0  0  0  0  0  0
  1  2  1  0
  1 28  1  0
  1 29  1  0
  1 30  1  0
  2  3  1  0
  2 10  1  0
  2 31  1  1
  3  4  1  0
  3 32  1  0
  3 33  1  0
  4  5  1  0
  4 34  1  0
  4 35  1  0
  5  7  1  0
  5  6  1  0
  5 36  1  6
  6  7  1  0
  7  8  1  0
  7  9  1  0
  8 37  1  0
  8 38  1  0
  8 39  1  0
  9 40  1  0
  9 41  1  0
  9 42  1  0
 10 26  1  0
 10 11  1  0
 10 43  1  6
 11 12  1  0
 11 44  1  0
 11 45  1  0
 12 13  1  0
 12 46  1  0
 12 47  1  0
 13 26  1  0
 13 14  1  0
 13 48  1  1
 14 23  1  0
 14 15  1  0
 14 49  1  6
 15 16  1  0
 15 17  1  0
 15 50  1  1
 16 51  1  0
 17 18  1  0
 17 52  1  0
 17 53  1  0
 18 21  1  0
 18 19  1  0
 18 54  1  6
 19 20  1  0
 19 55  1  0
 19 69  1  0
 20 21  1  0
 20 56  1  0
 20 57  1  0
 21 22  1  1
 21 23  1  0
 22 58  1  0
 22 59  1  0
 22 60  1  0
 23 24  1  0
 23 61  1  1
 24 25  1  0
 24 62  1  0
 24 63  1  0
 25 26  1  0
 25 64  1  0
 25 65  1  0
 26 27  1  1
 27 66  1  0
 27 67  1  0
 27 68  1  0
M  CHG  1  19   1
M  END
>  <i_m_ct_stereo_status>  (185) 
1

>  <s_m_source_file>  (185) 
/var/tmp/pbs.5076255.sched01/tmpbnv9a_8s/88lo2bg1ru.sdf

>  <i_m_source_file_index>  (185) 
5

>  <i_lp_mmshare_version>  (185) 
48012

>  <i_f3d_flags>  (185) 
0

>  <s_epik_input>  (185) 
W0NIM11DMShbQ0gzXSlbQ0BASF0oTzEpW0NIMl1bQ0gyXVtDQEBIXShbQ0gzXSlbQ0BIXShbQ0gyXVtDSDJdMilbQ0BdKFtDSDNdKShbQ0gyXVtDSDJdW0NAQEhdMzQpW0NAQEhdMltDQEBIXTNbQ0BASF0oW09IXSlbQ0gyXVtDQEhdKFtOSF1bQ0gyXTUpW0NAXTQ1W0NIM10=

>  <s_epik_cmdline>  (185) 
J2VwaWtfcHl0aG9uJywgJy1waHQnLCAnMi4wJywgJy1waCcsICc3LjAnLCAnLXRuJywgJzgnLCAnLW1hJywgJzIwMCcsICctaW1hZScsICc8aW5maWxlLm1hZT4nLCAnLW9tYWUnLCAnPG91dGZpbGUubWFlPic=

>  <r_lp_tautomer_probability>  (185) 
1

>  <r_epik_Ionization_Penalty>  (185) 
3.70131e-05

>  <r_epik_Ionization_Penalty_Charging>  (185) 
3.68708e-05

>  <r_epik_Ionization_Penalty_Neutral>  (185) 
1.42313e-07

>  <r_epik_State_Penalty>  (185) 
-0

>  <r_epik_Charging_Adjusted_Penalty>  (185) 
3.68708e-05

>  <i_epik_Tot_Q>  (185) 
1

>  <i_epik_Tot_abs_Q>  (185) 
1

>  <s_lp_Force_Field>  (185) 
OPLS3e

>  <r_lp_Energy>  (185) 
79.7464

>  <b_lp_Chiralities_Consistent>  (185) 
1

>  <s_lp_Variant>  (185) 
65:0-1

>  <s_i_glide_gridfile>  (185) 
pfpi4k_grid

>  <i_i_glide_lignum>  (185) 
5

>  <i_i_glide_rotatable_bonds>  (185) 
5

>  <r_i_docking_score>  (185) 
-3.55653

>  <r_i_glide_ligand_efficiency>  (185) 
-0.131724

>  <r_i_glide_ligand_efficiency_sa>  (185) 
-0.395171

>  <r_i_glide_ligand_efficiency_ln>  (185) 
-0.827903

>  <r_i_glide_gscore>  (185) 
-3.55653

>  <r_i_glide_lipo>  (185) 
-0.560718

>  <r_i_glide_hbond>  (185) 
-0.246756

>  <r_i_glide_metal>  (185) 
-0

>  <r_i_glide_rewards>  (185) 
-0.841392

>  <r_i_glide_evdw>  (185) 
-21.3117

>  <r_i_glide_ecoul>  (185) 
-8.84672

>  <r_i_glide_erotb>  (185) 
0.54601

>  <r_i_glide_esite>  (185) 
-0.0610861

>  <r_i_glide_emodel>  (185) 
-32.6916

>  <r_i_glide_energy>  (185) 
-30.1584

>  <r_i_glide_einternal>  (185) 
11.9507

>  <r_i_glide_intrahb_reward>  (185) 
-0

>  <i_i_glide_confnum>  (185) 
2

>  <i_i_glide_posenum>  (185) 
18

>  <r_i_glide_eff_state_penalty>  (185) 
0

>  <ligand_id>  (185) 
65

>  <original_smiles>  (185) 
CC(CCC1OC1(C)C)C1CCC2C3C(O)CC4NCC4(C)C3CCC12C

>  <smiles>  (185) 
[H]OC1([H])C([H])([H])C2([H])C(C([H])([H])[H])(C3([H])C([H])([H])C([H])([H])C4(C([H])([H])[H])C([H])(C([H])(C([H])([H])[H])C([H])([H])C([H])([H])C5([H])OC5(C([H])([H])[H])C([H])([H])[H])C([H])([H])C([H])([H])C4([H])C13[H])C([H])([H])[N+]2([H])[H]

$$$$
65:0:2
     RDKit          3D

 69 73  0  0  1  0  0  0  0  0999 V2000
    7.7494   -6.0556    1.6838 C   0  0  0  0  0  0  0  0  0  0  0  0
    6.2057   -6.1422    1.5030 C   0  0  2  0  0  0  0  0  0  0  0  0
    5.6188   -4.6992    1.4054 C   0  0  0  0  0  0  0  0  0  0  0  0
    6.1162   -3.9131    0.1741 C   0  0  0  0  0  0  0  0  0  0  0  0
    5.3065   -2.6565   -0.1144 C   0  0  2  0  0  0  0  0  0  0  0  0
    3.9485   -2.8740   -0.5104 O   0  0  0  0  0  0  0  0  0  0  0  0
    4.8118   -2.3027   -1.4968 C   0  0  0  0  0  0  0  0  0  0  0  0
    4.5261   -0.8560   -1.8726 C   0  0  0  0  0  0  0  0  0  0  0  0
    5.0777   -3.1908   -2.7003 C   0  0  0  0  0  0  0  0  0  0  0  0
    5.4437   -7.0151    2.5646 C   0  0  2  0  0  0  0  0  0  0  0  0
    5.7874   -6.6647    4.0253 C   0  0  0  0  0  0  0  0  0  0  0  0
    5.7952   -7.9902    4.7943 C   0  0  0  0  0  0  0  0  0  0  0  0
    5.0602   -9.0425    3.9371 C   0  0  1  0  0  0  0  0  0  0  0  0
    3.5209   -9.0900    4.2142 C   0  0  2  0  0  0  0  0  0  0  0  0
    3.0143   -9.6616    5.6053 C   0  0  1  0  0  0  0  0  0  0  0  0
    3.6603   -9.1433    6.7367 O   0  0  0  0  0  0  0  0  0  0  0  0
    1.4789   -9.4427    5.8355 C   0  0  0  0  0  0  0  0  0  0  0  0
    0.8612   -9.1290    4.4790 C   0  0  2  0  0  0  0  0  0  0  0  0
   -0.5322   -9.3385    4.0698 N   0  0  0  0  0  0  0  0  0  0  0  0
    0.0377   -9.5929    2.7149 C   0  0  0  0  0  0  0  0  0  0  0  0
    1.2829  -10.1371    3.4233 C   0  0  2  0  0  0  0  0  0  0  0  0
    1.1343  -11.6425    3.7551 C   0  0  0  0  0  0  0  0  0  0  0  0
    2.7678   -9.8556    3.0591 C   0  0  1  0  0  0  0  0  0  0  0  0
    3.0051   -9.1451    1.7224 C   0  0  0  0  0  0  0  0  0  0  0  0
    4.5056   -9.1839    1.3941 C   0  0  0  0  0  0  0  0  0  0  0  0
    5.4531   -8.5898    2.4814 C   0  0  1  0  0  0  0  0  0  0  0  0
    6.8662   -9.1368    2.1695 C   0  0  0  0  0  0  0  0  0  0  0  0
    7.9912   -5.4700    2.5764 H   0  0  0  0  0  0  0  0  0  0  0  0
    8.2126   -5.5259    0.8368 H   0  0  0  0  0  0  0  0  0  0  0  0
    8.2338   -7.0295    1.7746 H   0  0  0  0  0  0  0  0  0  0  0  0
    6.0156   -6.6128    0.5394 H   0  0  0  0  0  0  0  0  0  0  0  0
    4.5337   -4.7610    1.3531 H   0  0  0  0  0  0  0  0  0  0  0  0
    5.8370   -4.1490    2.3208 H   0  0  0  0  0  0  0  0  0  0  0  0
    7.1562   -3.6141    0.3144 H   0  0  0  0  0  0  0  0  0  0  0  0
    6.0875   -4.5735   -0.6968 H   0  0  0  0  0  0  0  0  0  0  0  0
    5.4372   -1.8395    0.6036 H   0  0  0  0  0  0  0  0  0  0  0  0
    5.4140   -0.3945   -2.3035 H   0  0  0  0  0  0  0  0  0  0  0  0
    4.2314   -0.2734   -0.9965 H   0  0  0  0  0  0  0  0  0  0  0  0
    3.7211   -0.7986   -2.6057 H   0  0  0  0  0  0  0  0  0  0  0  0
    6.0981   -3.0427   -3.0451 H   0  0  0  0  0  0  0  0  0  0  0  0
    4.3927   -2.9624   -3.5163 H   0  0  0  0  0  0  0  0  0  0  0  0
    4.9507   -4.2388   -2.4253 H   0  0  0  0  0  0  0  0  0  0  0  0
    4.3943   -6.7530    2.4444 H   0  0  0  0  0  0  0  0  0  0  0  0
    6.7639   -6.1868    4.1267 H   0  0  0  0  0  0  0  0  0  0  0  0
    5.0329   -5.9843    4.4343 H   0  0  0  0  0  0  0  0  0  0  0  0
    6.8262   -8.3034    4.9095 H   0  0  0  0  0  0  0  0  0  0  0  0
    5.4133   -7.8560    5.7996 H   0  0  0  0  0  0  0  0  0  0  0  0
    5.4573  -10.0422    4.1299 H   0  0  0  0  0  0  0  0  0  0  0  0
    3.2262   -8.0423    4.1866 H   0  0  0  0  0  0  0  0  0  0  0  0
    3.2309  -10.7265    5.6097 H   0  0  0  0  0  0  0  0  0  0  0  0
    3.4819   -9.7205    7.4688 H   0  0  0  0  0  0  0  0  0  0  0  0
    1.0266  -10.3288    6.2786 H   0  0  0  0  0  0  0  0  0  0  0  0
    1.2828   -8.6222    6.5255 H   0  0  0  0  0  0  0  0  0  0  0  0
    1.0993   -8.0909    4.1879 H   0  0  0  0  0  0  0  0  0  0  0  0
   -0.9912  -10.1637    4.5018 H   0  0  0  0  0  0  0  0  0  0  0  0
   -0.5461  -10.3259    2.1593 H   0  0  0  0  0  0  0  0  0  0  0  0
    0.1895   -8.6647    2.1501 H   0  0  0  0  0  0  0  0  0  0  0  0
    1.2469  -12.2461    2.8568 H   0  0  0  0  0  0  0  0  0  0  0  0
    0.1587  -11.8751    4.1788 H   0  0  0  0  0  0  0  0  0  0  0  0
    1.8692  -11.9864    4.4766 H   0  0  0  0  0  0  0  0  0  0  0  0
    3.2582  -10.8243    2.9688 H   0  0  0  0  0  0  0  0  0  0  0  0
    2.4428   -9.6529    0.9379 H   0  0  0  0  0  0  0  0  0  0  0  0
    2.6358   -8.1190    1.7609 H   0  0  0  0  0  0  0  0  0  0  0  0
    4.7665  -10.2302    1.2633 H   0  0  0  0  0  0  0  0  0  0  0  0
    4.6826   -8.7121    0.4336 H   0  0  0  0  0  0  0  0  0  0  0  0
    6.8883  -10.2258    2.2452 H   0  0  0  0  0  0  0  0  0  0  0  0
    7.6233   -8.7070    2.8225 H   0  0  0  0  0  0  0  0  0  0  0  0
    7.1613   -8.8924    1.1550 H   0  0  0  0  0  0  0  0  0  0  0  0
   -1.0990   -8.5023    4.1397 H   0  0  0  0  0  0  0  0  0  0  0  0
  1  2  1  0
  1 28  1  0
  1 29  1  0
  1 30  1  0
  2  3  1  0
  2 10  1  0
  2 31  1  6
  3  4  1  0
  3 32  1  0
  3 33  1  0
  4  5  1  0
  4 34  1  0
  4 35  1  0
  5  7  1  0
  5  6  1  0
  5 36  1  1
  6  7  1  0
  7  8  1  0
  7  9  1  0
  8 37  1  0
  8 38  1  0
  8 39  1  0
  9 40  1  0
  9 41  1  0
  9 42  1  0
 10 26  1  0
 10 11  1  0
 10 43  1  1
 11 12  1  0
 11 44  1  0
 11 45  1  0
 12 13  1  0
 12 46  1  0
 12 47  1  0
 13 26  1  0
 13 14  1  0
 13 48  1  1
 14 23  1  0
 14 15  1  0
 14 49  1  1
 15 16  1  0
 15 17  1  0
 15 50  1  6
 16 51  1  0
 17 18  1  0
 17 52  1  0
 17 53  1  0
 18 21  1  0
 18 19  1  0
 18 54  1  6
 19 20  1  0
 19 55  1  0
 19 69  1  0
 20 21  1  0
 20 56  1  0
 20 57  1  0
 21 22  1  1
 21 23  1  0
 22 58  1  0
 22 59  1  0
 22 60  1  0
 23 24  1  0
 23 61  1  6
 24 25  1  0
 24 62  1  0
 24 63  1  0
 25 26  1  0
 25 64  1  0
 25 65  1  0
 26 27  1  6
 27 66  1  0
 27 67  1  0
 27 68  1  0
M  CHG  1  19   1
M  END
>  <i_m_ct_stereo_status>  (186) 
1

>  <s_m_source_file>  (186) 
/var/tmp/pbs.5076255.sched01/tmpbnv9a_8s/88lo2bg1ru.sdf

>  <i_m_source_file_index>  (186) 
5

>  <i_lp_mmshare_version>  (186) 
48012

>  <i_f3d_flags>  (186) 
0

>  <s_epik_input>  (186) 
W0NIM11DMShbQ0gzXSlbQ0BASF0oTzEpW0NIMl1bQ0gyXVtDQEBIXShbQ0gzXSlbQ0BIXShbQ0gyXVtDSDJdMilbQ0BdKFtDSDNdKShbQ0gyXVtDSDJdW0NAQEhdMzQpW0NAQEhdMltDQEBIXTNbQ0BASF0oW09IXSlbQ0gyXVtDQEhdKFtOSF1bQ0gyXTUpW0NAXTQ1W0NIM10=

>  <s_epik_cmdline>  (186) 
J2VwaWtfcHl0aG9uJywgJy1waHQnLCAnMi4wJywgJy1waCcsICc3LjAnLCAnLXRuJywgJzgnLCAnLW1hJywgJzIwMCcsICctaW1hZScsICc8aW5maWxlLm1hZT4nLCAnLW9tYWUnLCAnPG91dGZpbGUubWFlPic=

>  <r_lp_tautomer_probability>  (186) 
1

>  <r_epik_Ionization_Penalty>  (186) 
3.70131e-05

>  <r_epik_Ionization_Penalty_Charging>  (186) 
3.68708e-05

>  <r_epik_Ionization_Penalty_Neutral>  (186) 
1.42313e-07

>  <r_epik_State_Penalty>  (186) 
-0

>  <r_epik_Charging_Adjusted_Penalty>  (186) 
3.68708e-05

>  <i_epik_Tot_Q>  (186) 
1

>  <i_epik_Tot_abs_Q>  (186) 
1

>  <s_lp_Force_Field>  (186) 
OPLS3e

>  <r_lp_Energy>  (186) 
79.7464

>  <b_lp_Chiralities_Consistent>  (186) 
1

>  <s_lp_Variant>  (186) 
65:0-1

>  <s_i_glide_gridfile>  (186) 
pfpi4k_grid

>  <i_i_glide_lignum>  (186) 
5

>  <i_i_glide_rotatable_bonds>  (186) 
5

>  <r_i_docking_score>  (186) 
-3.34597

>  <r_i_glide_ligand_efficiency>  (186) 
-0.123925

>  <r_i_glide_ligand_efficiency_sa>  (186) 
-0.371775

>  <r_i_glide_ligand_efficiency_ln>  (186) 
-0.778887

>  <r_i_glide_gscore>  (186) 
-3.34597

>  <r_i_glide_lipo>  (186) 
-0.697279

>  <r_i_glide_hbond>  (186) 
-0.2

>  <r_i_glide_metal>  (186) 
-0

>  <r_i_glide_rewards>  (186) 
-0.841392

>  <r_i_glide_evdw>  (186) 
-23.0039

>  <r_i_glide_ecoul>  (186) 
-6.02077

>  <r_i_glide_erotb>  (186) 
0.54601

>  <r_i_glide_esite>  (186) 
-0.1

>  <r_i_glide_emodel>  (186) 
-33.6996

>  <r_i_glide_energy>  (186) 
-29.0247

>  <r_i_glide_einternal>  (186) 
6.49827

>  <r_i_glide_intrahb_reward>  (186) 
-0

>  <i_i_glide_confnum>  (186) 
2

>  <i_i_glide_posenum>  (186) 
38

>  <r_i_glide_eff_state_penalty>  (186) 
0

>  <ligand_id>  (186) 
65

>  <original_smiles>  (186) 
CC(CCC1OC1(C)C)C1CCC2C3C(O)CC4NCC4(C)C3CCC12C

>  <smiles>  (186) 
[H]OC1([H])C([H])([H])C2([H])C(C([H])([H])[H])(C3([H])C([H])([H])C([H])([H])C4(C([H])([H])[H])C([H])(C([H])(C([H])([H])[H])C([H])([H])C([H])([H])C5([H])OC5(C([H])([H])[H])C([H])([H])[H])C([H])([H])C([H])([H])C4([H])C13[H])C([H])([H])[N+]2([H])[H]

$$$$
66:0:0
     RDKit          3D

 33 35  0  0  1  0  0  0  0  0999 V2000
    3.5394    1.2590    4.3065 C   0  0  0  0  0  0  0  0  0  0  0  0
    2.6509    1.0262    3.1632 N   0  0  0  0  0  0  0  0  0  0  0  0
    1.3914    1.5650    3.0189 C   0  0  0  0  0  0  0  0  0  0  0  0
    0.9016    1.0956    1.8336 C   0  0  0  0  0  0  0  0  0  0  0  0
    1.8689    0.2997    1.2947 N   0  0  0  0  0  0  0  0  0  0  0  0
    2.9389    0.2480    2.0968 C   0  0  0  0  0  0  0  0  0  0  0  0
    4.1924   -0.5534    1.8374 C   0  0  0  0  0  0  0  0  0  0  0  0
    4.2066   -1.2505    0.5477 N   0  0  0  0  0  0  0  0  0  0  0  0
    5.4736   -1.9058    0.2451 C   0  0  0  0  0  0  0  0  0  0  0  0
    5.1354   -2.8225   -0.9399 C   0  0  2  0  0  0  0  0  0  0  0  0
    5.4074   -2.2065   -2.3204 C   0  0  0  0  0  0  0  0  0  0  0  0
    4.1161   -2.7803   -3.4425 S   0  0  0  0  0  0  0  0  0  0  0  0
    2.9241   -2.6350   -2.0955 C   0  0  0  0  0  0  0  0  0  0  0  0
    3.6399   -3.0957   -0.8098 C   0  0  2  0  0  0  0  0  0  0  0  0
    3.2399   -2.3397    0.4514 C   0  0  0  0  0  0  0  0  0  0  0  0
    2.9314    1.6199    5.1412 H   0  0  0  0  0  0  0  0  0  0  0  0
    4.2610    2.0382    4.0422 H   0  0  0  0  0  0  0  0  0  0  0  0
    4.0492    0.3318    4.6004 H   0  0  0  0  0  0  0  0  0  0  0  0
    0.9403    2.2271    3.7490 H   0  0  0  0  0  0  0  0  0  0  0  0
   -0.0399    1.2633    1.3380 H   0  0  0  0  0  0  0  0  0  0  0  0
    5.0149    0.1595    1.8701 H   0  0  0  0  0  0  0  0  0  0  0  0
    4.3042   -1.2495    2.6691 H   0  0  0  0  0  0  0  0  0  0  0  0
    6.2761   -1.2007    0.0270 H   0  0  0  0  0  0  0  0  0  0  0  0
    5.7823   -2.5167    1.0929 H   0  0  0  0  0  0  0  0  0  0  0  0
    5.6753   -3.7646   -0.8545 H   0  0  0  0  0  0  0  0  0  0  0  0
    5.3168   -1.1209   -2.2666 H   0  0  0  0  0  0  0  0  0  0  0  0
    6.3978   -2.4702   -2.6895 H   0  0  0  0  0  0  0  0  0  0  0  0
    2.6518   -1.5815   -2.0265 H   0  0  0  0  0  0  0  0  0  0  0  0
    2.0169   -3.2042   -2.3001 H   0  0  0  0  0  0  0  0  0  0  0  0
    3.4547   -4.1595   -0.6665 H   0  0  0  0  0  0  0  0  0  0  0  0
    3.3106   -2.9883    1.3246 H   0  0  0  0  0  0  0  0  0  0  0  0
    2.2146   -1.9973    0.3799 H   0  0  0  0  0  0  0  0  0  0  0  0
    1.7560   -0.2132    0.4149 H   0  0  0  0  0  0  0  0  0  0  0  0
  1  2  1  0
  1 16  1  0
  1 17  1  0
  1 18  1  0
  2  6  1  0
  2  3  1  0
  3  4  2  0
  3 19  1  0
  4  5  1  0
  4 20  1  0
  5  6  2  0
  5 33  1  0
  6  7  1  0
  7  8  1  0
  7 21  1  0
  7 22  1  0
  8 15  1  0
  8  9  1  0
  9 10  1  0
  9 23  1  0
  9 24  1  0
 10 14  1  0
 10 11  1  0
 10 25  1  1
 11 12  1  0
 11 26  1  0
 11 27  1  0
 12 13  1  0
 13 14  1  0
 13 28  1  0
 13 29  1  0
 14 15  1  0
 14 30  1  1
 15 31  1  0
 15 32  1  0
M  CHG  1   5   1
M  END
>  <i_m_ct_stereo_status>  (187) 
1

>  <s_m_source_file>  (187) 
/var/tmp/pbs.5076255.sched01/tmpbnv9a_8s/88lo2bg1ru.sdf

>  <i_m_source_file_index>  (187) 
6

>  <i_lp_mmshare_version>  (187) 
48012

>  <i_f3d_flags>  (187) 
0

>  <s_epik_input>  (187) 
W0NIM11uMVtjSF1bY0hdbmMxW0NIMl1OKFtDSDJdMilbQ0gyXVtDQEhdKFtDQEhdMjMpW0NIMl1TW0NIMl0z

>  <s_epik_cmdline>  (187) 
J2VwaWtfcHl0aG9uJywgJy1waHQnLCAnMi4wJywgJy1waCcsICc3LjAnLCAnLXRuJywgJzgnLCAnLW1hJywgJzIwMCcsICctaW1hZScsICc8aW5maWxlLm1hZT4nLCAnLW9tYWUnLCAnPG91dGZpbGUubWFlPic=

>  <r_lp_tautomer_probability>  (187) 
1

>  <r_epik_Ionization_Penalty>  (187) 
0.0727146

>  <r_epik_Ionization_Penalty_Charging>  (187) 
0

>  <r_epik_Ionization_Penalty_Neutral>  (187) 
0.0727146

>  <r_epik_State_Penalty>  (187) 
0.167302

>  <r_epik_Charging_Adjusted_Penalty>  (187) 
0.167302

>  <i_epik_Tot_Q>  (187) 
1

>  <i_epik_Tot_abs_Q>  (187) 
1

>  <s_lp_Force_Field>  (187) 
OPLS3e

>  <r_lp_Energy>  (187) 
3.05335

>  <b_lp_Chiralities_Consistent>  (187) 
1

>  <s_lp_Variant>  (187) 
66:0-1

>  <s_i_glide_gridfile>  (187) 
pfpi4k_grid

>  <i_i_glide_lignum>  (187) 
6

>  <i_i_glide_rotatable_bonds>  (187) 
2

>  <r_i_docking_score>  (187) 
-3.73779

>  <r_i_glide_ligand_efficiency>  (187) 
-0.249186

>  <r_i_glide_ligand_efficiency_sa>  (187) 
-0.614546

>  <r_i_glide_ligand_efficiency_ln>  (187) 
-1.00802

>  <r_i_glide_gscore>  (187) 
-3.73779

>  <r_i_glide_lipo>  (187) 
-0.308924

>  <r_i_glide_hbond>  (187) 
-0.197585

>  <r_i_glide_metal>  (187) 
-0

>  <r_i_glide_rewards>  (187) 
-1.91775

>  <r_i_glide_evdw>  (187) 
-19.4198

>  <r_i_glide_ecoul>  (187) 
-6.22971

>  <r_i_glide_erotb>  (187) 
0.67339

>  <r_i_glide_esite>  (187) 
-0.0814801

>  <r_i_glide_emodel>  (187) 
-32.3155

>  <r_i_glide_energy>  (187) 
-25.6495

>  <r_i_glide_einternal>  (187) 
1.00556

>  <r_i_glide_intrahb_reward>  (187) 
-0

>  <i_i_glide_confnum>  (187) 
6

>  <i_i_glide_posenum>  (187) 
34

>  <r_i_glide_eff_state_penalty>  (187) 
0

>  <ligand_id>  (187) 
66

>  <original_smiles>  (187) 
Cn1ccnc1CN1CC2CSCC2C1

>  <smiles>  (187) 
[H]c1c([H])[n+]([H])c(C([H])([H])N2C([H])([H])C3([H])C([H])([H])SC([H])([H])C3([H])C2([H])[H])n1C([H])([H])[H]

$$$$
66:0:1
     RDKit          3D

 33 35  0  0  1  0  0  0  0  0999 V2000
    0.3264   -0.4896    2.1550 C   0  0  0  0  0  0  0  0  0  0  0  0
    1.2321    0.5940    2.4805 N   0  0  0  0  0  0  0  0  0  0  0  0
    0.8823    1.9189    2.4858 C   0  0  0  0  0  0  0  0  0  0  0  0
    2.0122    2.6138    2.8202 C   0  0  0  0  0  0  0  0  0  0  0  0
    2.9951    1.6839    3.0042 N   0  0  0  0  0  0  0  0  0  0  0  0
    2.5289    0.4510    2.7975 C   0  0  0  0  0  0  0  0  0  0  0  0
    3.3403   -0.8163    2.8784 C   0  0  0  0  0  0  0  0  0  0  0  0
    3.8224   -1.2832    1.5824 N   0  0  0  0  0  0  0  0  0  0  0  0
    4.7704   -0.3665    0.9614 C   0  0  0  0  0  0  0  0  0  0  0  0
    5.3908   -1.1888   -0.1658 C   0  0  2  0  0  0  0  0  0  0  0  0
    4.7002   -1.0139   -1.5277 C   0  0  0  0  0  0  0  0  0  0  0  0
    4.8001   -2.6056   -2.3639 S   0  0  0  0  0  0  0  0  0  0  0  0
    4.4649   -3.4228   -0.7915 C   0  0  0  0  0  0  0  0  0  0  0  0
    5.2407   -2.6451    0.2859 C   0  0  2  0  0  0  0  0  0  0  0  0
    4.5359   -2.5563    1.6448 C   0  0  0  0  0  0  0  0  0  0  0  0
   -0.5084   -0.0467    1.6021 H   0  0  0  0  0  0  0  0  0  0  0  0
   -0.0297   -0.9391    3.0872 H   0  0  0  0  0  0  0  0  0  0  0  0
    0.8407   -1.2353    1.5397 H   0  0  0  0  0  0  0  0  0  0  0  0
   -0.1130    2.2655    2.2290 H   0  0  0  0  0  0  0  0  0  0  0  0
    2.1720    3.6767    2.9074 H   0  0  0  0  0  0  0  0  0  0  0  0
    4.1741   -0.6145    3.5511 H   0  0  0  0  0  0  0  0  0  0  0  0
    2.7069   -1.5717    3.3432 H   0  0  0  0  0  0  0  0  0  0  0  0
    4.2907    0.5455    0.6070 H   0  0  0  0  0  0  0  0  0  0  0  0
    5.5416   -0.0930    1.6820 H   0  0  0  0  0  0  0  0  0  0  0  0
    6.4465   -0.9402   -0.2615 H   0  0  0  0  0  0  0  0  0  0  0  0
    3.6440   -0.7802   -1.3889 H   0  0  0  0  0  0  0  0  0  0  0  0
    5.1465   -0.2252   -2.1298 H   0  0  0  0  0  0  0  0  0  0  0  0
    3.3925   -3.3500   -0.6094 H   0  0  0  0  0  0  0  0  0  0  0  0
    4.7316   -4.4788   -0.8273 H   0  0  0  0  0  0  0  0  0  0  0  0
    6.2251   -3.0982    0.4034 H   0  0  0  0  0  0  0  0  0  0  0  0
    5.2802   -2.5330    2.4424 H   0  0  0  0  0  0  0  0  0  0  0  0
    3.8722   -3.4001    1.8354 H   0  0  0  0  0  0  0  0  0  0  0  0
    3.9742    1.9110    3.2000 H   0  0  0  0  0  0  0  0  0  0  0  0
  1  2  1  0
  1 16  1  0
  1 17  1  0
  1 18  1  0
  2  6  1  0
  2  3  1  0
  3  4  2  0
  3 19  1  0
  4  5  1  0
  4 20  1  0
  5  6  2  0
  5 33  1  0
  6  7  1  0
  7  8  1  0
  7 21  1  0
  7 22  1  0
  8 15  1  0
  8  9  1  0
  9 10  1  0
  9 23  1  0
  9 24  1  0
 10 14  1  0
 10 11  1  0
 10 25  1  6
 11 12  1  0
 11 26  1  0
 11 27  1  0
 12 13  1  0
 13 14  1  0
 13 28  1  0
 13 29  1  0
 14 15  1  0
 14 30  1  1
 15 31  1  0
 15 32  1  0
M  CHG  1   5   1
M  END
>  <i_m_ct_stereo_status>  (188) 
1

>  <s_m_source_file>  (188) 
/var/tmp/pbs.5076255.sched01/tmpbnv9a_8s/88lo2bg1ru.sdf

>  <i_m_source_file_index>  (188) 
6

>  <i_lp_mmshare_version>  (188) 
48012

>  <i_f3d_flags>  (188) 
0

>  <s_epik_input>  (188) 
W0NIM11uMVtjSF1bY0hdbmMxW0NIMl1OKFtDSDJdMilbQ0gyXVtDQEhdKFtDQEhdMjMpW0NIMl1TW0NIMl0z

>  <s_epik_cmdline>  (188) 
J2VwaWtfcHl0aG9uJywgJy1waHQnLCAnMi4wJywgJy1waCcsICc3LjAnLCAnLXRuJywgJzgnLCAnLW1hJywgJzIwMCcsICctaW1hZScsICc8aW5maWxlLm1hZT4nLCAnLW9tYWUnLCAnPG91dGZpbGUubWFlPic=

>  <r_lp_tautomer_probability>  (188) 
1

>  <r_epik_Ionization_Penalty>  (188) 
0.0727146

>  <r_epik_Ionization_Penalty_Charging>  (188) 
0

>  <r_epik_Ionization_Penalty_Neutral>  (188) 
0.0727146

>  <r_epik_State_Penalty>  (188) 
0.167302

>  <r_epik_Charging_Adjusted_Penalty>  (188) 
0.167302

>  <i_epik_Tot_Q>  (188) 
1

>  <i_epik_Tot_abs_Q>  (188) 
1

>  <s_lp_Force_Field>  (188) 
OPLS3e

>  <r_lp_Energy>  (188) 
3.05335

>  <b_lp_Chiralities_Consistent>  (188) 
1

>  <s_lp_Variant>  (188) 
66:0-1

>  <s_i_glide_gridfile>  (188) 
pfpi4k_grid

>  <i_i_glide_lignum>  (188) 
6

>  <i_i_glide_rotatable_bonds>  (188) 
2

>  <r_i_docking_score>  (188) 
-3.15746

>  <r_i_glide_ligand_efficiency>  (188) 
-0.210497

>  <r_i_glide_ligand_efficiency_sa>  (188) 
-0.519131

>  <r_i_glide_ligand_efficiency_ln>  (188) 
-0.851515

>  <r_i_glide_gscore>  (188) 
-3.15746

>  <r_i_glide_lipo>  (188) 
-0.33958

>  <r_i_glide_hbond>  (188) 
0

>  <r_i_glide_metal>  (188) 
-0

>  <r_i_glide_rewards>  (188) 
-1.87945

>  <r_i_glide_evdw>  (188) 
-16.2184

>  <r_i_glide_ecoul>  (188) 
-5.00158

>  <r_i_glide_erotb>  (188) 
0.67339

>  <r_i_glide_esite>  (188) 
-0.0506575

>  <r_i_glide_emodel>  (188) 
-26.5791

>  <r_i_glide_energy>  (188) 
-21.22

>  <r_i_glide_einternal>  (188) 
1.7517

>  <r_i_glide_intrahb_reward>  (188) 
-0

>  <i_i_glide_confnum>  (188) 
6

>  <i_i_glide_posenum>  (188) 
1

>  <r_i_glide_eff_state_penalty>  (188) 
0

>  <ligand_id>  (188) 
66

>  <original_smiles>  (188) 
Cn1ccnc1CN1CC2CSCC2C1

>  <smiles>  (188) 
[H]c1c([H])[n+]([H])c(C([H])([H])N2C([H])([H])C3([H])C([H])([H])SC([H])([H])C3([H])C2([H])[H])n1C([H])([H])[H]

$$$$
66:0:2
     RDKit          3D

 33 35  0  0  1  0  0  0  0  0999 V2000
    4.7299   -6.0195   -0.0546 C   0  0  0  0  0  0  0  0  0  0  0  0
    3.9315   -5.0005    0.6114 N   0  0  0  0  0  0  0  0  0  0  0  0
    2.9074   -5.2241    1.4901 C   0  0  0  0  0  0  0  0  0  0  0  0
    2.4553   -4.0001    1.8869 C   0  0  0  0  0  0  0  0  0  0  0  0
    3.1999   -3.0723    1.2156 N   0  0  0  0  0  0  0  0  0  0  0  0
    4.1130   -3.6708    0.4490 C   0  0  0  0  0  0  0  0  0  0  0  0
    5.0893   -2.9613   -0.4111 C   0  0  0  0  0  0  0  0  0  0  0  0
    4.4624   -2.3212   -1.5564 N   0  0  0  0  0  0  0  0  0  0  0  0
    5.4093   -1.5125   -2.3079 C   0  0  0  0  0  0  0  0  0  0  0  0
    4.6493   -1.2571   -3.6083 C   0  0  2  0  0  0  0  0  0  0  0  0
    3.9654    0.0870   -3.6714 C   0  0  0  0  0  0  0  0  0  0  0  0
    2.6119   -0.2246   -4.7145 S   0  0  0  0  0  0  0  0  0  0  0  0
    2.3374   -1.8494   -3.9141 C   0  0  0  0  0  0  0  0  0  0  0  0
    3.7131   -2.4364   -3.7724 C   0  0  2  0  0  0  0  0  0  0  0  0
    3.9384   -3.2843   -2.5216 C   0  0  0  0  0  0  0  0  0  0  0  0
    4.1708   -6.9551   -0.0280 H   0  0  0  0  0  0  0  0  0  0  0  0
    5.6684   -6.1464    0.4837 H   0  0  0  0  0  0  0  0  0  0  0  0
    4.9067   -5.7498   -1.0943 H   0  0  0  0  0  0  0  0  0  0  0  0
    2.5846   -6.2180    1.7656 H   0  0  0  0  0  0  0  0  0  0  0  0
    1.6561   -3.7316    2.5567 H   0  0  0  0  0  0  0  0  0  0  0  0
    5.5347   -2.1901    0.2192 H   0  0  0  0  0  0  0  0  0  0  0  0
    5.8701   -3.6626   -0.6965 H   0  0  0  0  0  0  0  0  0  0  0  0
    5.6853   -0.5797   -1.8111 H   0  0  0  0  0  0  0  0  0  0  0  0
    6.2922   -2.1166   -2.5142 H   0  0  0  0  0  0  0  0  0  0  0  0
    5.2122   -1.2342   -4.5170 H   0  0  0  0  0  0  0  0  0  0  0  0
    3.5844    0.3640   -2.7103 H   0  0  0  0  0  0  0  0  0  0  0  0
    4.5455    0.9148   -4.0832 H   0  0  0  0  0  0  0  0  0  0  0  0
    1.9391   -1.7682   -2.9107 H   0  0  0  0  0  0  0  0  0  0  0  0
    1.6518   -2.4912   -4.4466 H   0  0  0  0  0  0  0  0  0  0  0  0
    3.9497   -3.0082   -4.6721 H   0  0  0  0  0  0  0  0  0  0  0  0
    4.6996   -4.0325   -2.7588 H   0  0  0  0  0  0  0  0  0  0  0  0
    3.0241   -3.7695   -2.1799 H   0  0  0  0  0  0  0  0  0  0  0  0
    3.0690   -2.0721    1.2483 H   0  0  0  0  0  0  0  0  0  0  0  0
  1  2  1  0
  1 16  1  0
  1 17  1  0
  1 18  1  0
  2  6  1  0
  2  3  1  0
  3  4  2  0
  3 19  1  0
  4  5  1  0
  4 20  1  0
  5  6  2  0
  5 33  1  0
  6  7  1  0
  7  8  1  0
  7 21  1  0
  7 22  1  0
  8 15  1  0
  8  9  1  0
  9 10  1  0
  9 23  1  0
  9 24  1  0
 10 14  1  0
 10 11  1  0
 10 25  1  6
 11 12  1  0
 11 26  1  0
 11 27  1  0
 12 13  1  0
 13 14  1  0
 13 28  1  0
 13 29  1  0
 14 15  1  0
 14 30  1  6
 15 31  1  0
 15 32  1  0
M  CHG  1   5   1
M  END
>  <i_m_ct_stereo_status>  (189) 
1

>  <s_m_source_file>  (189) 
/var/tmp/pbs.5076255.sched01/tmpbnv9a_8s/88lo2bg1ru.sdf

>  <i_m_source_file_index>  (189) 
6

>  <i_lp_mmshare_version>  (189) 
48012

>  <i_f3d_flags>  (189) 
0

>  <s_epik_input>  (189) 
W0NIM11uMVtjSF1bY0hdbmMxW0NIMl1OKFtDSDJdMilbQ0gyXVtDQEhdKFtDQEhdMjMpW0NIMl1TW0NIMl0z

>  <s_epik_cmdline>  (189) 
J2VwaWtfcHl0aG9uJywgJy1waHQnLCAnMi4wJywgJy1waCcsICc3LjAnLCAnLXRuJywgJzgnLCAnLW1hJywgJzIwMCcsICctaW1hZScsICc8aW5maWxlLm1hZT4nLCAnLW9tYWUnLCAnPG91dGZpbGUubWFlPic=

>  <r_lp_tautomer_probability>  (189) 
1

>  <r_epik_Ionization_Penalty>  (189) 
0.0727146

>  <r_epik_Ionization_Penalty_Charging>  (189) 
0

>  <r_epik_Ionization_Penalty_Neutral>  (189) 
0.0727146

>  <r_epik_State_Penalty>  (189) 
0.167302

>  <r_epik_Charging_Adjusted_Penalty>  (189) 
0.167302

>  <i_epik_Tot_Q>  (189) 
1

>  <i_epik_Tot_abs_Q>  (189) 
1

>  <s_lp_Force_Field>  (189) 
OPLS3e

>  <r_lp_Energy>  (189) 
3.05335

>  <b_lp_Chiralities_Consistent>  (189) 
1

>  <s_lp_Variant>  (189) 
66:0-1

>  <s_i_glide_gridfile>  (189) 
pfpi4k_grid

>  <i_i_glide_lignum>  (189) 
6

>  <i_i_glide_rotatable_bonds>  (189) 
2

>  <r_i_docking_score>  (189) 
-2.65712

>  <r_i_glide_ligand_efficiency>  (189) 
-0.177141

>  <r_i_glide_ligand_efficiency_sa>  (189) 
-0.436867

>  <r_i_glide_ligand_efficiency_ln>  (189) 
-0.71658

>  <r_i_glide_gscore>  (189) 
-2.65712

>  <r_i_glide_lipo>  (189) 
-0.575592

>  <r_i_glide_hbond>  (189) 
0

>  <r_i_glide_metal>  (189) 
-0

>  <r_i_glide_rewards>  (189) 
-1.93536

>  <r_i_glide_evdw>  (189) 
-10.4526

>  <r_i_glide_ecoul>  (189) 
-1.93851

>  <r_i_glide_erotb>  (189) 
0.67339

>  <r_i_glide_esite>  (189) 
-0.00615462

>  <r_i_glide_emodel>  (189) 
-17.1284

>  <r_i_glide_energy>  (189) 
-12.3911

>  <r_i_glide_einternal>  (189) 
0.0821329

>  <r_i_glide_intrahb_reward>  (189) 
-0

>  <i_i_glide_confnum>  (189) 
2

>  <i_i_glide_posenum>  (189) 
31

>  <r_i_glide_eff_state_penalty>  (189) 
0

>  <ligand_id>  (189) 
66

>  <original_smiles>  (189) 
Cn1ccnc1CN1CC2CSCC2C1

>  <smiles>  (189) 
[H]c1c([H])[n+]([H])c(C([H])([H])N2C([H])([H])C3([H])C([H])([H])SC([H])([H])C3([H])C2([H])[H])n1C([H])([H])[H]

$$$$
66:1:0
     RDKit          3D

 33 35  0  0  1  0  0  0  0  0999 V2000
    6.8340   -5.8870    1.0790 C   0  0  0  0  0  0  0  0  0  0  0  0
    5.5207   -6.4465    1.3233 N   0  0  0  0  0  0  0  0  0  0  0  0
    5.2584   -7.7782    1.6137 C   0  0  0  0  0  0  0  0  0  0  0  0
    3.9111   -7.8857    1.8189 C   0  0  0  0  0  0  0  0  0  0  0  0
    3.3149   -6.6369    1.6130 N   0  0  0  0  0  0  0  0  0  0  0  0
    4.3269   -5.8163    1.3454 C   0  0  0  0  0  0  0  0  0  0  0  0
    4.1883   -4.3266    1.1898 C   0  0  0  0  0  0  0  0  0  0  0  0
    3.6247   -4.0702   -0.1620 N   0  0  2  0  0  0  0  0  0  0  0  0
    4.5529   -4.2728   -1.2931 C   0  0  0  0  0  0  0  0  0  0  0  0
    3.9567   -3.4706   -2.4640 C   0  0  2  0  0  0  0  0  0  0  0  0
    4.9613   -2.7878   -3.3822 C   0  0  0  0  0  0  0  0  0  0  0  0
    4.1520   -1.2847   -3.9605 S   0  0  0  0  0  0  0  0  0  0  0  0
    3.4341   -1.0390   -2.3303 C   0  0  0  0  0  0  0  0  0  0  0  0
    3.0268   -2.4332   -1.8316 C   0  0  2  0  0  0  0  0  0  0  0  0
    3.1301   -2.6814   -0.3198 C   0  0  0  0  0  0  0  0  0  0  0  0
    7.5911   -6.6717    1.1688 H   0  0  0  0  0  0  0  0  0  0  0  0
    7.0556   -5.1094    1.8117 H   0  0  0  0  0  0  0  0  0  0  0  0
    6.8763   -5.4699    0.0761 H   0  0  0  0  0  0  0  0  0  0  0  0
    6.0390   -8.5250    1.6795 H   0  0  0  0  0  0  0  0  0  0  0  0
    3.3458   -8.7623    2.0998 H   0  0  0  0  0  0  0  0  0  0  0  0
    3.4980   -3.9846    1.9609 H   0  0  0  0  0  0  0  0  0  0  0  0
    5.1285   -3.8039    1.3531 H   0  0  0  0  0  0  0  0  0  0  0  0
    5.5264   -3.8626   -1.0285 H   0  0  0  0  0  0  0  0  0  0  0  0
    4.6807   -5.3315   -1.5203 H   0  0  0  0  0  0  0  0  0  0  0  0
    3.3321   -4.0888   -3.1050 H   0  0  0  0  0  0  0  0  0  0  0  0
    5.8541   -2.4871   -2.8337 H   0  0  0  0  0  0  0  0  0  0  0  0
    5.2449   -3.4619   -4.1896 H   0  0  0  0  0  0  0  0  0  0  0  0
    4.2084   -0.6002   -1.6968 H   0  0  0  0  0  0  0  0  0  0  0  0
    2.5905   -0.3538   -2.3823 H   0  0  0  0  0  0  0  0  0  0  0  0
    2.0111   -2.6521   -2.1716 H   0  0  0  0  0  0  0  0  0  0  0  0
    2.1829   -2.5210    0.1960 H   0  0  0  0  0  0  0  0  0  0  0  0
    3.8655   -1.9960    0.1047 H   0  0  0  0  0  0  0  0  0  0  0  0
    2.8423   -4.6949   -0.3107 H   0  0  0  0  0  0  0  0  0  0  0  0
  1  2  1  0
  1 16  1  0
  1 17  1  0
  1 18  1  0
  2  6  1  0
  2  3  1  0
  3  4  2  0
  3 19  1  0
  4  5  1  0
  4 20  1  0
  5  6  2  0
  6  7  1  0
  7  8  1  0
  7 21  1  0
  7 22  1  0
  8 15  1  0
  8  9  1  0
  8 33  1  6
  9 10  1  0
  9 23  1  0
  9 24  1  0
 10 14  1  0
 10 11  1  0
 10 25  1  6
 11 12  1  0
 11 26  1  0
 11 27  1  0
 12 13  1  0
 13 14  1  0
 13 28  1  0
 13 29  1  0
 14 15  1  0
 14 30  1  6
 15 31  1  0
 15 32  1  0
M  CHG  1   8   1
M  END
>  <i_m_ct_stereo_status>  (190) 
1

>  <s_m_source_file>  (190) 
/var/tmp/pbs.5076255.sched01/tmpbnv9a_8s/88lo2bg1ru.sdf

>  <i_m_source_file_index>  (190) 
7

>  <i_lp_mmshare_version>  (190) 
48012

>  <i_f3d_flags>  (190) 
0

>  <s_epik_input>  (190) 
W0NIM11uMVtjSF1bY0hdbmMxW0NIMl1OKFtDSDJdMilbQ0gyXVtDQEhdKFtDQEhdMjMpW0NIMl1TW0NIMl0z

>  <s_epik_cmdline>  (190) 
J2VwaWtfcHl0aG9uJywgJy1waHQnLCAnMi4wJywgJy1waCcsICc3LjAnLCAnLXRuJywgJzgnLCAnLW1hJywgJzIwMCcsICctaW1hZScsICc8aW5maWxlLm1hZT4nLCAnLW9tYWUnLCAnPG91dGZpbGUubWFlPic=

>  <r_epik_Ionization_Penalty>  (190) 
0.598318

>  <r_epik_Ionization_Penalty_Charging>  (190) 
0.598318

>  <r_epik_Ionization_Penalty_Neutral>  (190) 
1.92601e-13

>  <r_epik_State_Penalty>  (190) 
1.00435

>  <r_epik_Charging_Adjusted_Penalty>  (190) 
1.60267

>  <i_epik_Tot_Q>  (190) 
1

>  <i_epik_Tot_abs_Q>  (190) 
1

>  <s_lp_Force_Field>  (190) 
OPLS3e

>  <r_lp_Energy>  (190) 
0.437885

>  <b_lp_Chiralities_Consistent>  (190) 
1

>  <s_lp_Variant>  (190) 
66:0-2

>  <s_i_glide_gridfile>  (190) 
pfpi4k_grid

>  <i_i_glide_lignum>  (190) 
7

>  <i_i_glide_rotatable_bonds>  (190) 
2

>  <r_i_docking_score>  (190) 
-3.44417

>  <r_i_glide_ligand_efficiency>  (190) 
-0.229611

>  <r_i_glide_ligand_efficiency_sa>  (190) 
-0.566271

>  <r_i_glide_ligand_efficiency_ln>  (190) 
-0.928836

>  <r_i_glide_gscore>  (190) 
-3.44417

>  <r_i_glide_lipo>  (190) 
-0.359322

>  <r_i_glide_hbond>  (190) 
0

>  <r_i_glide_metal>  (190) 
-0

>  <r_i_glide_rewards>  (190) 
-2.07127

>  <r_i_glide_evdw>  (190) 
-16.9937

>  <r_i_glide_ecoul>  (190) 
-5.49095

>  <r_i_glide_erotb>  (190) 
0.67339

>  <r_i_glide_esite>  (190) 
-0.0136409

>  <r_i_glide_emodel>  (190) 
-27.2308

>  <r_i_glide_energy>  (190) 
-22.4847

>  <r_i_glide_einternal>  (190) 
0.0776215

>  <r_i_glide_intrahb_reward>  (190) 
-0

>  <i_i_glide_confnum>  (190) 
5

>  <i_i_glide_posenum>  (190) 
10

>  <r_i_glide_eff_state_penalty>  (190) 
0

>  <ligand_id>  (190) 
66

>  <original_smiles>  (190) 
Cn1ccnc1CN1CC2CSCC2C1

>  <smiles>  (190) 
[H]c1nc(C([H])([H])[N+]2([H])C([H])([H])C3([H])C([H])([H])SC([H])([H])C3([H])C2([H])[H])n(C([H])([H])[H])c1[H]

$$$$
66:1:1
     RDKit          3D

 33 35  0  0  1  0  0  0  0  0999 V2000
    4.8720   -7.2331    0.4275 C   0  0  0  0  0  0  0  0  0  0  0  0
    3.9967   -6.1709    0.8724 N   0  0  0  0  0  0  0  0  0  0  0  0
    3.1176   -6.2691    1.9438 C   0  0  0  0  0  0  0  0  0  0  0  0
    2.5270   -5.0495    2.0846 C   0  0  0  0  0  0  0  0  0  0  0  0
    3.0129   -4.1921    1.1081 N   0  0  0  0  0  0  0  0  0  0  0  0
    3.8850   -4.9127    0.4008 C   0  0  0  0  0  0  0  0  0  0  0  0
    4.7542   -4.3581   -0.7173 C   0  0  0  0  0  0  0  0  0  0  0  0
    3.8626   -3.7675   -1.7643 N   0  0  2  0  0  0  0  0  0  0  0  0
    4.5647   -3.4044   -3.0220 C   0  0  0  0  0  0  0  0  0  0  0  0
    3.6051   -2.4717   -3.7868 C   0  0  2  0  0  0  0  0  0  0  0  0
    4.2161   -1.2741   -4.5032 C   0  0  0  0  0  0  0  0  0  0  0  0
    3.1051    0.1065   -4.4834 S   0  0  0  0  0  0  0  0  0  0  0  0
    2.7830   -0.3994   -2.7974 C   0  0  0  0  0  0  0  0  0  0  0  0
    2.6810   -1.9201   -2.7316 C   0  0  2  0  0  0  0  0  0  0  0  0
    3.1049   -2.5455   -1.3993 C   0  0  0  0  0  0  0  0  0  0  0  0
    4.7467   -8.1082    1.0640 H   0  0  0  0  0  0  0  0  0  0  0  0
    5.9136   -6.9084    0.4862 H   0  0  0  0  0  0  0  0  0  0  0  0
    4.6151   -7.5040   -0.5966 H   0  0  0  0  0  0  0  0  0  0  0  0
    3.0134   -7.1789    2.5148 H   0  0  0  0  0  0  0  0  0  0  0  0
    1.7866   -4.7342    2.8124 H   0  0  0  0  0  0  0  0  0  0  0  0
    5.4456   -3.6149   -0.3125 H   0  0  0  0  0  0  0  0  0  0  0  0
    5.3483   -5.1564   -1.1660 H   0  0  0  0  0  0  0  0  0  0  0  0
    5.4897   -2.8863   -2.7573 H   0  0  0  0  0  0  0  0  0  0  0  0
    4.8267   -4.2827   -3.6136 H   0  0  0  0  0  0  0  0  0  0  0  0
    3.0191   -3.0294   -4.5095 H   0  0  0  0  0  0  0  0  0  0  0  0
    5.0140   -0.9235   -3.8597 H   0  0  0  0  0  0  0  0  0  0  0  0
    4.5913   -1.4559   -5.4896 H   0  0  0  0  0  0  0  0  0  0  0  0
    3.7186   -0.1400   -2.2995 H   0  0  0  0  0  0  0  0  0  0  0  0
    1.9080    0.0822   -2.3854 H   0  0  0  0  0  0  0  0  0  0  0  0
    1.6883   -2.2857   -2.9719 H   0  0  0  0  0  0  0  0  0  0  0  0
    2.2129   -2.7407   -0.8026 H   0  0  0  0  0  0  0  0  0  0  0  0
    3.7608   -1.8796   -0.8325 H   0  0  0  0  0  0  0  0  0  0  0  0
    3.1936   -4.4876   -2.0302 H   0  0  0  0  0  0  0  0  0  0  0  0
  1  2  1  0
  1 16  1  0
  1 17  1  0
  1 18  1  0
  2  6  1  0
  2  3  1  0
  3  4  2  0
  3 19  1  0
  4  5  1  0
  4 20  1  0
  5  6  2  0
  6  7  1  0
  7  8  1  0
  7 21  1  0
  7 22  1  0
  8 15  1  0
  8  9  1  0
  8 33  1  6
  9 10  1  0
  9 23  1  0
  9 24  1  0
 10 14  1  0
 10 11  1  0
 10 25  1  6
 11 12  1  0
 11 26  1  0
 11 27  1  0
 12 13  1  0
 13 14  1  0
 13 28  1  0
 13 29  1  0
 14 15  1  0
 14 30  1  6
 15 31  1  0
 15 32  1  0
M  CHG  1   8   1
M  END
>  <i_m_ct_stereo_status>  (191) 
1

>  <s_m_source_file>  (191) 
/var/tmp/pbs.5076255.sched01/tmpbnv9a_8s/88lo2bg1ru.sdf

>  <i_m_source_file_index>  (191) 
7

>  <i_lp_mmshare_version>  (191) 
48012

>  <i_f3d_flags>  (191) 
0

>  <s_epik_input>  (191) 
W0NIM11uMVtjSF1bY0hdbmMxW0NIMl1OKFtDSDJdMilbQ0gyXVtDQEhdKFtDQEhdMjMpW0NIMl1TW0NIMl0z

>  <s_epik_cmdline>  (191) 
J2VwaWtfcHl0aG9uJywgJy1waHQnLCAnMi4wJywgJy1waCcsICc3LjAnLCAnLXRuJywgJzgnLCAnLW1hJywgJzIwMCcsICctaW1hZScsICc8aW5maWxlLm1hZT4nLCAnLW9tYWUnLCAnPG91dGZpbGUubWFlPic=

>  <r_epik_Ionization_Penalty>  (191) 
0.598318

>  <r_epik_Ionization_Penalty_Charging>  (191) 
0.598318

>  <r_epik_Ionization_Penalty_Neutral>  (191) 
1.92601e-13

>  <r_epik_State_Penalty>  (191) 
1.00435

>  <r_epik_Charging_Adjusted_Penalty>  (191) 
1.60267

>  <i_epik_Tot_Q>  (191) 
1

>  <i_epik_Tot_abs_Q>  (191) 
1

>  <s_lp_Force_Field>  (191) 
OPLS3e

>  <r_lp_Energy>  (191) 
0.437885

>  <b_lp_Chiralities_Consistent>  (191) 
1

>  <s_lp_Variant>  (191) 
66:0-2

>  <s_i_glide_gridfile>  (191) 
pfpi4k_grid

>  <i_i_glide_lignum>  (191) 
7

>  <i_i_glide_rotatable_bonds>  (191) 
2

>  <r_i_docking_score>  (191) 
-2.99478

>  <r_i_glide_ligand_efficiency>  (191) 
-0.199652

>  <r_i_glide_ligand_efficiency_sa>  (191) 
-0.492384

>  <r_i_glide_ligand_efficiency_ln>  (191) 
-0.807642

>  <r_i_glide_gscore>  (191) 
-2.99478

>  <r_i_glide_lipo>  (191) 
-0.418169

>  <r_i_glide_hbond>  (191) 
0

>  <r_i_glide_metal>  (191) 
-0

>  <r_i_glide_rewards>  (191) 
-2.00943

>  <r_i_glide_evdw>  (191) 
-13.7676

>  <r_i_glide_ecoul>  (191) 
-3.48734

>  <r_i_glide_erotb>  (191) 
0.67339

>  <r_i_glide_esite>  (191) 
-0.0290903

>  <r_i_glide_emodel>  (191) 
-20.2611

>  <r_i_glide_energy>  (191) 
-17.2549

>  <r_i_glide_einternal>  (191) 
1.01579

>  <r_i_glide_intrahb_reward>  (191) 
-0

>  <i_i_glide_confnum>  (191) 
5

>  <i_i_glide_posenum>  (191) 
6

>  <r_i_glide_eff_state_penalty>  (191) 
0

>  <ligand_id>  (191) 
66

>  <original_smiles>  (191) 
Cn1ccnc1CN1CC2CSCC2C1

>  <smiles>  (191) 
[H]c1nc(C([H])([H])[N+]2([H])C([H])([H])C3([H])C([H])([H])SC([H])([H])C3([H])C2([H])[H])n(C([H])([H])[H])c1[H]

$$$$
66:1:2
     RDKit          3D

 33 35  0  0  1  0  0  0  0  0999 V2000
    3.1412   -6.1142    0.3654 C   0  0  0  0  0  0  0  0  0  0  0  0
    3.0517   -4.7437    0.8240 N   0  0  0  0  0  0  0  0  0  0  0  0
    2.6938   -4.3750    2.1204 C   0  0  0  0  0  0  0  0  0  0  0  0
    2.7678   -3.0153    2.1754 C   0  0  0  0  0  0  0  0  0  0  0  0
    3.1661   -2.5216    0.9398 N   0  0  0  0  0  0  0  0  0  0  0  0
    3.3014   -3.5978    0.1589 C   0  0  0  0  0  0  0  0  0  0  0  0
    3.8257   -3.5435   -1.2663 C   0  0  0  0  0  0  0  0  0  0  0  0
    3.0686   -2.5202   -2.0350 N   0  0  2  0  0  0  0  0  0  0  0  0
    3.2353   -2.6633   -3.5046 C   0  0  0  0  0  0  0  0  0  0  0  0
    2.8798   -1.3124   -4.1067 C   0  0  2  0  0  0  0  0  0  0  0  0
    3.7506   -0.8009   -5.2589 C   0  0  0  0  0  0  0  0  0  0  0  0
    3.7429    0.9194   -5.1155 S   0  0  0  0  0  0  0  0  0  0  0  0
    4.0042    0.7013   -3.3822 C   0  0  0  0  0  0  0  0  0  0  0  0
    3.0494   -0.3525   -2.9345 C   0  0  2  0  0  0  0  0  0  0  0  0
    3.4949   -1.1441   -1.7404 C   0  0  0  0  0  0  0  0  0  0  0  0
    2.9051   -6.8071    1.1678 H   0  0  0  0  0  0  0  0  0  0  0  0
    4.1375   -6.3360   -0.0189 H   0  0  0  0  0  0  0  0  0  0  0  0
    2.3884   -6.2573   -0.3921 H   0  0  0  0  0  0  0  0  0  0  0  0
    2.4340   -5.0989    2.8754 H   0  0  0  0  0  0  0  0  0  0  0  0
    2.5614   -2.3442    3.0052 H   0  0  0  0  0  0  0  0  0  0  0  0
    4.9064   -3.3789   -1.3027 H   0  0  0  0  0  0  0  0  0  0  0  0
    3.6958   -4.5109   -1.6991 H   0  0  0  0  0  0  0  0  0  0  0  0
    4.2679   -2.8692   -3.7501 H   0  0  0  0  0  0  0  0  0  0  0  0
    2.6008   -3.4245   -3.9483 H   0  0  0  0  0  0  0  0  0  0  0  0
    1.8306   -1.2763   -4.4538 H   0  0  0  0  0  0  0  0  0  0  0  0
    4.7595   -1.1136   -5.1113 H   0  0  0  0  0  0  0  0  0  0  0  0
    3.4495   -0.9755   -6.2930 H   0  0  0  0  0  0  0  0  0  0  0  0
    5.0190    0.4948   -3.0134 H   0  0  0  0  0  0  0  0  0  0  0  0
    3.8132    1.6462   -3.0375 H   0  0  0  0  0  0  0  0  0  0  0  0
    2.0873    0.1114   -2.7367 H   0  0  0  0  0  0  0  0  0  0  0  0
    3.0688   -0.7358   -0.8285 H   0  0  0  0  0  0  0  0  0  0  0  0
    4.5762   -1.0991   -1.6594 H   0  0  0  0  0  0  0  0  0  0  0  0
    2.0755   -2.5422   -1.8362 H   0  0  0  0  0  0  0  0  0  0  0  0
  1  2  1  0
  1 16  1  0
  1 17  1  0
  1 18  1  0
  2  6  1  0
  2  3  1  0
  3  4  2  0
  3 19  1  0
  4  5  1  0
  4 20  1  0
  5  6  2  0
  6  7  1  0
  7  8  1  0
  7 21  1  0
  7 22  1  0
  8 15  1  0
  8  9  1  0
  8 33  1  6
  9 10  1  0
  9 23  1  0
  9 24  1  0
 10 14  1  0
 10 11  1  0
 10 25  1  6
 11 12  1  0
 11 26  1  0
 11 27  1  0
 12 13  1  0
 13 14  1  0
 13 28  1  0
 13 29  1  0
 14 15  1  0
 14 30  1  1
 15 31  1  0
 15 32  1  0
M  CHG  1   8   1
M  END
>  <i_m_ct_stereo_status>  (192) 
1

>  <s_m_source_file>  (192) 
/var/tmp/pbs.5076255.sched01/tmpbnv9a_8s/88lo2bg1ru.sdf

>  <i_m_source_file_index>  (192) 
7

>  <i_lp_mmshare_version>  (192) 
48012

>  <i_f3d_flags>  (192) 
0

>  <s_epik_input>  (192) 
W0NIM11uMVtjSF1bY0hdbmMxW0NIMl1OKFtDSDJdMilbQ0gyXVtDQEhdKFtDQEhdMjMpW0NIMl1TW0NIMl0z

>  <s_epik_cmdline>  (192) 
J2VwaWtfcHl0aG9uJywgJy1waHQnLCAnMi4wJywgJy1waCcsICc3LjAnLCAnLXRuJywgJzgnLCAnLW1hJywgJzIwMCcsICctaW1hZScsICc8aW5maWxlLm1hZT4nLCAnLW9tYWUnLCAnPG91dGZpbGUubWFlPic=

>  <r_epik_Ionization_Penalty>  (192) 
0.598318

>  <r_epik_Ionization_Penalty_Charging>  (192) 
0.598318

>  <r_epik_Ionization_Penalty_Neutral>  (192) 
1.92601e-13

>  <r_epik_State_Penalty>  (192) 
1.00435

>  <r_epik_Charging_Adjusted_Penalty>  (192) 
1.60267

>  <i_epik_Tot_Q>  (192) 
1

>  <i_epik_Tot_abs_Q>  (192) 
1

>  <s_lp_Force_Field>  (192) 
OPLS3e

>  <r_lp_Energy>  (192) 
0.437885

>  <b_lp_Chiralities_Consistent>  (192) 
1

>  <s_lp_Variant>  (192) 
66:0-2

>  <s_i_glide_gridfile>  (192) 
pfpi4k_grid

>  <i_i_glide_lignum>  (192) 
7

>  <i_i_glide_rotatable_bonds>  (192) 
2

>  <r_i_docking_score>  (192) 
-2.05451

>  <r_i_glide_ligand_efficiency>  (192) 
-0.136967

>  <r_i_glide_ligand_efficiency_sa>  (192) 
-0.33779

>  <r_i_glide_ligand_efficiency_ln>  (192) 
-0.554067

>  <r_i_glide_gscore>  (192) 
-2.05451

>  <r_i_glide_lipo>  (192) 
-0.270671

>  <r_i_glide_hbond>  (192) 
-0.0510671

>  <r_i_glide_metal>  (192) 
-0

>  <r_i_glide_rewards>  (192) 
-1.92945

>  <r_i_glide_evdw>  (192) 
3.5364

>  <r_i_glide_ecoul>  (192) 
-3.92484

>  <r_i_glide_erotb>  (192) 
0.67339

>  <r_i_glide_esite>  (192) 
-0.0647982

>  <r_i_glide_emodel>  (192) 
-0.71934

>  <r_i_glide_energy>  (192) 
-0.388442

>  <r_i_glide_einternal>  (192) 
0.656132

>  <r_i_glide_intrahb_reward>  (192) 
-0

>  <i_i_glide_confnum>  (192) 
5

>  <i_i_glide_posenum>  (192) 
37

>  <r_i_glide_eff_state_penalty>  (192) 
0

>  <ligand_id>  (192) 
66

>  <original_smiles>  (192) 
Cn1ccnc1CN1CC2CSCC2C1

>  <smiles>  (192) 
[H]c1nc(C([H])([H])[N+]2([H])C([H])([H])C3([H])C([H])([H])SC([H])([H])C3([H])C2([H])[H])n(C([H])([H])[H])c1[H]

$$$$
66:3:0
     RDKit          3D

 32 34  0  0  1  0  0  0  0  0999 V2000
    3.8633   -8.3169    2.1442 C   0  0  0  0  0  0  0  0  0  0  0  0
    2.6959   -7.5419    1.7499 N   0  0  0  0  0  0  0  0  0  0  0  0
    1.4010   -8.0381    1.6917 C   0  0  0  0  0  0  0  0  0  0  0  0
    0.6001   -7.0070    1.2834 C   0  0  0  0  0  0  0  0  0  0  0  0
    1.3771   -5.8730    1.1113 N   0  0  0  0  0  0  0  0  0  0  0  0
    2.6252   -6.2427    1.3894 C   0  0  0  0  0  0  0  0  0  0  0  0
    3.8234   -5.3289    1.3099 C   0  0  0  0  0  0  0  0  0  0  0  0
    3.8744   -4.5454    0.0794 N   0  0  0  0  0  0  0  0  0  0  0  0
    2.9343   -3.4261    0.0491 C   0  0  0  0  0  0  0  0  0  0  0  0
    3.3880   -2.5770   -1.1327 C   0  0  2  0  0  0  0  0  0  0  0  0
    2.6390   -2.8700   -2.4421 C   0  0  0  0  0  0  0  0  0  0  0  0
    3.8272   -2.6800   -3.7816 S   0  0  0  0  0  0  0  0  0  0  0  0
    5.0833   -3.4475   -2.7370 C   0  0  0  0  0  0  0  0  0  0  0  0
    4.8670   -2.9206   -1.3074 C   0  0  2  0  0  0  0  0  0  0  0  0
    5.1712   -3.9354   -0.1940 C   0  0  0  0  0  0  0  0  0  0  0  0
    3.6156   -9.3810    2.1366 H   0  0  0  0  0  0  0  0  0  0  0  0
    4.1724   -8.0382    3.1536 H   0  0  0  0  0  0  0  0  0  0  0  0
    4.6917   -8.1605    1.4515 H   0  0  0  0  0  0  0  0  0  0  0  0
    1.1554   -9.0649    1.9216 H   0  0  0  0  0  0  0  0  0  0  0  0
   -0.4626   -6.9942    1.0994 H   0  0  0  0  0  0  0  0  0  0  0  0
    3.8100   -4.6628    2.1722 H   0  0  0  0  0  0  0  0  0  0  0  0
    4.7378   -5.9126    1.3940 H   0  0  0  0  0  0  0  0  0  0  0  0
    1.8959   -3.7243   -0.0668 H   0  0  0  0  0  0  0  0  0  0  0  0
    3.0254   -2.8484    0.9688 H   0  0  0  0  0  0  0  0  0  0  0  0
    3.2643   -1.5209   -0.8892 H   0  0  0  0  0  0  0  0  0  0  0  0
    2.2805   -3.8953   -2.4538 H   0  0  0  0  0  0  0  0  0  0  0  0
    1.7689   -2.2386   -2.5850 H   0  0  0  0  0  0  0  0  0  0  0  0
    4.9169   -4.5256   -2.7699 H   0  0  0  0  0  0  0  0  0  0  0  0
    6.0875   -3.2461   -3.1102 H   0  0  0  0  0  0  0  0  0  0  0  0
    5.4642   -2.0194   -1.1656 H   0  0  0  0  0  0  0  0  0  0  0  0
    5.5282   -3.4134    0.6934 H   0  0  0  0  0  0  0  0  0  0  0  0
    5.9187   -4.6716   -0.4889 H   0  0  0  0  0  0  0  0  0  0  0  0
  1  2  1  0
  1 16  1  0
  1 17  1  0
  1 18  1  0
  2  6  1  0
  2  3  1  0
  3  4  2  0
  3 19  1  0
  4  5  1  0
  4 20  1  0
  5  6  2  0
  6  7  1  0
  7  8  1  0
  7 21  1  0
  7 22  1  0
  8 15  1  0
  8  9  1  0
  9 10  1  0
  9 23  1  0
  9 24  1  0
 10 14  1  0
 10 11  1  0
 10 25  1  1
 11 12  1  0
 11 26  1  0
 11 27  1  0
 12 13  1  0
 13 14  1  0
 13 28  1  0
 13 29  1  0
 14 15  1  0
 14 30  1  1
 15 31  1  0
 15 32  1  0
M  END
>  <i_m_ct_stereo_status>  (193) 
1

>  <s_m_source_file>  (193) 
/var/tmp/pbs.5076255.sched01/tmpbnv9a_8s/88lo2bg1ru.sdf

>  <i_m_source_file_index>  (193) 
9

>  <i_lp_mmshare_version>  (193) 
48012

>  <i_f3d_flags>  (193) 
0

>  <s_epik_input>  (193) 
W0NIM11uMVtjSF1bY0hdbmMxW0NIMl1OKFtDSDJdMilbQ0gyXVtDQEhdKFtDQEhdMjMpW0NIMl1TW0NIMl0z

>  <s_epik_cmdline>  (193) 
J2VwaWtfcHl0aG9uJywgJy1waHQnLCAnMi4wJywgJy1waCcsICc3LjAnLCAnLXRuJywgJzgnLCAnLW1hJywgJzIwMCcsICctaW1hZScsICc8aW5maWxlLm1hZT4nLCAnLW9tYWUnLCAnPG91dGZpbGUubWFlPic=

>  <r_lp_tautomer_probability>  (193) 
1

>  <r_epik_Ionization_Penalty>  (193) 
2.58412

>  <r_epik_Ionization_Penalty_Charging>  (193) 
2.3094

>  <r_epik_Ionization_Penalty_Neutral>  (193) 
0.274729

>  <r_epik_State_Penalty>  (193) 
1.64467

>  <r_epik_Charging_Adjusted_Penalty>  (193) 
3.95407

>  <i_epik_Tot_Q>  (193) 
0

>  <i_epik_Tot_abs_Q>  (193) 
0

>  <s_lp_Force_Field>  (193) 
OPLS3e

>  <r_lp_Energy>  (193) 
-3.26191

>  <b_lp_Chiralities_Consistent>  (193) 
1

>  <s_lp_Variant>  (193) 
66:0-4

>  <s_i_glide_gridfile>  (193) 
pfpi4k_grid

>  <i_i_glide_lignum>  (193) 
9

>  <i_i_glide_rotatable_bonds>  (193) 
2

>  <r_i_docking_score>  (193) 
-3.38037

>  <r_i_glide_ligand_efficiency>  (193) 
-0.225358

>  <r_i_glide_ligand_efficiency_sa>  (193) 
-0.555781

>  <r_i_glide_ligand_efficiency_ln>  (193) 
-0.91163

>  <r_i_glide_gscore>  (193) 
-3.38037

>  <r_i_glide_lipo>  (193) 
-0.387734

>  <r_i_glide_hbond>  (193) 
-0.151586

>  <r_i_glide_metal>  (193) 
-0

>  <r_i_glide_rewards>  (193) 
-1.88633

>  <r_i_glide_evdw>  (193) 
-20.4662

>  <r_i_glide_ecoul>  (193) 
-4.01525

>  <r_i_glide_erotb>  (193) 
0.678538

>  <r_i_glide_esite>  (193) 
-0.00766596

>  <r_i_glide_emodel>  (193) 
-29.1358

>  <r_i_glide_energy>  (193) 
-24.4814

>  <r_i_glide_einternal>  (193) 
1.48437

>  <r_i_glide_intrahb_reward>  (193) 
-0

>  <i_i_glide_confnum>  (193) 
2

>  <i_i_glide_posenum>  (193) 
18

>  <r_i_glide_eff_state_penalty>  (193) 
0

>  <ligand_id>  (193) 
66

>  <original_smiles>  (193) 
Cn1ccnc1CN1CC2CSCC2C1

>  <smiles>  (193) 
[H]c1nc(C([H])([H])N2C([H])([H])C3([H])C([H])([H])SC([H])([H])C3([H])C2([H])[H])n(C([H])([H])[H])c1[H]

$$$$
66:3:1
     RDKit          3D

 32 34  0  0  1  0  0  0  0  0999 V2000
    4.9740   -6.2246    2.0639 C   0  0  0  0  0  0  0  0  0  0  0  0
    3.5620   -6.3490    1.7194 N   0  0  0  0  0  0  0  0  0  0  0  0
    2.8605   -7.5459    1.6349 C   0  0  0  0  0  0  0  0  0  0  0  0
    1.5648   -7.2335    1.2982 C   0  0  0  0  0  0  0  0  0  0  0  0
    1.4409   -5.8537    1.1679 N   0  0  0  0  0  0  0  0  0  0  0  0
    2.6625   -5.3801    1.4252 C   0  0  0  0  0  0  0  0  0  0  0  0
    3.0059   -3.9134    1.4030 C   0  0  0  0  0  0  0  0  0  0  0  0
    3.3551   -3.4029    0.0778 N   0  0  0  0  0  0  0  0  0  0  0  0
    3.5547   -1.9560    0.0502 C   0  0  0  0  0  0  0  0  0  0  0  0
    4.2649   -1.7091   -1.2858 C   0  0  2  0  0  0  0  0  0  0  0  0
    3.3213   -1.3689   -2.4546 C   0  0  0  0  0  0  0  0  0  0  0  0
    4.0396   -2.1030   -3.9222 S   0  0  0  0  0  0  0  0  0  0  0  0
    4.5065   -3.5473   -2.9663 C   0  0  0  0  0  0  0  0  0  0  0  0
    4.9737   -3.0266   -1.6024 C   0  0  2  0  0  0  0  0  0  0  0  0
    4.6124   -3.9290   -0.4331 C   0  0  0  0  0  0  0  0  0  0  0  0
    5.4478   -7.2073    1.9879 H   0  0  0  0  0  0  0  0  0  0  0  0
    5.0775   -5.8437    3.0845 H   0  0  0  0  0  0  0  0  0  0  0  0
    5.5055   -5.5624    1.3815 H   0  0  0  0  0  0  0  0  0  0  0  0
    3.3415   -8.4964    1.7974 H   0  0  0  0  0  0  0  0  0  0  0  0
    0.7261   -7.8946    1.1291 H   0  0  0  0  0  0  0  0  0  0  0  0
    2.1257   -3.3612    1.7404 H   0  0  0  0  0  0  0  0  0  0  0  0
    3.7939   -3.6932    2.1270 H   0  0  0  0  0  0  0  0  0  0  0  0
    2.6234   -1.3952    0.1328 H   0  0  0  0  0  0  0  0  0  0  0  0
    4.2007   -1.6507    0.8719 H   0  0  0  0  0  0  0  0  0  0  0  0
    4.9993   -0.9107   -1.1741 H   0  0  0  0  0  0  0  0  0  0  0  0
    2.3418   -1.8344   -2.3085 H   0  0  0  0  0  0  0  0  0  0  0  0
    3.1829   -0.2944   -2.5860 H   0  0  0  0  0  0  0  0  0  0  0  0
    3.6011   -4.1355   -2.8410 H   0  0  0  0  0  0  0  0  0  0  0  0
    5.2527   -4.1746   -3.4589 H   0  0  0  0  0  0  0  0  0  0  0  0
    6.0537   -2.8827   -1.6306 H   0  0  0  0  0  0  0  0  0  0  0  0
    5.3863   -3.7859    0.3175 H   0  0  0  0  0  0  0  0  0  0  0  0
    4.5499   -4.9834   -0.7034 H   0  0  0  0  0  0  0  0  0  0  0  0
  1  2  1  0
  1 16  1  0
  1 17  1  0
  1 18  1  0
  2  6  1  0
  2  3  1  0
  3  4  2  0
  3 19  1  0
  4  5  1  0
  4 20  1  0
  5  6  2  0
  6  7  1  0
  7  8  1  0
  7 21  1  0
  7 22  1  0
  8 15  1  0
  8  9  1  0
  9 10  1  0
  9 23  1  0
  9 24  1  0
 10 14  1  0
 10 11  1  0
 10 25  1  1
 11 12  1  0
 11 26  1  0
 11 27  1  0
 12 13  1  0
 13 14  1  0
 13 28  1  0
 13 29  1  0
 14 15  1  0
 14 30  1  6
 15 31  1  0
 15 32  1  0
M  END
>  <i_m_ct_stereo_status>  (194) 
1

>  <s_m_source_file>  (194) 
/var/tmp/pbs.5076255.sched01/tmpbnv9a_8s/88lo2bg1ru.sdf

>  <i_m_source_file_index>  (194) 
9

>  <i_lp_mmshare_version>  (194) 
48012

>  <i_f3d_flags>  (194) 
0

>  <s_epik_input>  (194) 
W0NIM11uMVtjSF1bY0hdbmMxW0NIMl1OKFtDSDJdMilbQ0gyXVtDQEhdKFtDQEhdMjMpW0NIMl1TW0NIMl0z

>  <s_epik_cmdline>  (194) 
J2VwaWtfcHl0aG9uJywgJy1waHQnLCAnMi4wJywgJy1waCcsICc3LjAnLCAnLXRuJywgJzgnLCAnLW1hJywgJzIwMCcsICctaW1hZScsICc8aW5maWxlLm1hZT4nLCAnLW9tYWUnLCAnPG91dGZpbGUubWFlPic=

>  <r_lp_tautomer_probability>  (194) 
1

>  <r_epik_Ionization_Penalty>  (194) 
2.58412

>  <r_epik_Ionization_Penalty_Charging>  (194) 
2.3094

>  <r_epik_Ionization_Penalty_Neutral>  (194) 
0.274729

>  <r_epik_State_Penalty>  (194) 
1.64467

>  <r_epik_Charging_Adjusted_Penalty>  (194) 
3.95407

>  <i_epik_Tot_Q>  (194) 
0

>  <i_epik_Tot_abs_Q>  (194) 
0

>  <s_lp_Force_Field>  (194) 
OPLS3e

>  <r_lp_Energy>  (194) 
-3.26191

>  <b_lp_Chiralities_Consistent>  (194) 
1

>  <s_lp_Variant>  (194) 
66:0-4

>  <s_i_glide_gridfile>  (194) 
pfpi4k_grid

>  <i_i_glide_lignum>  (194) 
9

>  <i_i_glide_rotatable_bonds>  (194) 
2

>  <r_i_docking_score>  (194) 
-3.28209

>  <r_i_glide_ligand_efficiency>  (194) 
-0.218806

>  <r_i_glide_ligand_efficiency_sa>  (194) 
-0.539622

>  <r_i_glide_ligand_efficiency_ln>  (194) 
-0.885126

>  <r_i_glide_gscore>  (194) 
-3.28209

>  <r_i_glide_lipo>  (194) 
-0.151187

>  <r_i_glide_hbond>  (194) 
-0.145279

>  <r_i_glide_metal>  (194) 
-0

>  <r_i_glide_rewards>  (194) 
-1.9394

>  <r_i_glide_evdw>  (194) 
-17.1617

>  <r_i_glide_ecoul>  (194) 
-5.66111

>  <r_i_glide_erotb>  (194) 
0.678538

>  <r_i_glide_esite>  (194) 
-0.0175097

>  <r_i_glide_emodel>  (194) 
-27.7899

>  <r_i_glide_energy>  (194) 
-22.8228

>  <r_i_glide_einternal>  (194) 
0.271231

>  <r_i_glide_intrahb_reward>  (194) 
-0

>  <i_i_glide_confnum>  (194) 
3

>  <i_i_glide_posenum>  (194) 
8

>  <r_i_glide_eff_state_penalty>  (194) 
0

>  <ligand_id>  (194) 
66

>  <original_smiles>  (194) 
Cn1ccnc1CN1CC2CSCC2C1

>  <smiles>  (194) 
[H]c1nc(C([H])([H])N2C([H])([H])C3([H])C([H])([H])SC([H])([H])C3([H])C2([H])[H])n(C([H])([H])[H])c1[H]

$$$$
66:3:2
     RDKit          3D

 32 34  0  0  1  0  0  0  0  0999 V2000
    8.6384   -4.8062    1.2124 C   0  0  0  0  0  0  0  0  0  0  0  0
    7.4275   -5.5663    1.4848 N   0  0  0  0  0  0  0  0  0  0  0  0
    7.3844   -6.9476    1.6185 C   0  0  0  0  0  0  0  0  0  0  0  0
    6.0841   -7.2900    1.8943 C   0  0  0  0  0  0  0  0  0  0  0  0
    5.3096   -6.1326    1.9302 N   0  0  0  0  0  0  0  0  0  0  0  0
    6.1581   -5.1405    1.6766 C   0  0  0  0  0  0  0  0  0  0  0  0
    5.7326   -3.7002    1.6115 C   0  0  0  0  0  0  0  0  0  0  0  0
    5.2825   -3.2755    0.2876 N   0  0  0  0  0  0  0  0  0  0  0  0
    4.7400   -1.9229    0.2619 C   0  0  0  0  0  0  0  0  0  0  0  0
    4.7229   -1.5645   -1.2335 C   0  0  2  0  0  0  0  0  0  0  0  0
    3.3891   -1.8446   -1.9403 C   0  0  0  0  0  0  0  0  0  0  0  0
    3.7839   -2.3838   -3.6208 S   0  0  0  0  0  0  0  0  0  0  0  0
    5.1655   -3.3330   -2.9615 C   0  0  0  0  0  0  0  0  0  0  0  0
    5.7907   -2.4595   -1.8664 C   0  0  2  0  0  0  0  0  0  0  0  0
    6.3511   -3.2311   -0.6934 C   0  0  0  0  0  0  0  0  0  0  0  0
    9.4246   -5.4926    0.8961 H   0  0  0  0  0  0  0  0  0  0  0  0
    8.9674   -4.2750    2.1041 H   0  0  0  0  0  0  0  0  0  0  0  0
    8.4951   -4.0826    0.4156 H   0  0  0  0  0  0  0  0  0  0  0  0
    8.2707   -7.5622    1.5039 H   0  0  0  0  0  0  0  0  0  0  0  0
    5.6479   -8.2649    2.0670 H   0  0  0  0  0  0  0  0  0  0  0  0
    4.8914   -3.5824    2.2919 H   0  0  0  0  0  0  0  0  0  0  0  0
    6.5269   -3.0580    1.9879 H   0  0  0  0  0  0  0  0  0  0  0  0
    3.7575   -1.8599    0.7325 H   0  0  0  0  0  0  0  0  0  0  0  0
    5.4163   -1.2513    0.7938 H   0  0  0  0  0  0  0  0  0  0  0  0
    4.9932   -0.5159   -1.3671 H   0  0  0  0  0  0  0  0  0  0  0  0
    2.8714   -2.6682   -1.4437 H   0  0  0  0  0  0  0  0  0  0  0  0
    2.7343   -0.9747   -1.9388 H   0  0  0  0  0  0  0  0  0  0  0  0
    4.7681   -4.2560   -2.5322 H   0  0  0  0  0  0  0  0  0  0  0  0
    5.8838   -3.6010   -3.7367 H   0  0  0  0  0  0  0  0  0  0  0  0
    6.5861   -1.8601   -2.3075 H   0  0  0  0  0  0  0  0  0  0  0  0
    7.1756   -2.6449   -0.2980 H   0  0  0  0  0  0  0  0  0  0  0  0
    6.6933   -4.2206   -0.9714 H   0  0  0  0  0  0  0  0  0  0  0  0
  1  2  1  0
  1 16  1  0
  1 17  1  0
  1 18  1  0
  2  6  1  0
  2  3  1  0
  3  4  2  0
  3 19  1  0
  4  5  1  0
  4 20  1  0
  5  6  2  0
  6  7  1  0
  7  8  1  0
  7 21  1  0
  7 22  1  0
  8 15  1  0
  8  9  1  0
  9 10  1  0
  9 23  1  0
  9 24  1  0
 10 14  1  0
 10 11  1  0
 10 25  1  1
 11 12  1  0
 11 26  1  0
 11 27  1  0
 12 13  1  0
 13 14  1  0
 13 28  1  0
 13 29  1  0
 14 15  1  0
 14 30  1  6
 15 31  1  0
 15 32  1  0
M  END
>  <i_m_ct_stereo_status>  (195) 
1

>  <s_m_source_file>  (195) 
/var/tmp/pbs.5076255.sched01/tmpbnv9a_8s/88lo2bg1ru.sdf

>  <i_m_source_file_index>  (195) 
9

>  <i_lp_mmshare_version>  (195) 
48012

>  <i_f3d_flags>  (195) 
0

>  <s_epik_input>  (195) 
W0NIM11uMVtjSF1bY0hdbmMxW0NIMl1OKFtDSDJdMilbQ0gyXVtDQEhdKFtDQEhdMjMpW0NIMl1TW0NIMl0z

>  <s_epik_cmdline>  (195) 
J2VwaWtfcHl0aG9uJywgJy1waHQnLCAnMi4wJywgJy1waCcsICc3LjAnLCAnLXRuJywgJzgnLCAnLW1hJywgJzIwMCcsICctaW1hZScsICc8aW5maWxlLm1hZT4nLCAnLW9tYWUnLCAnPG91dGZpbGUubWFlPic=

>  <r_lp_tautomer_probability>  (195) 
1

>  <r_epik_Ionization_Penalty>  (195) 
2.58412

>  <r_epik_Ionization_Penalty_Charging>  (195) 
2.3094

>  <r_epik_Ionization_Penalty_Neutral>  (195) 
0.274729

>  <r_epik_State_Penalty>  (195) 
1.64467

>  <r_epik_Charging_Adjusted_Penalty>  (195) 
3.95407

>  <i_epik_Tot_Q>  (195) 
0

>  <i_epik_Tot_abs_Q>  (195) 
0

>  <s_lp_Force_Field>  (195) 
OPLS3e

>  <r_lp_Energy>  (195) 
-3.26191

>  <b_lp_Chiralities_Consistent>  (195) 
1

>  <s_lp_Variant>  (195) 
66:0-4

>  <s_i_glide_gridfile>  (195) 
pfpi4k_grid

>  <i_i_glide_lignum>  (195) 
9

>  <i_i_glide_rotatable_bonds>  (195) 
2

>  <r_i_docking_score>  (195) 
-3.26377

>  <r_i_glide_ligand_efficiency>  (195) 
-0.217584

>  <r_i_glide_ligand_efficiency_sa>  (195) 
-0.536609

>  <r_i_glide_ligand_efficiency_ln>  (195) 
-0.880184

>  <r_i_glide_gscore>  (195) 
-3.26377

>  <r_i_glide_lipo>  (195) 
-0.677155

>  <r_i_glide_hbond>  (195) 
0

>  <r_i_glide_metal>  (195) 
-0

>  <r_i_glide_rewards>  (195) 
-2.08814

>  <r_i_glide_evdw>  (195) 
-20.487

>  <r_i_glide_ecoul>  (195) 
-1.01776

>  <r_i_glide_erotb>  (195) 
0.678538

>  <r_i_glide_esite>  (195) 
0

>  <r_i_glide_emodel>  (195) 
-26.4062

>  <r_i_glide_energy>  (195) 
-21.5047

>  <r_i_glide_einternal>  (195) 
0.173932

>  <r_i_glide_intrahb_reward>  (195) 
-0

>  <i_i_glide_confnum>  (195) 
2

>  <i_i_glide_posenum>  (195) 
13

>  <r_i_glide_eff_state_penalty>  (195) 
0

>  <ligand_id>  (195) 
66

>  <original_smiles>  (195) 
Cn1ccnc1CN1CC2CSCC2C1

>  <smiles>  (195) 
[H]c1nc(C([H])([H])N2C([H])([H])C3([H])C([H])([H])SC([H])([H])C3([H])C2([H])[H])n(C([H])([H])[H])c1[H]

$$$$
67:0:0
     RDKit          3D

 67 73  0  0  1  0  0  0  0  0999 V2000
    2.9845   -2.7759    4.7180 C   0  0  0  0  0  0  0  0  0  0  0  0
    3.1862   -3.6277    3.6013 O   0  0  0  0  0  0  0  0  0  0  0  0
    4.2990   -3.3210    2.7623 C   0  0  2  0  0  0  0  0  0  0  0  0
    4.9558   -4.1434    1.5308 C   0  0  2  0  0  0  0  0  0  0  0  0
    6.4073   -3.7086    1.2253 C   0  0  0  0  0  0  0  0  0  0  0  0
    6.1128   -2.5066    1.8975 C   0  0  2  0  0  0  0  0  0  0  0  0
    5.5939   -3.3301    3.3224 C   0  0  2  0  0  0  0  0  0  0  0  0
    5.6839   -5.0286    3.7878 C   0  0  2  0  0  0  0  0  0  0  0  0
    6.3061   -5.4001    5.1231 C   0  0  0  0  0  0  0  0  0  0  0  0
    6.7441   -6.6700    4.5853 O   0  0  0  0  0  0  0  0  0  0  0  0
    6.7031   -6.1212    3.2357 C   0  0  2  0  0  0  0  0  0  0  0  0
    8.2056   -5.9673    2.9199 C   0  0  0  0  0  0  0  0  0  0  0  0
    5.9388   -7.0166    2.1337 C   0  0  1  0  0  0  0  0  0  0  0  0
    5.9414   -8.3681    2.5117 O   0  0  0  0  0  0  0  0  0  0  0  0
    4.4536   -6.4602    1.9583 C   0  0  1  0  0  0  0  0  0  0  0  0
    4.3916   -5.9602    3.4530 C   0  0  0  0  0  0  0  0  0  0  0  0
    4.1877   -5.2071    0.8960 C   0  0  2  0  0  0  0  0  0  0  0  0
    4.7540   -5.1136   -0.5707 C   0  0  0  0  0  0  0  0  0  0  0  0
    4.6166   -3.6510   -1.2900 C   0  0  2  0  0  0  0  0  0  0  0  0
    3.6057   -3.7506   -2.4442 C   0  0  0  0  0  0  0  0  0  0  0  0
    5.8628   -3.1261   -2.0829 C   0  0  0  0  0  0  0  0  0  0  0  0
    6.8136   -2.1199   -1.4448 C   0  0  0  0  0  0  0  0  0  0  0  0
    6.1971   -1.1526   -0.4068 C   0  0  0  0  0  0  0  0  0  0  0  0
    5.2010   -1.7232    0.6614 C   0  0  2  0  0  0  0  0  0  0  0  0
    4.5645   -0.4117    1.2280 C   0  0  0  0  0  0  0  0  0  0  0  0
    4.0875   -2.5104   -0.3056 C   0  0  2  0  0  0  0  0  0  0  0  0
    2.7384   -3.0911    0.3046 C   0  0  0  0  0  0  0  0  0  0  0  0
    2.7495   -4.5978    0.8124 C   0  0  1  0  0  0  0  0  0  0  0  0
    1.9030   -5.4310    0.0414 O   0  0  0  0  0  0  0  0  0  0  0  0
    2.1370   -3.1487    5.2912 H   0  0  0  0  0  0  0  0  0  0  0  0
    2.7691   -1.7583    4.3930 H   0  0  0  0  0  0  0  0  0  0  0  0
    3.8503   -2.7660    5.3784 H   0  0  0  0  0  0  0  0  0  0  0  0
    3.9560   -2.3268    2.5685 H   0  0  0  0  0  0  0  0  0  0  0  0
    5.7044   -4.8548    1.5664 H   0  0  0  0  0  0  0  0  0  0  0  0
    7.3089   -4.0377    1.7488 H   0  0  0  0  0  0  0  0  0  0  0  0
    6.7124   -3.7353    0.2150 H   0  0  0  0  0  0  0  0  0  0  0  0
    6.9996   -1.9363    2.0765 H   0  0  0  0  0  0  0  0  0  0  0  0
    5.6813   -2.6726    4.1813 H   0  0  0  0  0  0  0  0  0  0  0  0
    7.1352   -4.7589    5.4263 H   0  0  0  0  0  0  0  0  0  0  0  0
    5.5510   -5.5103    5.9072 H   0  0  0  0  0  0  0  0  0  0  0  0
    8.3867   -5.8678    1.8654 H   0  0  0  0  0  0  0  0  0  0  0  0
    8.7519   -6.8245    3.2526 H   0  0  0  0  0  0  0  0  0  0  0  0
    8.6352   -5.0891    3.4210 H   0  0  0  0  0  0  0  0  0  0  0  0
    6.4567   -6.9735    1.1844 H   0  0  0  0  0  0  0  0  0  0  0  0
    6.8316   -8.6444    2.6865 H   0  0  0  0  0  0  0  0  0  0  0  0
    3.7504   -7.2709    1.7653 H   0  0  0  0  0  0  0  0  0  0  0  0
    4.4480   -6.8708    4.0634 H   0  0  0  0  0  0  0  0  0  0  0  0
    3.4047   -5.7066    3.7965 H   0  0  0  0  0  0  0  0  0  0  0  0
    5.7736   -5.4742   -0.6143 H   0  0  0  0  0  0  0  0  0  0  0  0
    4.2508   -5.9087   -1.1203 H   0  0  0  0  0  0  0  0  0  0  0  0
    3.3521   -2.7778   -2.8532 H   0  0  0  0  0  0  0  0  0  0  0  0
    2.6732   -4.2017   -2.1425 H   0  0  0  0  0  0  0  0  0  0  0  0
    4.0417   -4.2975   -3.2722 H   0  0  0  0  0  0  0  0  0  0  0  0
    6.4587   -3.9503   -2.4512 H   0  0  0  0  0  0  0  0  0  0  0  0
    5.5387   -2.6393   -2.9967 H   0  0  0  0  0  0  0  0  0  0  0  0
    7.7245   -2.5777   -1.0668 H   0  0  0  0  0  0  0  0  0  0  0  0
    7.1713   -1.5758   -2.3076 H   0  0  0  0  0  0  0  0  0  0  0  0
    6.9764   -0.5951    0.1040 H   0  0  0  0  0  0  0  0  0  0  0  0
    5.6685   -0.4240   -1.0128 H   0  0  0  0  0  0  0  0  0  0  0  0
    4.3314    0.2962    0.4420 H   0  0  0  0  0  0  0  0  0  0  0  0
    5.2506    0.0657    1.9084 H   0  0  0  0  0  0  0  0  0  0  0  0
    3.6147   -0.5505    1.7326 H   0  0  0  0  0  0  0  0  0  0  0  0
    3.7330   -1.7078   -0.9479 H   0  0  0  0  0  0  0  0  0  0  0  0
    2.3915   -2.4330    1.0968 H   0  0  0  0  0  0  0  0  0  0  0  0
    1.9534   -2.9958   -0.4363 H   0  0  0  0  0  0  0  0  0  0  0  0
    2.2468   -4.6362    1.7732 H   0  0  0  0  0  0  0  0  0  0  0  0
    2.2770   -5.4728   -0.8374 H   0  0  0  0  0  0  0  0  0  0  0  0
  1  2  1  0
  1 30  1  0
  1 31  1  0
  1 32  1  0
  2  3  1  0
  3  7  1  0
  3  4  1  0
  3 33  1  6
  4 17  1  0
  4  5  1  0
  4 34  1  6
  5  6  1  0
  5 35  1  0
  5 36  1  0
  6 24  1  0
  6  7  1  0
  6 37  1  1
  7  8  1  0
  7 38  1  1
  8 11  1  0
  8 16  1  0
  8  9  1  1
  9 10  1  0
  9 39  1  0
  9 40  1  0
 10 11  1  0
 11 12  1  6
 11 13  1  0
 12 41  1  0
 12 42  1  0
 12 43  1  0
 13 14  1  0
 13 15  1  0
 13 44  1  6
 14 45  1  0
 15 16  1  0
 15 17  1  0
 15 46  1  1
 16 47  1  0
 16 48  1  0
 17 28  1  0
 17 18  1  6
 18 19  1  0
 18 49  1  0
 18 50  1  0
 19 26  1  0
 19 20  1  6
 19 21  1  0
 20 51  1  0
 20 52  1  0
 20 53  1  0
 21 22  1  0
 21 54  1  0
 21 55  1  0
 22 23  1  0
 22 56  1  0
 22 57  1  0
 23 24  1  0
 23 58  1  0
 23 59  1  0
 24 25  1  1
 24 26  1  0
 25 60  1  0
 25 61  1  0
 25 62  1  0
 26 27  1  0
 26 63  1  6
 27 28  1  0
 27 64  1  0
 27 65  1  0
 28 29  1  0
 28 66  1  1
 29 67  1  0
M  END
>  <i_m_ct_stereo_status>  (196) 
1

>  <s_m_source_file>  (196) 
/var/tmp/pbs.5076255.sched01/tmpbnv9a_8s/88lo2bg1ru.sdf

>  <i_m_source_file_index>  (196) 
10

>  <i_lp_mmshare_version>  (196) 
48012

>  <i_f3d_flags>  (196) 
0

>  <s_epik_input>  (196) 
W0NIMl0xT1tDQEBdMihbQ0gzXSlbQ0BASF0oW09IXSlbQ0BASF0oW0NIMl0zKVtDQEBdKFtDQEBIXShbQ0gyXTQpW09IXSkoW0NAQEhdKFtDSDJdNSlbQ0BIXTZPW0NIM10pW0NIMl1bQ0BdKFtDSDNdKShbQ0gyXVtDSDJdW0NIMl03KVtDQEBIXTRbQ0BAXTcoW0NIM10pW0NASF01W0NAQEhdNltDQF0xMjM=

>  <s_epik_cmdline>  (196) 
J2VwaWtfcHl0aG9uJywgJy1waHQnLCAnMi4wJywgJy1waCcsICc3LjAnLCAnLXRuJywgJzgnLCAnLW1hJywgJzIwMCcsICctaW1hZScsICc8aW5maWxlLm1hZT4nLCAnLW9tYWUnLCAnPG91dGZpbGUubWFlPic=

>  <r_lp_tautomer_probability>  (196) 
1

>  <r_epik_Ionization_Penalty>  (196) 
1.54046e-06

>  <r_epik_Ionization_Penalty_Charging>  (196) 
0

>  <r_epik_Ionization_Penalty_Neutral>  (196) 
1.54046e-06

>  <r_epik_State_Penalty>  (196) 
-0

>  <r_epik_Charging_Adjusted_Penalty>  (196) 
0

>  <i_epik_Tot_Q>  (196) 
0

>  <i_epik_Tot_abs_Q>  (196) 
0

>  <s_lp_Force_Field>  (196) 
OPLS3e

>  <r_lp_Energy>  (196) 
413.206

>  <b_lp_Chiralities_Consistent>  (196) 
1

>  <s_lp_Variant>  (196) 
67:0-1

>  <s_i_glide_gridfile>  (196) 
pfpi4k_grid

>  <i_i_glide_lignum>  (196) 
10

>  <i_i_glide_rotatable_bonds>  (196) 
3

>  <r_i_docking_score>  (196) 
-2.85748

>  <r_i_glide_ligand_efficiency>  (196) 
-0.0985339

>  <r_i_glide_ligand_efficiency_sa>  (196) 
-0.302727

>  <r_i_glide_ligand_efficiency_ln>  (196) 
-0.654291

>  <r_i_glide_gscore>  (196) 
-2.85748

>  <r_i_glide_lipo>  (196) 
-0.684905

>  <r_i_glide_hbond>  (196) 
-0.372408

>  <r_i_glide_metal>  (196) 
-0

>  <r_i_glide_rewards>  (196) 
-0.664317

>  <r_i_glide_evdw>  (196) 
-9.29677

>  <r_i_glide_ecoul>  (196) 
-4.47342

>  <r_i_glide_erotb>  (196) 
0

>  <r_i_glide_esite>  (196) 
0

>  <r_i_glide_emodel>  (196) 
-13.5941

>  <r_i_glide_energy>  (196) 
-13.7702

>  <r_i_glide_einternal>  (196) 
0.350474

>  <r_i_glide_intrahb_reward>  (196) 
-0

>  <i_i_glide_confnum>  (196) 
1

>  <i_i_glide_posenum>  (196) 
20

>  <r_i_glide_eff_state_penalty>  (196) 
0

>  <ligand_id>  (196) 
67

>  <original_smiles>  (196) 
COC1C2CC3C1C14COC1(C)C(O)C(C4)C21CC2(C)CCCC3(C)C2CC1O

>  <smiles>  (196) 
[H]OC1([H])C2([H])C([H])([H])C3(C([H])([H])OC13C([H])([H])[H])C1([H])C([H])(OC([H])([H])[H])C3([H])C([H])([H])C1([H])C1(C([H])([H])[H])C([H])([H])C([H])([H])C([H])([H])C4(C([H])([H])[H])C([H])([H])C32C([H])(O[H])C([H])([H])C41[H]

$$$$
67:0:1
     RDKit          3D

 67 73  0  0  1  0  0  0  0  0999 V2000
   -1.9803    4.1044    3.1309 C   0  0  0  0  0  0  0  0  0  0  0  0
   -1.1959    2.9272    3.2206 O   0  0  0  0  0  0  0  0  0  0  0  0
   -0.0998    2.9492    4.1321 C   0  0  2  0  0  0  0  0  0  0  0  0
    0.7933    1.7195    4.7245 C   0  0  0  0  0  0  0  0  0  0  0  0
    1.5223    2.1047    6.0436 C   0  0  0  0  0  0  0  0  0  0  0  0
    1.3321    3.4469    5.6739 C   0  0  2  0  0  0  0  0  0  0  0  0
   -0.3609    3.2684    5.4781 C   0  0  2  0  0  0  0  0  0  0  0  0
   -1.4340    1.9656    5.8590 C   0  0  2  0  0  0  0  0  0  0  0  0
   -2.6331    2.3010    6.7097 C   0  0  0  0  0  0  0  0  0  0  0  0
   -2.6484    0.9562    7.2167 O   0  0  0  0  0  0  0  0  0  0  0  0
   -1.2165    0.8035    6.9178 C   0  0  2  0  0  0  0  0  0  0  0  0
   -0.5888    0.9673    8.3182 C   0  0  0  0  0  0  0  0  0  0  0  0
   -0.7069   -0.5249    6.1372 C   0  0  1  0  0  0  0  0  0  0  0  0
   -1.5313   -1.6785    6.1580 O   0  0  0  0  0  0  0  0  0  0  0  0
   -0.5841   -0.2138    4.5865 C   0  0  1  0  0  0  0  0  0  0  0  0
   -1.7437    0.8539    4.6764 C   0  0  0  0  0  0  0  0  0  0  0  0
    0.8145    0.4537    4.0248 C   0  0  2  0  0  0  0  0  0  0  0  0
    2.2662   -0.0738    4.3750 C   0  0  0  0  0  0  0  0  0  0  0  0
    3.4551    0.9416    3.9427 C   0  0  2  0  0  0  0  0  0  0  0  0
    4.1797    0.1453    2.8141 C   0  0  0  0  0  0  0  0  0  0  0  0
    4.6050    1.1841    4.9900 C   0  0  0  0  0  0  0  0  0  0  0  0
    4.6433    2.4855    5.8516 C   0  0  0  0  0  0  0  0  0  0  0  0
    3.9514    3.7324    5.2579 C   0  0  0  0  0  0  0  0  0  0  0  0
    2.5778    3.5653    4.5139 C   0  0  2  0  0  0  0  0  0  0  0  0
    2.4828    4.9332    3.7492 C   0  0  0  0  0  0  0  0  0  0  0  0
    2.9304    2.3540    3.3983 C   0  0  2  0  0  0  0  0  0  0  0  0
    1.9059    2.0085    2.2407 C   0  0  0  0  0  0  0  0  0  0  0  0
    0.8485    0.8614    2.5164 C   0  0  1  0  0  0  0  0  0  0  0  0
    1.0850   -0.3070    1.7659 O   0  0  0  0  0  0  0  0  0  0  0  0
   -2.7810    3.9300    2.4129 H   0  0  0  0  0  0  0  0  0  0  0  0
   -1.3781    4.9477    2.7930 H   0  0  0  0  0  0  0  0  0  0  0  0
   -2.4508    4.3455    4.0838 H   0  0  0  0  0  0  0  0  0  0  0  0
    0.4030    3.7362    3.6208 H   0  0  0  0  0  0  0  0  0  0  0  0
    0.6324    1.1445    5.5728 H   0  0  0  0  0  0  0  0  0  0  0  0
    1.0905    2.1010    7.0436 H   0  0  0  0  0  0  0  0  0  0  0  0
    2.4876    1.6756    6.2016 H   0  0  0  0  0  0  0  0  0  0  0  0
    1.5431    4.1107    6.5132 H   0  0  0  0  0  0  0  0  0  0  0  0
   -0.8385    4.2373    5.5951 H   0  0  0  0  0  0  0  0  0  0  0  0
   -2.4562    3.0458    7.4950 H   0  0  0  0  0  0  0  0  0  0  0  0
   -3.4962    2.5773    6.1069 H   0  0  0  0  0  0  0  0  0  0  0  0
    0.4383    0.6055    8.3429 H   0  0  0  0  0  0  0  0  0  0  0  0
   -1.1063    0.3814    9.0578 H   0  0  0  0  0  0  0  0  0  0  0  0
   -0.6017    1.9896    8.6507 H   0  0  0  0  0  0  0  0  0  0  0  0
    0.2652   -0.8600    6.5065 H   0  0  0  0  0  0  0  0  0  0  0  0
   -1.1354   -2.3949    5.6792 H   0  0  0  0  0  0  0  0  0  0  0  0
   -0.8595   -1.0669    3.9692 H   0  0  0  0  0  0  0  0  0  0  0  0
   -2.5944    0.2563    4.9592 H   0  0  0  0  0  0  0  0  0  0  0  0
   -2.1679    1.1396    3.7252 H   0  0  0  0  0  0  0  0  0  0  0  0
    2.3541   -0.3603    5.4289 H   0  0  0  0  0  0  0  0  0  0  0  0
    2.3909   -1.0284    3.8783 H   0  0  0  0  0  0  0  0  0  0  0  0
    4.9784    0.6964    2.3664 H   0  0  0  0  0  0  0  0  0  0  0  0
    3.5474   -0.1509    1.9902 H   0  0  0  0  0  0  0  0  0  0  0  0
    4.6656   -0.7486    3.1972 H   0  0  0  0  0  0  0  0  0  0  0  0
    4.6827    0.3270    5.6555 H   0  0  0  0  0  0  0  0  0  0  0  0
    5.5605    1.1887    4.4625 H   0  0  0  0  0  0  0  0  0  0  0  0
    4.2801    2.3084    6.8655 H   0  0  0  0  0  0  0  0  0  0  0  0
    5.6893    2.7360    6.0331 H   0  0  0  0  0  0  0  0  0  0  0  0
    3.8965    4.5273    6.0084 H   0  0  0  0  0  0  0  0  0  0  0  0
    4.6576    4.1046    4.5269 H   0  0  0  0  0  0  0  0  0  0  0  0
    3.4276    5.2263    3.2928 H   0  0  0  0  0  0  0  0  0  0  0  0
    2.1917    5.7465    4.4211 H   0  0  0  0  0  0  0  0  0  0  0  0
    1.8015    4.9420    2.8985 H   0  0  0  0  0  0  0  0  0  0  0  0
    3.7452    2.8214    2.8899 H   0  0  0  0  0  0  0  0  0  0  0  0
    1.4128    2.9142    1.9005 H   0  0  0  0  0  0  0  0  0  0  0  0
    2.4747    1.7115    1.3614 H   0  0  0  0  0  0  0  0  0  0  0  0
   -0.1298    1.1792    2.1669 H   0  0  0  0  0  0  0  0  0  0  0  0
    0.8943   -0.1662    0.8300 H   0  0  0  0  0  0  0  0  0  0  0  0
  1  2  1  0
  1 30  1  0
  1 31  1  0
  1 32  1  0
  2  3  1  0
  3  7  1  0
  3  4  1  0
  3 33  1  6
  4 17  1  0
  4  5  1  0
  4 34  1  0
  5  6  1  0
  5 35  1  0
  5 36  1  0
  6 24  1  0
  6  7  1  0
  6 37  1  1
  7  8  1  0
  7 38  1  6
  8 11  1  0
  8 16  1  0
  8  9  1  1
  9 10  1  0
  9 39  1  0
  9 40  1  0
 10 11  1  0
 11 12  1  1
 11 13  1  0
 12 41  1  0
 12 42  1  0
 12 43  1  0
 13 14  1  0
 13 15  1  0
 13 44  1  1
 14 45  1  0
 15 16  1  0
 15 17  1  0
 15 46  1  6
 16 47  1  0
 16 48  1  0
 17 28  1  0
 17 18  1  1
 18 19  1  0
 18 49  1  0
 18 50  1  0
 19 26  1  0
 19 20  1  6
 19 21  1  0
 20 51  1  0
 20 52  1  0
 20 53  1  0
 21 22  1  0
 21 54  1  0
 21 55  1  0
 22 23  1  0
 22 56  1  0
 22 57  1  0
 23 24  1  0
 23 58  1  0
 23 59  1  0
 24 25  1  6
 24 26  1  0
 25 60  1  0
 25 61  1  0
 25 62  1  0
 26 27  1  0
 26 63  1  6
 27 28  1  0
 27 64  1  0
 27 65  1  0
 28 29  1  0
 28 66  1  6
 29 67  1  0
M  END
>  <i_m_ct_stereo_status>  (197) 
1

>  <s_m_source_file>  (197) 
/var/tmp/pbs.5076255.sched01/tmpbnv9a_8s/88lo2bg1ru.sdf

>  <i_m_source_file_index>  (197) 
10

>  <i_lp_mmshare_version>  (197) 
48012

>  <i_f3d_flags>  (197) 
0

>  <s_epik_input>  (197) 
W0NIMl0xT1tDQEBdMihbQ0gzXSlbQ0BASF0oW09IXSlbQ0BASF0oW0NIMl0zKVtDQEBdKFtDQEBIXShbQ0gyXTQpW09IXSkoW0NAQEhdKFtDSDJdNSlbQ0BIXTZPW0NIM10pW0NIMl1bQ0BdKFtDSDNdKShbQ0gyXVtDSDJdW0NIMl03KVtDQEBIXTRbQ0BAXTcoW0NIM10pW0NASF01W0NAQEhdNltDQF0xMjM=

>  <s_epik_cmdline>  (197) 
J2VwaWtfcHl0aG9uJywgJy1waHQnLCAnMi4wJywgJy1waCcsICc3LjAnLCAnLXRuJywgJzgnLCAnLW1hJywgJzIwMCcsICctaW1hZScsICc8aW5maWxlLm1hZT4nLCAnLW9tYWUnLCAnPG91dGZpbGUubWFlPic=

>  <r_lp_tautomer_probability>  (197) 
1

>  <r_epik_Ionization_Penalty>  (197) 
1.54046e-06

>  <r_epik_Ionization_Penalty_Charging>  (197) 
0

>  <r_epik_Ionization_Penalty_Neutral>  (197) 
1.54046e-06

>  <r_epik_State_Penalty>  (197) 
-0

>  <r_epik_Charging_Adjusted_Penalty>  (197) 
0

>  <i_epik_Tot_Q>  (197) 
0

>  <i_epik_Tot_abs_Q>  (197) 
0

>  <s_lp_Force_Field>  (197) 
OPLS3e

>  <r_lp_Energy>  (197) 
413.206

>  <b_lp_Chiralities_Consistent>  (197) 
1

>  <s_lp_Variant>  (197) 
67:0-1

>  <s_i_glide_gridfile>  (197) 
pfpi4k_grid

>  <i_i_glide_lignum>  (197) 
10

>  <i_i_glide_rotatable_bonds>  (197) 
3

>  <r_i_docking_score>  (197) 
-2.48663

>  <r_i_glide_ligand_efficiency>  (197) 
-0.0857458

>  <r_i_glide_ligand_efficiency_sa>  (197) 
-0.263438

>  <r_i_glide_ligand_efficiency_ln>  (197) 
-0.569375

>  <r_i_glide_gscore>  (197) 
-2.48663

>  <r_i_glide_lipo>  (197) 
-0.108904

>  <r_i_glide_hbond>  (197) 
-0.305682

>  <r_i_glide_metal>  (197) 
-0

>  <r_i_glide_rewards>  (197) 
-0.664317

>  <r_i_glide_evdw>  (197) 
-6.44901

>  <r_i_glide_ecoul>  (197) 
-7.23518

>  <r_i_glide_erotb>  (197) 
0

>  <r_i_glide_esite>  (197) 
0

>  <r_i_glide_emodel>  (197) 
-11.9545

>  <r_i_glide_energy>  (197) 
-13.6842

>  <r_i_glide_einternal>  (197) 
0.961964

>  <r_i_glide_intrahb_reward>  (197) 
-0

>  <i_i_glide_confnum>  (197) 
1

>  <i_i_glide_posenum>  (197) 
3

>  <r_i_glide_eff_state_penalty>  (197) 
0

>  <ligand_id>  (197) 
67

>  <original_smiles>  (197) 
COC1C2CC3C1C14COC1(C)C(O)C(C4)C21CC2(C)CCCC3(C)C2CC1O

>  <smiles>  (197) 
[H]OC1([H])C2([H])C([H])([H])C3(C([H])([H])OC13C([H])([H])[H])C1([H])C([H])(OC([H])([H])[H])C3([H])C([H])([H])C1([H])C1(C([H])([H])[H])C([H])([H])C([H])([H])C([H])([H])C4(C([H])([H])[H])C([H])([H])C32C([H])(O[H])C([H])([H])C41[H]

$$$$
67:0:2
     RDKit          3D

 67 73  0  0  1  0  0  0  0  0999 V2000
   -3.2543    2.8031    3.4224 C   0  0  0  0  0  0  0  0  0  0  0  0
   -2.6415    2.5584    4.6784 O   0  0  0  0  0  0  0  0  0  0  0  0
   -1.3664    3.1508    4.9390 C   0  0  2  0  0  0  0  0  0  0  0  0
    0.0841    2.5396    5.3672 C   0  0  2  0  0  0  0  0  0  0  0  0
    0.9387    3.5624    6.1666 C   0  0  0  0  0  0  0  0  0  0  0  0
    0.1075    4.5619    5.6396 C   0  0  2  0  0  0  0  0  0  0  0  0
   -1.3249    3.8070    6.1893 C   0  0  2  0  0  0  0  0  0  0  0  0
   -1.5688    2.4743    7.2649 C   0  0  2  0  0  0  0  0  0  0  0  0
   -2.4856    2.6612    8.4543 C   0  0  0  0  0  0  0  0  0  0  0  0
   -1.7136    1.7034    9.2154 O   0  0  0  0  0  0  0  0  0  0  0  0
   -0.5682    1.9251    8.3515 C   0  0  2  0  0  0  0  0  0  0  0  0
    0.3154    2.7296    9.3153 C   0  0  0  0  0  0  0  0  0  0  0  0
    0.1548    0.6123    7.7782 C   0  0  1  0  0  0  0  0  0  0  0  0
   -0.0965   -0.5127    8.6040 O   0  0  0  0  0  0  0  0  0  0  0  0
   -0.3442    0.3605    6.2760 C   0  0  1  0  0  0  0  0  0  0  0  0
   -1.7435    1.0138    6.5602 C   0  0  0  0  0  0  0  0  0  0  0  0
    0.4115    1.1649    5.0271 C   0  0  2  0  0  0  0  0  0  0  0  0
    1.9816    1.2859    4.8552 C   0  0  0  0  0  0  0  0  0  0  0  0
    2.4226    2.3961    3.7563 C   0  0  2  0  0  0  0  0  0  0  0  0
    3.0006    1.5290    2.5951 C   0  0  0  0  0  0  0  0  0  0  0  0
    3.5831    3.3512    4.1816 C   0  0  0  0  0  0  0  0  0  0  0  0
    3.3577    4.8164    4.6386 C   0  0  0  0  0  0  0  0  0  0  0  0
    2.0899    5.4913    4.0949 C   0  0  0  0  0  0  0  0  0  0  0  0
    0.7698    4.6548    4.0641 C   0  0  2  0  0  0  0  0  0  0  0  0
   -0.1353    5.5915    3.1939 C   0  0  0  0  0  0  0  0  0  0  0  0
    1.2559    3.3019    3.1809 C   0  0  2  0  0  0  0  0  0  0  0  0
    0.1912    2.2673    2.6454 C   0  0  0  0  0  0  0  0  0  0  0  0
   -0.1626    1.0230    3.5841 C   0  0  1  0  0  0  0  0  0  0  0  0
    0.2982   -0.1796    3.0070 O   0  0  0  0  0  0  0  0  0  0  0  0
   -4.1719    2.2710    3.4417 H   0  0  0  0  0  0  0  0  0  0  0  0
   -2.7180    2.4091    2.5647 H   0  0  0  0  0  0  0  0  0  0  0  0
   -3.4841    3.8523    3.2588 H   0  0  0  0  0  0  0  0  0  0  0  0
   -1.4141    3.8670    4.1564 H   0  0  0  0  0  0  0  0  0  0  0  0
    0.4487    2.2714    6.3037 H   0  0  0  0  0  0  0  0  0  0  0  0
    0.8541    3.7664    7.2333 H   0  0  0  0  0  0  0  0  0  0  0  0
    1.9931    3.5395    6.0113 H   0  0  0  0  0  0  0  0  0  0  0  0
    0.2552    5.5051    6.1650 H   0  0  0  0  0  0  0  0  0  0  0  0
   -2.1371    4.5057    6.2627 H   0  0  0  0  0  0  0  0  0  0  0  0
   -2.4797    3.6506    8.9050 H   0  0  0  0  0  0  0  0  0  0  0  0
   -3.4900    2.3057    8.2590 H   0  0  0  0  0  0  0  0  0  0  0  0
    1.3567    2.7338    8.9941 H   0  0  0  0  0  0  0  0  0  0  0  0
    0.3114    2.2870   10.3080 H   0  0  0  0  0  0  0  0  0  0  0  0
   -0.0227    3.7563    9.4132 H   0  0  0  0  0  0  0  0  0  0  0  0
    1.2430    0.7354    7.7821 H   0  0  0  0  0  0  0  0  0  0  0  0
    0.2686   -0.3338    9.4532 H   0  0  0  0  0  0  0  0  0  0  0  0
   -0.4089   -0.7060    6.0530 H   0  0  0  0  0  0  0  0  0  0  0  0
   -2.2161    0.3659    7.2775 H   0  0  0  0  0  0  0  0  0  0  0  0
   -2.4795    0.8149    5.7987 H   0  0  0  0  0  0  0  0  0  0  0  0
    2.5099    1.4262    5.8056 H   0  0  0  0  0  0  0  0  0  0  0  0
    2.3315    0.3083    4.5373 H   0  0  0  0  0  0  0  0  0  0  0  0
    3.1931    2.1071    1.7040 H   0  0  0  0  0  0  0  0  0  0  0  0
    2.3438    0.7526    2.2257 H   0  0  0  0  0  0  0  0  0  0  0  0
    3.9154    1.0208    2.9003 H   0  0  0  0  0  0  0  0  0  0  0  0
    4.2526    2.8536    4.8722 H   0  0  0  0  0  0  0  0  0  0  0  0
    4.1405    3.5485    3.2782 H   0  0  0  0  0  0  0  0  0  0  0  0
    3.4253    4.9244    5.7219 H   0  0  0  0  0  0  0  0  0  0  0  0
    4.2058    5.4092    4.2877 H   0  0  0  0  0  0  0  0  0  0  0  0
    1.9329    6.4427    4.6084 H   0  0  0  0  0  0  0  0  0  0  0  0
    2.3582    5.7596    3.0691 H   0  0  0  0  0  0  0  0  0  0  0  0
    0.4104    6.0104    2.3579 H   0  0  0  0  0  0  0  0  0  0  0  0
   -0.5076    6.4451    3.7587 H   0  0  0  0  0  0  0  0  0  0  0  0
   -0.9832    5.1089    2.7079 H   0  0  0  0  0  0  0  0  0  0  0  0
    1.6592    3.7435    2.2737 H   0  0  0  0  0  0  0  0  0  0  0  0
   -0.6822    2.8443    2.3768 H   0  0  0  0  0  0  0  0  0  0  0  0
    0.5217    1.8810    1.6777 H   0  0  0  0  0  0  0  0  0  0  0  0
   -1.2403    0.8777    3.6036 H   0  0  0  0  0  0  0  0  0  0  0  0
    0.2298   -0.0821    2.0755 H   0  0  0  0  0  0  0  0  0  0  0  0
  1  2  1  0
  1 30  1  0
  1 31  1  0
  1 32  1  0
  2  3  1  0
  3  7  1  0
  3  4  1  0
  3 33  1  6
  4 17  1  0
  4  5  1  0
  4 34  1  6
  5  6  1  0
  5 35  1  0
  5 36  1  0
  6 24  1  0
  6  7  1  0
  6 37  1  1
  7  8  1  0
  7 38  1  6
  8 11  1  0
  8 16  1  0
  8  9  1  1
  9 10  1  0
  9 39  1  0
  9 40  1  0
 10 11  1  0
 11 12  1  1
 11 13  1  0
 12 41  1  0
 12 42  1  0
 12 43  1  0
 13 14  1  0
 13 15  1  0
 13 44  1  6
 14 45  1  0
 15 16  1  0
 15 17  1  0
 15 46  1  6
 16 47  1  0
 16 48  1  0
 17 28  1  0
 17 18  1  6
 18 19  1  0
 18 49  1  0
 18 50  1  0
 19 26  1  0
 19 20  1  6
 19 21  1  0
 20 51  1  0
 20 52  1  0
 20 53  1  0
 21 22  1  0
 21 54  1  0
 21 55  1  0
 22 23  1  0
 22 56  1  0
 22 57  1  0
 23 24  1  0
 23 58  1  0
 23 59  1  0
 24 25  1  6
 24 26  1  0
 25 60  1  0
 25 61  1  0
 25 62  1  0
 26 27  1  0
 26 63  1  6
 27 28  1  0
 27 64  1  0
 27 65  1  0
 28 29  1  0
 28 66  1  1
 29 67  1  0
M  END
>  <i_m_ct_stereo_status>  (198) 
1

>  <s_m_source_file>  (198) 
/var/tmp/pbs.5076255.sched01/tmpbnv9a_8s/88lo2bg1ru.sdf

>  <i_m_source_file_index>  (198) 
10

>  <i_lp_mmshare_version>  (198) 
48012

>  <i_f3d_flags>  (198) 
0

>  <s_epik_input>  (198) 
W0NIMl0xT1tDQEBdMihbQ0gzXSlbQ0BASF0oW09IXSlbQ0BASF0oW0NIMl0zKVtDQEBdKFtDQEBIXShbQ0gyXTQpW09IXSkoW0NAQEhdKFtDSDJdNSlbQ0BIXTZPW0NIM10pW0NIMl1bQ0BdKFtDSDNdKShbQ0gyXVtDSDJdW0NIMl03KVtDQEBIXTRbQ0BAXTcoW0NIM10pW0NASF01W0NAQEhdNltDQF0xMjM=

>  <s_epik_cmdline>  (198) 
J2VwaWtfcHl0aG9uJywgJy1waHQnLCAnMi4wJywgJy1waCcsICc3LjAnLCAnLXRuJywgJzgnLCAnLW1hJywgJzIwMCcsICctaW1hZScsICc8aW5maWxlLm1hZT4nLCAnLW9tYWUnLCAnPG91dGZpbGUubWFlPic=

>  <r_lp_tautomer_probability>  (198) 
1

>  <r_epik_Ionization_Penalty>  (198) 
1.54046e-06

>  <r_epik_Ionization_Penalty_Charging>  (198) 
0

>  <r_epik_Ionization_Penalty_Neutral>  (198) 
1.54046e-06

>  <r_epik_State_Penalty>  (198) 
-0

>  <r_epik_Charging_Adjusted_Penalty>  (198) 
0

>  <i_epik_Tot_Q>  (198) 
0

>  <i_epik_Tot_abs_Q>  (198) 
0

>  <s_lp_Force_Field>  (198) 
OPLS3e

>  <r_lp_Energy>  (198) 
413.206

>  <b_lp_Chiralities_Consistent>  (198) 
1

>  <s_lp_Variant>  (198) 
67:0-1

>  <s_i_glide_gridfile>  (198) 
pfpi4k_grid

>  <i_i_glide_lignum>  (198) 
10

>  <i_i_glide_rotatable_bonds>  (198) 
3

>  <r_i_docking_score>  (198) 
-1.21858

>  <r_i_glide_ligand_efficiency>  (198) 
-0.0420201

>  <r_i_glide_ligand_efficiency_sa>  (198) 
-0.129099

>  <r_i_glide_ligand_efficiency_ln>  (198) 
-0.279024

>  <r_i_glide_gscore>  (198) 
-1.21858

>  <r_i_glide_lipo>  (198) 
-0.0320675

>  <r_i_glide_hbond>  (198) 
0

>  <r_i_glide_metal>  (198) 
-0

>  <r_i_glide_rewards>  (198) 
-0.664317

>  <r_i_glide_evdw>  (198) 
-5.81151

>  <r_i_glide_ecoul>  (198) 
-1.54414

>  <r_i_glide_erotb>  (198) 
0

>  <r_i_glide_esite>  (198) 
0

>  <r_i_glide_emodel>  (198) 
-4.39237

>  <r_i_glide_energy>  (198) 
-7.35565

>  <r_i_glide_einternal>  (198) 
4.8166

>  <r_i_glide_intrahb_reward>  (198) 
-0

>  <i_i_glide_confnum>  (198) 
2

>  <i_i_glide_posenum>  (198) 
2

>  <r_i_glide_eff_state_penalty>  (198) 
0

>  <ligand_id>  (198) 
67

>  <original_smiles>  (198) 
COC1C2CC3C1C14COC1(C)C(O)C(C4)C21CC2(C)CCCC3(C)C2CC1O

>  <smiles>  (198) 
[H]OC1([H])C2([H])C([H])([H])C3(C([H])([H])OC13C([H])([H])[H])C1([H])C([H])(OC([H])([H])[H])C3([H])C([H])([H])C1([H])C1(C([H])([H])[H])C([H])([H])C([H])([H])C([H])([H])C4(C([H])([H])[H])C([H])([H])C32C([H])(O[H])C([H])([H])C41[H]

$$$$
68:0:0
     RDKit          3D

 56 63  0  0  1  0  0  0  0  0999 V2000
    8.1401   -7.1211    2.5997 C   0  0  0  0  0  0  0  0  0  0  0  0
    7.1663   -6.1818    2.1983 O   0  0  0  0  0  0  0  0  0  0  0  0
    7.4498   -5.1955    1.3500 C   0  0  0  0  0  0  0  0  0  0  0  0
    8.5385   -5.0565    0.7980 O   0  0  0  0  0  0  0  0  0  0  0  0
    6.2257   -4.2562    1.0433 C   0  0  1  0  0  0  0  0  0  0  0  0
    6.8558   -2.8316    0.1363 C   0  0  2  0  0  0  0  0  0  0  0  0
    6.5775   -1.5013    0.9157 C   0  0  0  0  0  0  0  0  0  0  0  0
    5.0047   -1.2570    1.0164 C   0  0  1  0  0  0  0  0  0  0  0  0
    3.9326   -1.1041   -0.0026 C   0  0  1  0  0  0  0  0  0  0  0  0
    4.9713   -1.0914   -1.2995 C   0  0  2  0  0  0  0  0  0  0  0  0
    4.4095   -1.9471   -2.3557 C   0  0  0  0  0  0  0  0  0  0  0  0
    4.8555   -2.9156   -1.2328 C   0  0  1  0  0  0  0  0  0  0  0  0
    6.1568   -2.2624   -1.2201 C   0  0  2  0  0  0  0  0  0  0  0  0
    4.4082   -2.5651    0.4407 C   0  0  2  0  0  0  0  0  0  0  0  0
    3.8487   -3.3206    1.6673 C   0  0  1  0  0  0  0  0  0  0  0  0
    2.9753   -2.5413    0.5329 C   0  0  2  0  0  0  0  0  0  0  0  0
    2.5579   -3.9549   -0.3139 C   0  0  1  0  0  0  0  0  0  0  0  0
    1.8508   -3.8091   -1.6829 C   0  0  0  0  0  0  0  0  0  0  0  0
    3.6529   -5.0704   -0.2974 O   0  0  0  0  0  0  0  0  0  0  0  0
    4.7442   -5.2630    0.7835 C   0  0  2  0  0  0  0  0  0  0  0  0
    3.6567   -4.8774    1.8475 C   0  0  1  0  0  0  0  0  0  0  0  0
    3.6964   -5.3265    3.3684 C   0  0  1  0  0  0  0  0  0  0  0  0
    4.3527   -6.6906    3.6621 C   0  0  0  0  0  0  0  0  0  0  0  0
    4.2455   -4.1927    4.2752 C   0  0  0  0  0  0  0  0  0  0  0  0
    5.4125   -3.4876    3.6641 N   0  0  0  0  0  0  0  0  0  0  0  0
    5.3750   -3.4882    2.1778 C   0  0  2  0  0  0  0  0  0  0  0  0
    7.6667   -7.7916    3.3121 H   0  0  0  0  0  0  0  0  0  0  0  0
    8.9795   -6.6423    3.1055 H   0  0  0  0  0  0  0  0  0  0  0  0
    8.5071   -7.7223    1.7660 H   0  0  0  0  0  0  0  0  0  0  0  0
    7.9402   -2.8985   -0.0233 H   0  0  0  0  0  0  0  0  0  0  0  0
    7.0083   -1.5443    1.9118 H   0  0  0  0  0  0  0  0  0  0  0  0
    7.0786   -0.6526    0.4390 H   0  0  0  0  0  0  0  0  0  0  0  0
    4.6550   -0.9673    2.0131 H   0  0  0  0  0  0  0  0  0  0  0  0
    3.4079   -0.1589    0.1354 H   0  0  0  0  0  0  0  0  0  0  0  0
    5.3394   -0.1387   -1.6817 H   0  0  0  0  0  0  0  0  0  0  0  0
    3.3408   -1.7524   -2.4783 H   0  0  0  0  0  0  0  0  0  0  0  0
    4.9651   -1.9575   -3.2893 H   0  0  0  0  0  0  0  0  0  0  0  0
    4.9485   -3.9226   -1.7401 H   0  0  0  0  0  0  0  0  0  0  0  0
    6.7184   -2.3911   -2.1447 H   0  0  0  0  0  0  0  0  0  0  0  0
    4.7787   -3.3404   -0.0596 H   0  0  0  0  0  0  0  0  0  0  0  0
    2.0495   -2.1334    0.9822 H   0  0  0  0  0  0  0  0  0  0  0  0
    1.7234   -4.3439    0.2465 H   0  0  0  0  0  0  0  0  0  0  0  0
    1.2144   -2.9471   -1.7823 H   0  0  0  0  0  0  0  0  0  0  0  0
    1.2016   -4.6779   -1.8444 H   0  0  0  0  0  0  0  0  0  0  0  0
    2.5540   -3.8255   -2.5153 H   0  0  0  0  0  0  0  0  0  0  0  0
    4.9779   -6.3234    0.8234 H   0  0  0  0  0  0  0  0  0  0  0  0
    2.6835   -5.3154    1.6370 H   0  0  0  0  0  0  0  0  0  0  0  0
    2.6689   -5.4446    3.6950 H   0  0  0  0  0  0  0  0  0  0  0  0
    5.4219   -6.6523    3.5799 H   0  0  0  0  0  0  0  0  0  0  0  0
    3.9616   -7.4736    3.0039 H   0  0  0  0  0  0  0  0  0  0  0  0
    4.1836   -6.9880    4.7025 H   0  0  0  0  0  0  0  0  0  0  0  0
    3.4505   -3.4454    4.4335 H   0  0  0  0  0  0  0  0  0  0  0  0
    4.5016   -4.5626    5.2741 H   0  0  0  0  0  0  0  0  0  0  0  0
    5.3761   -2.5313    4.0021 H   0  0  0  0  0  0  0  0  0  0  0  0
    5.6878   -4.4228    2.6124 H   0  0  0  0  0  0  0  0  0  0  0  0
    6.2606   -3.9314    3.9700 H   0  0  0  0  0  0  0  0  0  0  0  0
  1  2  1  0
  1 27  1  0
  1 28  1  0
  1 29  1  0
  2  3  1  0
  3  4  2  0
  5  3  1  1
  5 20  1  0
  5 26  1  0
  5  6  1  0
  6 13  1  0
  6  7  1  0
  6 30  1  6
  7  8  1  0
  7 31  1  0
  7 32  1  0
  8 14  1  0
  8  9  1  0
  8 33  1  1
  9 16  1  0
  9 10  1  0
  9 34  1  1
 10 13  1  0
 10 11  1  0
 10 35  1  6
 11 12  1  0
 11 36  1  0
 11 37  1  0
 12 13  1  0
 12 14  1  0
 12 38  1  6
 13 39  1  6
 14 15  1  0
 14 40  1  6
 15 21  1  0
 15 26  1  1
 15 16  1  0
 16 17  1  0
 16 41  1  1
 17 18  1  0
 17 19  1  0
 17 42  1  1
 18 43  1  0
 18 44  1  0
 18 45  1  0
 19 20  1  0
 20 21  1  0
 20 46  1  1
 21 22  1  0
 21 47  1  6
 22 23  1  0
 22 24  1  0
 22 48  1  1
 23 49  1  0
 23 50  1  0
 23 51  1  0
 24 25  1  0
 24 52  1  0
 24 53  1  0
 25 26  1  0
 25 54  1  0
 25 56  1  0
 26 55  1  6
M  CHG  1  25   1
M  END
>  <i_m_ct_stereo_status>  (199) 
1

>  <s_m_source_file>  (199) 
/var/tmp/pbs.5076255.sched01/tmpbnv9a_8s/88lo2bg1ru.sdf

>  <i_m_source_file_index>  (199) 
11

>  <i_lp_mmshare_version>  (199) 
48012

>  <i_f3d_flags>  (199) 
0

>  <s_epik_input>  (199) 
W0NAQEhdMTJbTkhdW0NIMl1bQ0BIXShbQ0gzXSlbQ0hdM1tDQEBIXShPW0NAQEhdKFtDQEhdNDUpW0NIM10pW0NAQF0xKEMoPU8pT1tDSDNdKVtDQEhdKFtDSDJdNilbQ0BASF0oW0NAQEhdN1tDSDJdOClbQ0BASF04W0NAQEhdNFtDQEhdNltDQEBIXTdbQ0BdMjM1

>  <s_epik_cmdline>  (199) 
J2VwaWtfcHl0aG9uJywgJy1waHQnLCAnMi4wJywgJy1waCcsICc3LjAnLCAnLXRuJywgJzgnLCAnLW1hJywgJzIwMCcsICctaW1hZScsICc8aW5maWxlLm1hZT4nLCAnLW9tYWUnLCAnPG91dGZpbGUubWFlPic=

>  <r_epik_Ionization_Penalty>  (199) 
0.00268516

>  <r_epik_Ionization_Penalty_Charging>  (199) 
0.00268516

>  <r_epik_Ionization_Penalty_Neutral>  (199) 
4.26907e-13

>  <r_epik_State_Penalty>  (199) 
0.00187119

>  <r_epik_Charging_Adjusted_Penalty>  (199) 
0.00455635

>  <i_epik_Tot_Q>  (199) 
1

>  <i_epik_Tot_abs_Q>  (199) 
1

>  <s_epik_Chemistry_Notes>  (199) 
This compound has an ester and may undergo hydrolysis at high or low pH.

>  <s_lp_Force_Field>  (199) 
OPLS3e

>  <r_lp_Energy>  (199) 
754.421

>  <b_lp_Chiralities_Consistent>  (199) 
1

>  <s_lp_Variant>  (199) 
68:0-1

>  <s_i_glide_gridfile>  (199) 
pfpi4k_grid

>  <i_i_glide_lignum>  (199) 
11

>  <i_i_glide_rotatable_bonds>  (199) 
2

>  <r_i_docking_score>  (199) 
-2.74557

>  <r_i_glide_ligand_efficiency>  (199) 
-0.105599

>  <r_i_glide_ligand_efficiency_sa>  (199) 
-0.312836

>  <r_i_glide_ligand_efficiency_ln>  (199) 
-0.644787

>  <r_i_glide_gscore>  (199) 
-2.74557

>  <r_i_glide_lipo>  (199) 
-0.414945

>  <r_i_glide_hbond>  (199) 
0

>  <r_i_glide_metal>  (199) 
-0

>  <r_i_glide_rewards>  (199) 
-1.12908

>  <r_i_glide_evdw>  (199) 
-23.2262

>  <r_i_glide_ecoul>  (199) 
-1.27194

>  <r_i_glide_erotb>  (199) 
0.150561

>  <r_i_glide_esite>  (199) 
0

>  <r_i_glide_emodel>  (199) 
-26.4868

>  <r_i_glide_energy>  (199) 
-24.4982

>  <r_i_glide_einternal>  (199) 
1.47695

>  <r_i_glide_intrahb_reward>  (199) 
-0

>  <i_i_glide_confnum>  (199) 
1

>  <i_i_glide_posenum>  (199) 
23

>  <r_i_glide_eff_state_penalty>  (199) 
0

>  <ligand_id>  (199) 
68

>  <original_smiles>  (199) 
COC(=O)C12C3CC4C5C6CC(C63)C4C34C5C(C)OC1C3C(C)CNC24

>  <smiles>  (199) 
[H]C([H])([H])OC(=O)C12C3([H])OC([H])(C([H])([H])[H])C4([H])C5([H])C6([H])C([H])([H])C7([H])C6([H])C1([H])C([H])([H])C5([H])C7([H])C41C3([H])C([H])(C([H])([H])[H])C([H])([H])[N+]([H])([H])C21[H]

$$$$
68:0:1
     RDKit          3D

 56 63  0  0  1  0  0  0  0  0999 V2000
    7.7724   -7.6678    1.2975 C   0  0  0  0  0  0  0  0  0  0  0  0
    7.0412   -6.5133    0.9136 O   0  0  0  0  0  0  0  0  0  0  0  0
    6.7385   -5.5851    1.8320 C   0  0  0  0  0  0  0  0  0  0  0  0
    7.0892   -5.6160    3.0116 O   0  0  0  0  0  0  0  0  0  0  0  0
    5.8461   -4.4450    1.2484 C   0  0  1  0  0  0  0  0  0  0  0  0
    6.8899   -3.4634    0.1652 C   0  0  2  0  0  0  0  0  0  0  0  0
    6.9439   -1.9694    0.6448 C   0  0  0  0  0  0  0  0  0  0  0  0
    5.4979   -1.3106    0.5623 C   0  0  1  0  0  0  0  0  0  0  0  0
    4.5451   -1.0734   -0.5488 C   0  0  1  0  0  0  0  0  0  0  0  0
    5.5951   -1.5854   -1.7282 C   0  0  2  0  0  0  0  0  0  0  0  0
    4.8635   -2.4583   -2.6562 C   0  0  0  0  0  0  0  0  0  0  0  0
    5.0013   -3.2757   -1.3531 C   0  0  1  0  0  0  0  0  0  0  0  0
    6.4271   -2.9867   -1.3418 C   0  0  2  0  0  0  0  0  0  0  0  0
    4.6000   -2.5092    0.1917 C   0  0  2  0  0  0  0  0  0  0  0  0
    3.8124   -2.8363    1.4719 C   0  0  1  0  0  0  0  0  0  0  0  0
    3.2289   -2.0867    0.1540 C   0  0  2  0  0  0  0  0  0  0  0  0
    2.4784   -3.4699   -0.4878 C   0  0  1  0  0  0  0  0  0  0  0  0
    1.9070   -3.4649   -1.9210 C   0  0  0  0  0  0  0  0  0  0  0  0
    3.2059   -4.8160   -0.1607 O   0  0  0  0  0  0  0  0  0  0  0  0
    4.1708   -5.0720    1.0243 C   0  0  2  0  0  0  0  0  0  0  0  0
    3.1980   -4.2157    1.9052 C   0  0  1  0  0  0  0  0  0  0  0  0
    3.0910   -4.3653    3.4829 C   0  0  1  0  0  0  0  0  0  0  0  0
    3.4195   -5.7728    4.0241 C   0  0  0  0  0  0  0  0  0  0  0  0
    3.8754   -3.2468    4.2320 C   0  0  0  0  0  0  0  0  0  0  0  0
    5.2153   -3.0049    3.6061 N   0  0  0  0  0  0  0  0  0  0  0  0
    5.2135   -3.2830    2.1453 C   0  0  2  0  0  0  0  0  0  0  0  0
    8.0046   -8.2909    0.4363 H   0  0  0  0  0  0  0  0  0  0  0  0
    7.1979   -8.2728    1.9951 H   0  0  0  0  0  0  0  0  0  0  0  0
    8.7086   -7.4002    1.7778 H   0  0  0  0  0  0  0  0  0  0  0  0
    7.8973   -3.8804    0.1374 H   0  0  0  0  0  0  0  0  0  0  0  0
    7.2876   -1.9304    1.6730 H   0  0  0  0  0  0  0  0  0  0  0  0
    7.6829   -1.3960    0.0811 H   0  0  0  0  0  0  0  0  0  0  0  0
    5.2096   -0.7473    1.4545 H   0  0  0  0  0  0  0  0  0  0  0  0
    4.2800   -0.0257   -0.6430 H   0  0  0  0  0  0  0  0  0  0  0  0
    6.1828   -0.8169   -2.2154 H   0  0  0  0  0  0  0  0  0  0  0  0
    3.8865   -2.0439   -2.9018 H   0  0  0  0  0  0  0  0  0  0  0  0
    5.4186   -2.7991   -3.5289 H   0  0  0  0  0  0  0  0  0  0  0  0
    4.8450   -4.3423   -1.6535 H   0  0  0  0  0  0  0  0  0  0  0  0
    6.9927   -3.4188   -2.1729 H   0  0  0  0  0  0  0  0  0  0  0  0
    4.7592   -3.4368   -0.1542 H   0  0  0  0  0  0  0  0  0  0  0  0
    2.4434   -1.3963    0.4811 H   0  0  0  0  0  0  0  0  0  0  0  0
    1.5485   -3.4805    0.0399 H   0  0  0  0  0  0  0  0  0  0  0  0
    1.5439   -2.4850   -2.2794 H   0  0  0  0  0  0  0  0  0  0  0  0
    1.0474   -4.1262   -1.9155 H   0  0  0  0  0  0  0  0  0  0  0  0
    2.5934   -3.8494   -2.6661 H   0  0  0  0  0  0  0  0  0  0  0  0
    4.1189   -6.1294    1.2795 H   0  0  0  0  0  0  0  0  0  0  0  0
    2.1463   -4.4028    1.6871 H   0  0  0  0  0  0  0  0  0  0  0  0
    2.0452   -4.1971    3.7538 H   0  0  0  0  0  0  0  0  0  0  0  0
    4.4728   -6.0311    3.9017 H   0  0  0  0  0  0  0  0  0  0  0  0
    2.8189   -6.5380    3.5299 H   0  0  0  0  0  0  0  0  0  0  0  0
    3.1990   -5.8283    5.0925 H   0  0  0  0  0  0  0  0  0  0  0  0
    3.2992   -2.3207    4.1727 H   0  0  0  0  0  0  0  0  0  0  0  0
    3.9763   -3.4698    5.2952 H   0  0  0  0  0  0  0  0  0  0  0  0
    5.4235   -2.0334    3.7608 H   0  0  0  0  0  0  0  0  0  0  0  0
    5.2418   -4.1585    2.7676 H   0  0  0  0  0  0  0  0  0  0  0  0
    5.9085   -3.5799    4.0605 H   0  0  0  0  0  0  0  0  0  0  0  0
  1  2  1  0
  1 27  1  0
  1 28  1  0
  1 29  1  0
  2  3  1  0
  3  4  2  0
  5  3  1  1
  5 20  1  0
  5 26  1  0
  5  6  1  0
  6 13  1  0
  6  7  1  0
  6 30  1  6
  7  8  1  0
  7 31  1  0
  7 32  1  0
  8 14  1  0
  8  9  1  0
  8 33  1  1
  9 16  1  0
  9 10  1  0
  9 34  1  6
 10 13  1  0
 10 11  1  0
 10 35  1  6
 11 12  1  0
 11 36  1  0
 11 37  1  0
 12 13  1  0
 12 14  1  0
 12 38  1  6
 13 39  1  6
 14 15  1  0
 14 40  1  6
 15 21  1  0
 15 26  1  1
 15 16  1  0
 16 17  1  0
 16 41  1  1
 17 18  1  0
 17 19  1  0
 17 42  1  1
 18 43  1  0
 18 44  1  0
 18 45  1  0
 19 20  1  0
 20 21  1  0
 20 46  1  1
 21 22  1  0
 21 47  1  6
 22 23  1  0
 22 24  1  0
 22 48  1  6
 23 49  1  0
 23 50  1  0
 23 51  1  0
 24 25  1  0
 24 52  1  0
 24 53  1  0
 25 26  1  0
 25 54  1  0
 25 56  1  0
 26 55  1  6
M  CHG  1  25   1
M  END
>  <i_m_ct_stereo_status>  (200) 
1

>  <s_m_source_file>  (200) 
/var/tmp/pbs.5076255.sched01/tmpbnv9a_8s/88lo2bg1ru.sdf

>  <i_m_source_file_index>  (200) 
11

>  <i_lp_mmshare_version>  (200) 
48012

>  <i_f3d_flags>  (200) 
0

>  <s_epik_input>  (200) 
W0NAQEhdMTJbTkhdW0NIMl1bQ0BIXShbQ0gzXSlbQ0hdM1tDQEBIXShPW0NAQEhdKFtDQEhdNDUpW0NIM10pW0NAQF0xKEMoPU8pT1tDSDNdKVtDQEhdKFtDSDJdNilbQ0BASF0oW0NAQEhdN1tDSDJdOClbQ0BASF04W0NAQEhdNFtDQEhdNltDQEBIXTdbQ0BdMjM1

>  <s_epik_cmdline>  (200) 
J2VwaWtfcHl0aG9uJywgJy1waHQnLCAnMi4wJywgJy1waCcsICc3LjAnLCAnLXRuJywgJzgnLCAnLW1hJywgJzIwMCcsICctaW1hZScsICc8aW5maWxlLm1hZT4nLCAnLW9tYWUnLCAnPG91dGZpbGUubWFlPic=

>  <r_epik_Ionization_Penalty>  (200) 
0.00268516

>  <r_epik_Ionization_Penalty_Charging>  (200) 
0.00268516

>  <r_epik_Ionization_Penalty_Neutral>  (200) 
4.26907e-13

>  <r_epik_State_Penalty>  (200) 
0.00187119

>  <r_epik_Charging_Adjusted_Penalty>  (200) 
0.00455635

>  <i_epik_Tot_Q>  (200) 
1

>  <i_epik_Tot_abs_Q>  (200) 
1

>  <s_epik_Chemistry_Notes>  (200) 
This compound has an ester and may undergo hydrolysis at high or low pH.

>  <s_lp_Force_Field>  (200) 
OPLS3e

>  <r_lp_Energy>  (200) 
754.421

>  <b_lp_Chiralities_Consistent>  (200) 
1

>  <s_lp_Variant>  (200) 
68:0-1

>  <s_i_glide_gridfile>  (200) 
pfpi4k_grid

>  <i_i_glide_lignum>  (200) 
11

>  <i_i_glide_rotatable_bonds>  (200) 
2

>  <r_i_docking_score>  (200) 
-2.74087

>  <r_i_glide_ligand_efficiency>  (200) 
-0.105418

>  <r_i_glide_ligand_efficiency_sa>  (200) 
-0.3123

>  <r_i_glide_ligand_efficiency_ln>  (200) 
-0.643683

>  <r_i_glide_gscore>  (200) 
-2.74087

>  <r_i_glide_lipo>  (200) 
-0.729375

>  <r_i_glide_hbond>  (200) 
0

>  <r_i_glide_metal>  (200) 
-0

>  <r_i_glide_rewards>  (200) 
-1.06749

>  <r_i_glide_evdw>  (200) 
-17.995

>  <r_i_glide_ecoul>  (200) 
-1.29879

>  <r_i_glide_erotb>  (200) 
0.150561

>  <r_i_glide_esite>  (200) 
0

>  <r_i_glide_emodel>  (200) 
-22.233

>  <r_i_glide_energy>  (200) 
-19.2937

>  <r_i_glide_einternal>  (200) 
0.488826

>  <r_i_glide_intrahb_reward>  (200) 
-0

>  <i_i_glide_confnum>  (200) 
5

>  <i_i_glide_posenum>  (200) 
1

>  <r_i_glide_eff_state_penalty>  (200) 
0

>  <ligand_id>  (200) 
68

>  <original_smiles>  (200) 
COC(=O)C12C3CC4C5C6CC(C63)C4C34C5C(C)OC1C3C(C)CNC24

>  <smiles>  (200) 
[H]C([H])([H])OC(=O)C12C3([H])OC([H])(C([H])([H])[H])C4([H])C5([H])C6([H])C([H])([H])C7([H])C6([H])C1([H])C([H])([H])C5([H])C7([H])C41C3([H])C([H])(C([H])([H])[H])C([H])([H])[N+]([H])([H])C21[H]

$$$$
68:0:2
     RDKit          3D

 56 63  0  0  1  0  0  0  0  0999 V2000
    9.1623   -5.4628    1.7815 C   0  0  0  0  0  0  0  0  0  0  0  0
    8.1160   -4.6551    1.2938 O   0  0  0  0  0  0  0  0  0  0  0  0
    6.9177   -5.2139    1.1072 C   0  0  0  0  0  0  0  0  0  0  0  0
    6.6181   -6.3808    1.3619 O   0  0  0  0  0  0  0  0  0  0  0  0
    5.8863   -4.2325    0.5108 C   0  0  1  0  0  0  0  0  0  0  0  0
    6.6536   -3.4860   -0.9413 C   0  0  2  0  0  0  0  0  0  0  0  0
    6.7820   -1.9592   -0.7533 C   0  0  0  0  0  0  0  0  0  0  0  0
    5.3520   -1.2660   -0.6894 C   0  0  1  0  0  0  0  0  0  0  0  0
    4.1675   -1.2439   -1.5809 C   0  0  1  0  0  0  0  0  0  0  0  0
    4.9292   -1.9952   -2.8409 C   0  0  2  0  0  0  0  0  0  0  0  0
    4.0357   -3.0111   -3.4101 C   0  0  0  0  0  0  0  0  0  0  0  0
    4.4874   -3.5578   -2.0367 C   0  0  1  0  0  0  0  0  0  0  0  0
    5.8615   -3.2923   -2.3737 C   0  0  2  0  0  0  0  0  0  0  0  0
    4.4148   -2.5003   -0.6199 C   0  0  2  0  0  0  0  0  0  0  0  0
    3.9634   -2.5673    0.8527 C   0  0  1  0  0  0  0  0  0  0  0  0
    3.0986   -2.0711   -0.3950 C   0  0  2  0  0  0  0  0  0  0  0  0
    2.2451   -3.5162   -0.5867 C   0  0  1  0  0  0  0  0  0  0  0  0
    1.3934   -3.7792   -1.8305 C   0  0  0  0  0  0  0  0  0  0  0  0
    3.0250   -4.7944   -0.1839 O   0  0  0  0  0  0  0  0  0  0  0  0
    4.2145   -4.8297    0.7894 C   0  0  2  0  0  0  0  0  0  0  0  0
    3.4480   -3.8009    1.6702 C   0  0  1  0  0  0  0  0  0  0  0  0
    3.6917   -3.6311    3.2247 C   0  0  1  0  0  0  0  0  0  0  0  0
    4.1547   -4.9037    3.9484 C   0  0  0  0  0  0  0  0  0  0  0  0
    4.6006   -2.4001    3.5322 C   0  0  0  0  0  0  0  0  0  0  0  0
    5.7546   -2.3206    2.6030 N   0  0  0  0  0  0  0  0  0  0  0  0
    5.4661   -2.8825    1.2705 C   0  0  2  0  0  0  0  0  0  0  0  0
   10.0653   -4.8684    1.8726 H   0  0  0  0  0  0  0  0  0  0  0  0
    9.3741   -6.2736    1.0876 H   0  0  0  0  0  0  0  0  0  0  0  0
    8.9295   -5.8858    2.7575 H   0  0  0  0  0  0  0  0  0  0  0  0
    7.6526   -3.8714   -1.1038 H   0  0  0  0  0  0  0  0  0  0  0  0
    7.3961   -1.7160    0.1197 H   0  0  0  0  0  0  0  0  0  0  0  0
    7.3213   -1.6310   -1.6317 H   0  0  0  0  0  0  0  0  0  0  0  0
    5.2392   -0.5172    0.1183 H   0  0  0  0  0  0  0  0  0  0  0  0
    3.8451   -0.2596   -1.8813 H   0  0  0  0  0  0  0  0  0  0  0  0
    5.3296   -1.3595   -3.6218 H   0  0  0  0  0  0  0  0  0  0  0  0
    3.0149   -2.6196   -3.5026 H   0  0  0  0  0  0  0  0  0  0  0  0
    4.3814   -3.5294   -4.3041 H   0  0  0  0  0  0  0  0  0  0  0  0
    4.3210   -4.6618   -2.0849 H   0  0  0  0  0  0  0  0  0  0  0  0
    6.2487   -3.8538   -3.2297 H   0  0  0  0  0  0  0  0  0  0  0  0
    4.5127   -3.4880   -0.8009 H   0  0  0  0  0  0  0  0  0  0  0  0
    2.5381   -1.3001    0.1597 H   0  0  0  0  0  0  0  0  0  0  0  0
    1.4539   -3.3222    0.1002 H   0  0  0  0  0  0  0  0  0  0  0  0
    0.9713   -2.8668   -2.2281 H   0  0  0  0  0  0  0  0  0  0  0  0
    0.5464   -4.4188   -1.5454 H   0  0  0  0  0  0  0  0  0  0  0  0
    1.8945   -4.2413   -2.6730 H   0  0  0  0  0  0  0  0  0  0  0  0
    4.1996   -5.8236    1.2449 H   0  0  0  0  0  0  0  0  0  0  0  0
    2.3777   -3.9806    1.7200 H   0  0  0  0  0  0  0  0  0  0  0  0
    2.7327   -3.3785    3.6723 H   0  0  0  0  0  0  0  0  0  0  0  0
    5.1562   -5.2081    3.6549 H   0  0  0  0  0  0  0  0  0  0  0  0
    3.4746   -5.7294    3.7606 H   0  0  0  0  0  0  0  0  0  0  0  0
    4.1699   -4.7416    5.0258 H   0  0  0  0  0  0  0  0  0  0  0  0
    4.0033   -1.4846    3.4314 H   0  0  0  0  0  0  0  0  0  0  0  0
    4.9315   -2.4040    4.5752 H   0  0  0  0  0  0  0  0  0  0  0  0
    5.9744   -1.3270    2.4956 H   0  0  0  0  0  0  0  0  0  0  0  0
    5.6398   -3.6217    2.0360 H   0  0  0  0  0  0  0  0  0  0  0  0
    6.5547   -2.7925    3.0083 H   0  0  0  0  0  0  0  0  0  0  0  0
  1  2  1  0
  1 27  1  0
  1 28  1  0
  1 29  1  0
  2  3  1  0
  3  4  2  0
  5  3  1  1
  5 20  1  0
  5 26  1  0
  5  6  1  0
  6 13  1  0
  6  7  1  0
  6 30  1  6
  7  8  1  0
  7 31  1  0
  7 32  1  0
  8 14  1  0
  8  9  1  0
  8 33  1  1
  9 16  1  0
  9 10  1  0
  9 34  1  6
 10 13  1  0
 10 11  1  0
 10 35  1  6
 11 12  1  0
 11 36  1  0
 11 37  1  0
 12 13  1  0
 12 14  1  0
 12 38  1  1
 13 39  1  6
 14 15  1  0
 14 40  1  6
 15 21  1  0
 15 26  1  1
 15 16  1  0
 16 17  1  0
 16 41  1  1
 17 18  1  0
 17 19  1  0
 17 42  1  1
 18 43  1  0
 18 44  1  0
 18 45  1  0
 19 20  1  0
 20 21  1  0
 20 46  1  1
 21 22  1  0
 21 47  1  1
 22 23  1  0
 22 24  1  0
 22 48  1  1
 23 49  1  0
 23 50  1  0
 23 51  1  0
 24 25  1  0
 24 52  1  0
 24 53  1  0
 25 26  1  0
 25 54  1  0
 25 56  1  0
 26 55  1  6
M  CHG  1  25   1
M  END
>  <i_m_ct_stereo_status>  (201) 
1

>  <s_m_source_file>  (201) 
/var/tmp/pbs.5076255.sched01/tmpbnv9a_8s/88lo2bg1ru.sdf

>  <i_m_source_file_index>  (201) 
11

>  <i_lp_mmshare_version>  (201) 
48012

>  <i_f3d_flags>  (201) 
0

>  <s_epik_input>  (201) 
W0NAQEhdMTJbTkhdW0NIMl1bQ0BIXShbQ0gzXSlbQ0hdM1tDQEBIXShPW0NAQEhdKFtDQEhdNDUpW0NIM10pW0NAQF0xKEMoPU8pT1tDSDNdKVtDQEhdKFtDSDJdNilbQ0BASF0oW0NAQEhdN1tDSDJdOClbQ0BASF04W0NAQEhdNFtDQEhdNltDQEBIXTdbQ0BdMjM1

>  <s_epik_cmdline>  (201) 
J2VwaWtfcHl0aG9uJywgJy1waHQnLCAnMi4wJywgJy1waCcsICc3LjAnLCAnLXRuJywgJzgnLCAnLW1hJywgJzIwMCcsICctaW1hZScsICc8aW5maWxlLm1hZT4nLCAnLW9tYWUnLCAnPG91dGZpbGUubWFlPic=

>  <r_epik_Ionization_Penalty>  (201) 
0.00268516

>  <r_epik_Ionization_Penalty_Charging>  (201) 
0.00268516

>  <r_epik_Ionization_Penalty_Neutral>  (201) 
4.26907e-13

>  <r_epik_State_Penalty>  (201) 
0.00187119

>  <r_epik_Charging_Adjusted_Penalty>  (201) 
0.00455635

>  <i_epik_Tot_Q>  (201) 
1

>  <i_epik_Tot_abs_Q>  (201) 
1

>  <s_epik_Chemistry_Notes>  (201) 
This compound has an ester and may undergo hydrolysis at high or low pH.

>  <s_lp_Force_Field>  (201) 
OPLS3e

>  <r_lp_Energy>  (201) 
754.421

>  <b_lp_Chiralities_Consistent>  (201) 
1

>  <s_lp_Variant>  (201) 
68:0-1

>  <s_i_glide_gridfile>  (201) 
pfpi4k_grid

>  <i_i_glide_lignum>  (201) 
11

>  <i_i_glide_rotatable_bonds>  (201) 
2

>  <r_i_docking_score>  (201) 
-2.29592

>  <r_i_glide_ligand_efficiency>  (201) 
-0.0883045

>  <r_i_glide_ligand_efficiency_sa>  (201) 
-0.261602

>  <r_i_glide_ligand_efficiency_ln>  (201) 
-0.539189

>  <r_i_glide_gscore>  (201) 
-2.29592

>  <r_i_glide_lipo>  (201) 
-0.798578

>  <r_i_glide_hbond>  (201) 
0

>  <r_i_glide_metal>  (201) 
-0

>  <r_i_glide_rewards>  (201) 
-1.11772

>  <r_i_glide_evdw>  (201) 
-8.41539

>  <r_i_glide_ecoul>  (201) 
-0.729422

>  <r_i_glide_erotb>  (201) 
0.150561

>  <r_i_glide_esite>  (201) 
0

>  <r_i_glide_emodel>  (201) 
-10.2186

>  <r_i_glide_energy>  (201) 
-9.14481

>  <r_i_glide_einternal>  (201) 
0.144521

>  <r_i_glide_intrahb_reward>  (201) 
-0

>  <i_i_glide_confnum>  (201) 
1

>  <i_i_glide_posenum>  (201) 
28

>  <r_i_glide_eff_state_penalty>  (201) 
0

>  <ligand_id>  (201) 
68

>  <original_smiles>  (201) 
COC(=O)C12C3CC4C5C6CC(C63)C4C34C5C(C)OC1C3C(C)CNC24

>  <smiles>  (201) 
[H]C([H])([H])OC(=O)C12C3([H])OC([H])(C([H])([H])[H])C4([H])C5([H])C6([H])C([H])([H])C7([H])C6([H])C1([H])C([H])([H])C5([H])C7([H])C41C3([H])C([H])(C([H])([H])[H])C([H])([H])[N+]([H])([H])C21[H]

$$$$
69:0:0
     RDKit          3D

 82 88  0  0  1  0  0  0  0  0999 V2000
    1.4002   -9.9907    4.4309 C   0  0  0  0  0  0  0  0  0  0  0  0
    1.2487   -8.9265    3.3051 C   0  0  0  0  0  0  0  0  0  0  0  0
    2.2208   -9.4023    2.1954 C   0  0  0  0  0  0  0  0  0  0  0  0
   -0.1821   -8.9579    2.7275 C   0  0  0  0  0  0  0  0  0  0  0  0
   -1.2327   -8.3733    3.6800 C   0  0  0  0  0  0  0  0  0  0  0  0
   -0.8747   -6.9557    4.1657 C   0  0  0  0  0  0  0  0  0  0  0  0
    0.5594   -6.7757    4.7662 C   0  0  1  0  0  0  0  0  0  0  0  0
    0.5640   -7.5505    6.1202 C   0  0  0  0  0  0  0  0  0  0  0  0
    1.5849   -7.4521    3.7820 C   0  0  2  0  0  0  0  0  0  0  0  0
    1.7735   -6.4990    2.5914 C   0  0  0  0  0  0  0  0  0  0  0  0
    2.4366   -5.1764    2.9562 C   0  0  0  0  0  0  0  0  0  0  0  0
    2.1543   -4.5120    4.3472 C   0  0  2  0  0  0  0  0  0  0  0  0
    2.0630   -2.9811    4.0204 C   0  0  0  0  0  0  0  0  0  0  0  0
    0.9210   -2.2487    4.0655 C   0  0  0  0  0  0  0  0  0  0  0  0
    0.9864   -0.8590    3.8064 C   0  0  0  0  0  0  0  0  0  0  0  0
   -0.0993   -0.0456    3.6877 O   0  0  0  0  0  0  0  0  0  0  0  0
    0.4111    1.2096    3.4615 C   0  0  0  0  0  0  0  0  0  0  0  0
   -0.5459    2.3032    3.3258 C   0  0  0  0  0  0  0  0  0  0  0  0
   -0.3042    3.6085    3.8093 C   0  0  0  0  0  0  0  0  0  0  0  0
   -1.2041    4.6031    3.6746 N   0  0  0  0  0  0  0  0  0  0  0  0
   -2.3116    4.3091    2.9985 C   0  0  0  0  0  0  0  0  0  0  0  0
   -2.6710    3.1254    2.5213 N   0  0  0  0  0  0  0  0  0  0  0  0
   -1.7797    2.1315    2.6646 C   0  0  0  0  0  0  0  0  0  0  0  0
    1.7843    1.1734    3.4266 C   0  0  0  0  0  0  0  0  0  0  0  0
    2.1420   -0.1877    3.6384 C   0  0  0  0  0  0  0  0  0  0  0  0
    3.3699   -0.7898    3.7169 O   0  0  0  0  0  0  0  0  0  0  0  0
    3.3888   -2.2404    3.5716 C   0  0  2  0  0  0  0  0  0  0  0  0
    3.6152   -2.3817    2.0478 C   0  0  0  0  0  0  0  0  0  0  0  0
    4.6903   -2.6920    4.3082 C   0  0  1  0  0  0  0  0  0  0  0  0
    5.0762   -1.8311    5.3595 O   0  0  0  0  0  0  0  0  0  0  0  0
    4.6911   -4.1380    4.8328 C   0  0  0  0  0  0  0  0  0  0  0  0
    3.3397   -4.6744    5.3838 C   0  0  1  0  0  0  0  0  0  0  0  0
    3.0394   -4.2448    6.8844 C   0  0  0  0  0  0  0  0  0  0  0  0
    4.1486   -4.7848    7.8181 C   0  0  0  0  0  0  0  0  0  0  0  0
    2.8968   -2.7273    7.1882 C   0  0  0  0  0  0  0  0  0  0  0  0
    1.7318   -4.9075    7.3373 C   0  0  0  0  0  0  0  0  0  0  0  0
    0.5658   -4.6354    6.3700 C   0  0  0  0  0  0  0  0  0  0  0  0
    0.8327   -5.1821    4.9422 C   0  0  2  0  0  0  0  0  0  0  0  0
    1.7023  -10.9701    4.0524 H   0  0  0  0  0  0  0  0  0  0  0  0
    0.4673  -10.1917    4.9514 H   0  0  0  0  0  0  0  0  0  0  0  0
    2.1479   -9.7015    5.1710 H   0  0  0  0  0  0  0  0  0  0  0  0
    2.0175   -8.9301    1.2353 H   0  0  0  0  0  0  0  0  0  0  0  0
    2.1239  -10.4697    2.0115 H   0  0  0  0  0  0  0  0  0  0  0  0
    3.2619   -9.2143    2.4562 H   0  0  0  0  0  0  0  0  0  0  0  0
   -0.2128   -8.3927    1.7978 H   0  0  0  0  0  0  0  0  0  0  0  0
   -0.4550   -9.9798    2.4609 H   0  0  0  0  0  0  0  0  0  0  0  0
   -2.1919   -8.3421    3.1649 H   0  0  0  0  0  0  0  0  0  0  0  0
   -1.3866   -9.0447    4.5241 H   0  0  0  0  0  0  0  0  0  0  0  0
   -0.9968   -6.3011    3.3083 H   0  0  0  0  0  0  0  0  0  0  0  0
   -1.6216   -6.6340    4.8936 H   0  0  0  0  0  0  0  0  0  0  0  0
    1.5716   -7.7914    6.4591 H   0  0  0  0  0  0  0  0  0  0  0  0
    0.0318   -8.4898    6.0660 H   0  0  0  0  0  0  0  0  0  0  0  0
    0.0317   -7.0577    6.9293 H   0  0  0  0  0  0  0  0  0  0  0  0
    2.5506   -7.5050    4.2808 H   0  0  0  0  0  0  0  0  0  0  0  0
    2.4001   -6.9281    1.8086 H   0  0  0  0  0  0  0  0  0  0  0  0
    0.8200   -6.2947    2.1124 H   0  0  0  0  0  0  0  0  0  0  0  0
    3.4979   -5.3173    2.7849 H   0  0  0  0  0  0  0  0  0  0  0  0
    2.1007   -4.5138    2.1587 H   0  0  0  0  0  0  0  0  0  0  0  0
   -0.0497   -2.6375    4.3303 H   0  0  0  0  0  0  0  0  0  0  0  0
    0.6044    3.8699    4.3367 H   0  0  0  0  0  0  0  0  0  0  0  0
   -3.0123    5.1239    2.8690 H   0  0  0  0  0  0  0  0  0  0  0  0
   -2.0536    1.1920    2.2081 H   0  0  0  0  0  0  0  0  0  0  0  0
    2.4291    2.0230    3.2566 H   0  0  0  0  0  0  0  0  0  0  0  0
    3.9971   -3.3631    1.7739 H   0  0  0  0  0  0  0  0  0  0  0  0
    4.3578   -1.6602    1.6985 H   0  0  0  0  0  0  0  0  0  0  0  0
    2.6936   -2.1968    1.4919 H   0  0  0  0  0  0  0  0  0  0  0  0
    5.5260   -2.5989    3.6131 H   0  0  0  0  0  0  0  0  0  0  0  0
    4.3986   -1.8480    6.0179 H   0  0  0  0  0  0  0  0  0  0  0  0
    5.0212   -4.7729    4.0177 H   0  0  0  0  0  0  0  0  0  0  0  0
    5.4963   -4.2699    5.5542 H   0  0  0  0  0  0  0  0  0  0  0  0
    3.4941   -5.7528    5.4508 H   0  0  0  0  0  0  0  0  0  0  0  0
    3.8667   -4.6834    8.8680 H   0  0  0  0  0  0  0  0  0  0  0  0
    5.0930   -4.2545    7.6947 H   0  0  0  0  0  0  0  0  0  0  0  0
    4.3406   -5.8419    7.6398 H   0  0  0  0  0  0  0  0  0  0  0  0
    2.3030   -2.5609    8.0872 H   0  0  0  0  0  0  0  0  0  0  0  0
    2.3945   -2.1681    6.4033 H   0  0  0  0  0  0  0  0  0  0  0  0
    3.8514   -2.2509    7.4142 H   0  0  0  0  0  0  0  0  0  0  0  0
    1.9278   -5.9650    7.4676 H   0  0  0  0  0  0  0  0  0  0  0  0
    1.4529   -4.5714    8.3376 H   0  0  0  0  0  0  0  0  0  0  0  0
   -0.3724   -5.0121    6.7731 H   0  0  0  0  0  0  0  0  0  0  0  0
    0.4144   -3.5585    6.3368 H   0  0  0  0  0  0  0  0  0  0  0  0
    0.0407   -4.7411    4.3420 H   0  0  0  0  0  0  0  0  0  0  0  0
  1  2  1  0
  1 39  1  0
  1 40  1  0
  1 41  1  0
  2  9  1  0
  2  3  1  0
  2  4  1  0
  3 42  1  0
  3 43  1  0
  3 44  1  0
  4  5  1  0
  4 45  1  0
  4 46  1  0
  5  6  1  0
  5 47  1  0
  5 48  1  0
  6  7  1  0
  6 49  1  0
  6 50  1  0
  7 38  1  0
  7  8  1  1
  7  9  1  0
  8 51  1  0
  8 52  1  0
  8 53  1  0
  9 10  1  0
  9 54  1  1
 10 11  1  0
 10 55  1  0
 10 56  1  0
 12 11  1  6
 11 57  1  0
 11 58  1  0
 12 32  1  0
 12 38  1  0
 12 13  1  0
 13 27  1  0
 13 14  2  0
 14 15  1  0
 14 59  1  0
 15 25  2  0
 15 16  1  0
 16 17  1  0
 17 18  1  0
 17 24  2  0
 18 23  1  0
 18 19  2  0
 19 20  1  0
 19 60  1  0
 20 21  2  0
 21 22  1  0
 21 61  1  0
 22 23  2  0
 23 62  1  0
 24 25  1  0
 24 63  1  0
 25 26  1  0
 26 27  1  0
 27 28  1  6
 27 29  1  0
 28 64  1  0
 28 65  1  0
 28 66  1  0
 29 30  1  0
 29 31  1  0
 29 67  1  6
 30 68  1  0
 31 32  1  0
 31 69  1  0
 31 70  1  0
 32 33  1  0
 32 71  1  1
 33 34  1  0
 33 35  1  0
 33 36  1  0
 34 72  1  0
 34 73  1  0
 34 74  1  0
 35 75  1  0
 35 76  1  0
 35 77  1  0
 36 37  1  0
 36 78  1  0
 36 79  1  0
 37 38  1  0
 37 80  1  0
 37 81  1  0
 38 82  1  6
M  END
>  <i_m_ct_stereo_status>  (202) 
1

>  <s_m_source_file>  (202) 
/var/tmp/pbs.5076255.sched01/tmpbnv9a_8s/88lo2bg1ru.sdf

>  <i_m_source_file_index>  (202) 
12

>  <i_lp_mmshare_version>  (202) 
48012

>  <i_f3d_flags>  (202) 
0

>  <s_epik_input>  (202) 
W0NIMl0xW0NIMl1bQ0gyXUMoW0NIM10pKFtDSDNdKVtDQEBIXShbQ0gyXVtDSDJdMilbQ0BAXTEoW0NIM10pW0NASF0zW0NIMl1bQ0gyXUMoW0NIM10pKFtDSDNdKVtDQEBIXTRbQ0gyXVtDQEhdKFtPSF0pW0NAXShDPTVbQ0BdMjM0KShbQ0gzXSlPYzZjKFtDSF01KW9jKFtjSF02KS1jN1tjSF1uW2NIXW5bY0hdNw==

>  <s_epik_cmdline>  (202) 
J2VwaWtfcHl0aG9uJywgJy1waHQnLCAnMi4wJywgJy1waCcsICc3LjAnLCAnLXRuJywgJzgnLCAnLW1hJywgJzIwMCcsICctaW1hZScsICc8aW5maWxlLm1hZT4nLCAnLW9tYWUnLCAnPG91dGZpbGUubWFlPic=

>  <r_lp_tautomer_probability>  (202) 
1

>  <r_epik_Ionization_Penalty>  (202) 
1.0022e-06

>  <r_epik_Ionization_Penalty_Charging>  (202) 
0

>  <r_epik_Ionization_Penalty_Neutral>  (202) 
1.0022e-06

>  <r_epik_State_Penalty>  (202) 
-0

>  <r_epik_Charging_Adjusted_Penalty>  (202) 
0

>  <i_epik_Tot_Q>  (202) 
0

>  <i_epik_Tot_abs_Q>  (202) 
0

>  <s_lp_Force_Field>  (202) 
OPLS3e

>  <r_lp_Energy>  (202) 
126.874

>  <b_lp_Chiralities_Consistent>  (202) 
1

>  <s_lp_Variant>  (202) 
69:0-1

>  <s_i_glide_gridfile>  (202) 
pfpi4k_grid

>  <i_i_glide_lignum>  (202) 
12

>  <i_i_glide_rotatable_bonds>  (202) 
2

>  <r_i_docking_score>  (202) 
-2.15168

>  <r_i_glide_ligand_efficiency>  (202) 
-0.0566231

>  <r_i_glide_ligand_efficiency_sa>  (202) 
-0.190365

>  <r_i_glide_ligand_efficiency_ln>  (202) 
-0.463965

>  <r_i_glide_gscore>  (202) 
-2.15168

>  <r_i_glide_lipo>  (202) 
-0.119042

>  <r_i_glide_hbond>  (202) 
-0.118401

>  <r_i_glide_metal>  (202) 
-0

>  <r_i_glide_rewards>  (202) 
0

>  <r_i_glide_evdw>  (202) 
-32.7701

>  <r_i_glide_ecoul>  (202) 
-1.68409

>  <r_i_glide_erotb>  (202) 
0.0768833

>  <r_i_glide_esite>  (202) 
-0.1

>  <r_i_glide_emodel>  (202) 
-37.9244

>  <r_i_glide_energy>  (202) 
-34.4542

>  <r_i_glide_einternal>  (202) 
1.4638

>  <r_i_glide_intrahb_reward>  (202) 
-0

>  <i_i_glide_confnum>  (202) 
4

>  <i_i_glide_posenum>  (202) 
1

>  <r_i_glide_eff_state_penalty>  (202) 
0

>  <ligand_id>  (202) 
69

>  <original_smiles>  (202) 
CC1(C)CCCC2(C)C1CCC13C4=Cc5oc(-c6cncnc6)cc5OC4(C)C(O)CC1C(C)(C)CCC23

>  <smiles>  (202) 
[H]OC1([H])C([H])([H])C2([H])C3(C4=C([H])c5oc(-c6c([H])nc([H])nc6[H])c([H])c5OC41C([H])([H])[H])C([H])([H])C([H])([H])C1([H])C(C([H])([H])[H])(C([H])([H])[H])C([H])([H])C([H])([H])C([H])([H])C1(C([H])([H])[H])C3([H])C([H])([H])C([H])([H])C2(C([H])([H])[H])C([H])([H])[H]

$$$$
69:0:1
     RDKit          3D

 82 88  0  0  1  0  0  0  0  0999 V2000
    1.4166   -9.9854    4.5582 C   0  0  0  0  0  0  0  0  0  0  0  0
    1.2393   -8.9410    3.4166 C   0  0  0  0  0  0  0  0  0  0  0  0
    2.1807   -9.4379    2.2865 C   0  0  0  0  0  0  0  0  0  0  0  0
   -0.2069   -8.9784    2.8779 C   0  0  0  0  0  0  0  0  0  0  0  0
   -1.2321   -8.3737    3.8456 C   0  0  0  0  0  0  0  0  0  0  0  0
   -0.8602   -6.9489    4.3003 C   0  0  0  0  0  0  0  0  0  0  0  0
    0.5891   -6.7628    4.8610 C   0  0  1  0  0  0  0  0  0  0  0  0
    0.6225   -7.5167    6.2269 C   0  0  0  0  0  0  0  0  0  0  0  0
    1.5888   -7.4580    3.8624 C   0  0  2  0  0  0  0  0  0  0  0  0
    1.7463   -6.5232    2.6517 C   0  0  0  0  0  0  0  0  0  0  0  0
    2.4217   -5.1965    2.9774 C   0  0  0  0  0  0  0  0  0  0  0  0
    2.1757   -4.5095    4.3644 C   0  0  2  0  0  0  0  0  0  0  0  0
    2.0786   -2.9826    4.0153 C   0  0  0  0  0  0  0  0  0  0  0  0
    0.9413   -2.2478    4.0774 C   0  0  0  0  0  0  0  0  0  0  0  0
    1.0010   -0.8624    3.7965 C   0  0  0  0  0  0  0  0  0  0  0  0
   -0.0871   -0.0505    3.6900 O   0  0  0  0  0  0  0  0  0  0  0  0
    0.4201    1.2021    3.4296 C   0  0  0  0  0  0  0  0  0  0  0  0
   -0.5427    2.2976    3.2970 C   0  0  0  0  0  0  0  0  0  0  0  0
   -0.2961    3.6017    3.7851 C   0  0  0  0  0  0  0  0  0  0  0  0
   -1.2037    4.5922    3.6713 N   0  0  0  0  0  0  0  0  0  0  0  0
   -2.3136    4.3010    2.9998 C   0  0  0  0  0  0  0  0  0  0  0  0
   -2.6751    3.1209    2.5158 N   0  0  0  0  0  0  0  0  0  0  0  0
   -1.7798    2.1243    2.6511 C   0  0  0  0  0  0  0  0  0  0  0  0
    1.7896    1.1617    3.3645 C   0  0  0  0  0  0  0  0  0  0  0  0
    2.1546   -0.1956    3.5876 C   0  0  0  0  0  0  0  0  0  0  0  0
    3.3821   -0.7981    3.6451 O   0  0  0  0  0  0  0  0  0  0  0  0
    3.3929   -2.2528    3.5193 C   0  0  2  0  0  0  0  0  0  0  0  0
    3.5804   -2.4184    1.9925 C   0  0  0  0  0  0  0  0  0  0  0  0
    4.7092   -2.6958    4.2283 C   0  0  1  0  0  0  0  0  0  0  0  0
    5.0899   -1.8137    5.2612 O   0  0  0  0  0  0  0  0  0  0  0  0
    4.7247   -4.1311    4.7790 C   0  0  0  0  0  0  0  0  0  0  0  0
    3.3869   -4.6556    5.3731 C   0  0  1  0  0  0  0  0  0  0  0  0
    3.1240   -4.2039    6.8757 C   0  0  0  0  0  0  0  0  0  0  0  0
    4.2572   -4.7308    7.7893 C   0  0  0  0  0  0  0  0  0  0  0  0
    2.9872   -2.6820    7.1589 C   0  0  0  0  0  0  0  0  0  0  0  0
    1.8277   -4.8574    7.3719 C   0  0  0  0  0  0  0  0  0  0  0  0
    0.6390   -4.5974    6.4297 C   0  0  0  0  0  0  0  0  0  0  0  0
    0.8691   -5.1671    5.0046 C   0  0  2  0  0  0  0  0  0  0  0  0
    1.7080  -10.9705    4.1885 H   0  0  0  0  0  0  0  0  0  0  0  0
    0.4969  -10.1764    5.1047 H   0  0  0  0  0  0  0  0  0  0  0  0
    2.1829   -9.6850    5.2743 H   0  0  0  0  0  0  0  0  0  0  0  0
    1.9552   -8.9760    1.3258 H   0  0  0  0  0  0  0  0  0  0  0  0
    2.0726  -10.5061    2.1083 H   0  0  0  0  0  0  0  0  0  0  0  0
    3.2280   -9.2488    2.5199 H   0  0  0  0  0  0  0  0  0  0  0  0
   -0.2600   -8.4287    1.9389 H   0  0  0  0  0  0  0  0  0  0  0  0
   -0.4882  -10.0038    2.6348 H   0  0  0  0  0  0  0  0  0  0  0  0
   -2.2038   -8.3512    3.3553 H   0  0  0  0  0  0  0  0  0  0  0  0
   -1.3686   -9.0317    4.7024 H   0  0  0  0  0  0  0  0  0  0  0  0
   -1.0072   -6.3070    3.4368 H   0  0  0  0  0  0  0  0  0  0  0  0
   -1.5865   -6.6125    5.0420 H   0  0  0  0  0  0  0  0  0  0  0  0
    1.6380   -7.7530    6.5438 H   0  0  0  0  0  0  0  0  0  0  0  0
    0.0893   -8.4574    6.2024 H   0  0  0  0  0  0  0  0  0  0  0  0
    0.1133   -7.0092    7.0420 H   0  0  0  0  0  0  0  0  0  0  0  0
    2.5676   -7.5032    4.3366 H   0  0  0  0  0  0  0  0  0  0  0  0
    2.3525   -6.9660    1.8604 H   0  0  0  0  0  0  0  0  0  0  0  0
    0.7811   -6.3272    2.1921 H   0  0  0  0  0  0  0  0  0  0  0  0
    3.4783   -5.3420    2.7813 H   0  0  0  0  0  0  0  0  0  0  0  0
    2.0671   -4.5469    2.1787 H   0  0  0  0  0  0  0  0  0  0  0  0
   -0.0226   -2.6338    4.3735 H   0  0  0  0  0  0  0  0  0  0  0  0
    0.6207    3.8637    4.2947 H   0  0  0  0  0  0  0  0  0  0  0  0
   -3.0189    5.1113    2.8741 H   0  0  0  0  0  0  0  0  0  0  0  0
   -2.0573    1.1832    2.2057 H   0  0  0  0  0  0  0  0  0  0  0  0
    2.4335    2.0069    3.1626 H   0  0  0  0  0  0  0  0  0  0  0  0
    3.9528   -3.4047    1.7267 H   0  0  0  0  0  0  0  0  0  0  0  0
    4.3140   -1.7043    1.6118 H   0  0  0  0  0  0  0  0  0  0  0  0
    2.6446   -2.2413    1.4596 H   0  0  0  0  0  0  0  0  0  0  0  0
    5.5349   -2.6086    3.5188 H   0  0  0  0  0  0  0  0  0  0  0  0
    5.1289   -0.9410    4.8960 H   0  0  0  0  0  0  0  0  0  0  0  0
    5.0345   -4.7801    3.9673 H   0  0  0  0  0  0  0  0  0  0  0  0
    5.5464   -4.2489    5.4828 H   0  0  0  0  0  0  0  0  0  0  0  0
    3.5414   -5.7333    5.4534 H   0  0  0  0  0  0  0  0  0  0  0  0
    4.0039   -4.6112    8.8440 H   0  0  0  0  0  0  0  0  0  0  0  0
    5.1971   -4.2021    7.6321 H   0  0  0  0  0  0  0  0  0  0  0  0
    4.4443   -5.7908    7.6221 H   0  0  0  0  0  0  0  0  0  0  0  0
    2.4239   -2.4935    8.0728 H   0  0  0  0  0  0  0  0  0  0  0  0
    2.4708   -2.1351    6.3746 H   0  0  0  0  0  0  0  0  0  0  0  0
    3.9502   -2.2025    7.3327 H   0  0  0  0  0  0  0  0  0  0  0  0
    2.0262   -5.9127    7.5130 H   0  0  0  0  0  0  0  0  0  0  0  0
    1.5766   -4.5053    8.3737 H   0  0  0  0  0  0  0  0  0  0  0  0
   -0.2895   -4.9641    6.8622 H   0  0  0  0  0  0  0  0  0  0  0  0
    0.4893   -3.5212    6.3837 H   0  0  0  0  0  0  0  0  0  0  0  0
    0.0614   -4.7340    4.4193 H   0  0  0  0  0  0  0  0  0  0  0  0
  1  2  1  0
  1 39  1  0
  1 40  1  0
  1 41  1  0
  2  9  1  0
  2  3  1  0
  2  4  1  0
  3 42  1  0
  3 43  1  0
  3 44  1  0
  4  5  1  0
  4 45  1  0
  4 46  1  0
  5  6  1  0
  5 47  1  0
  5 48  1  0
  6  7  1  0
  6 49  1  0
  6 50  1  0
  7 38  1  0
  7  8  1  1
  7  9  1  0
  8 51  1  0
  8 52  1  0
  8 53  1  0
  9 10  1  0
  9 54  1  1
 10 11  1  0
 10 55  1  0
 10 56  1  0
 12 11  1  6
 11 57  1  0
 11 58  1  0
 12 32  1  0
 12 38  1  0
 12 13  1  0
 13 27  1  0
 13 14  2  0
 14 15  1  0
 14 59  1  0
 15 25  2  0
 15 16  1  0
 16 17  1  0
 17 18  1  0
 17 24  2  0
 18 23  1  0
 18 19  2  0
 19 20  1  0
 19 60  1  0
 20 21  2  0
 21 22  1  0
 21 61  1  0
 22 23  2  0
 23 62  1  0
 24 25  1  0
 24 63  1  0
 25 26  1  0
 26 27  1  0
 27 28  1  6
 27 29  1  0
 28 64  1  0
 28 65  1  0
 28 66  1  0
 29 30  1  0
 29 31  1  0
 29 67  1  6
 30 68  1  0
 31 32  1  0
 31 69  1  0
 31 70  1  0
 32 33  1  0
 32 71  1  1
 33 34  1  0
 33 35  1  0
 33 36  1  0
 34 72  1  0
 34 73  1  0
 34 74  1  0
 35 75  1  0
 35 76  1  0
 35 77  1  0
 36 37  1  0
 36 78  1  0
 36 79  1  0
 37 38  1  0
 37 80  1  0
 37 81  1  0
 38 82  1  6
M  END
>  <i_m_ct_stereo_status>  (203) 
1

>  <s_m_source_file>  (203) 
/var/tmp/pbs.5076255.sched01/tmpbnv9a_8s/88lo2bg1ru.sdf

>  <i_m_source_file_index>  (203) 
12

>  <i_lp_mmshare_version>  (203) 
48012

>  <i_f3d_flags>  (203) 
0

>  <s_epik_input>  (203) 
W0NIMl0xW0NIMl1bQ0gyXUMoW0NIM10pKFtDSDNdKVtDQEBIXShbQ0gyXVtDSDJdMilbQ0BAXTEoW0NIM10pW0NASF0zW0NIMl1bQ0gyXUMoW0NIM10pKFtDSDNdKVtDQEBIXTRbQ0gyXVtDQEhdKFtPSF0pW0NAXShDPTVbQ0BdMjM0KShbQ0gzXSlPYzZjKFtDSF01KW9jKFtjSF02KS1jN1tjSF1uW2NIXW5bY0hdNw==

>  <s_epik_cmdline>  (203) 
J2VwaWtfcHl0aG9uJywgJy1waHQnLCAnMi4wJywgJy1waCcsICc3LjAnLCAnLXRuJywgJzgnLCAnLW1hJywgJzIwMCcsICctaW1hZScsICc8aW5maWxlLm1hZT4nLCAnLW9tYWUnLCAnPG91dGZpbGUubWFlPic=

>  <r_lp_tautomer_probability>  (203) 
1

>  <r_epik_Ionization_Penalty>  (203) 
1.0022e-06

>  <r_epik_Ionization_Penalty_Charging>  (203) 
0

>  <r_epik_Ionization_Penalty_Neutral>  (203) 
1.0022e-06

>  <r_epik_State_Penalty>  (203) 
-0

>  <r_epik_Charging_Adjusted_Penalty>  (203) 
0

>  <i_epik_Tot_Q>  (203) 
0

>  <i_epik_Tot_abs_Q>  (203) 
0

>  <s_lp_Force_Field>  (203) 
OPLS3e

>  <r_lp_Energy>  (203) 
126.874

>  <b_lp_Chiralities_Consistent>  (203) 
1

>  <s_lp_Variant>  (203) 
69:0-1

>  <s_i_glide_gridfile>  (203) 
pfpi4k_grid

>  <i_i_glide_lignum>  (203) 
12

>  <i_i_glide_rotatable_bonds>  (203) 
2

>  <r_i_docking_score>  (203) 
-2.14614

>  <r_i_glide_ligand_efficiency>  (203) 
-0.0564774

>  <r_i_glide_ligand_efficiency_sa>  (203) 
-0.189876

>  <r_i_glide_ligand_efficiency_ln>  (203) 
-0.462771

>  <r_i_glide_gscore>  (203) 
-2.14614

>  <r_i_glide_lipo>  (203) 
-0.121738

>  <r_i_glide_hbond>  (203) 
-0.114833

>  <r_i_glide_metal>  (203) 
-0

>  <r_i_glide_rewards>  (203) 
0

>  <r_i_glide_evdw>  (203) 
-32.6994

>  <r_i_glide_ecoul>  (203) 
-1.67655

>  <r_i_glide_erotb>  (203) 
0.0768833

>  <r_i_glide_esite>  (203) 
-0.1

>  <r_i_glide_emodel>  (203) 
-37.6272

>  <r_i_glide_energy>  (203) 
-34.376

>  <r_i_glide_einternal>  (203) 
1.88126

>  <r_i_glide_intrahb_reward>  (203) 
-0

>  <i_i_glide_confnum>  (203) 
4

>  <i_i_glide_posenum>  (203) 
5

>  <r_i_glide_eff_state_penalty>  (203) 
0

>  <ligand_id>  (203) 
69

>  <original_smiles>  (203) 
CC1(C)CCCC2(C)C1CCC13C4=Cc5oc(-c6cncnc6)cc5OC4(C)C(O)CC1C(C)(C)CCC23

>  <smiles>  (203) 
[H]OC1([H])C([H])([H])C2([H])C3(C4=C([H])c5oc(-c6c([H])nc([H])nc6[H])c([H])c5OC41C([H])([H])[H])C([H])([H])C([H])([H])C1([H])C(C([H])([H])[H])(C([H])([H])[H])C([H])([H])C([H])([H])C([H])([H])C1(C([H])([H])[H])C3([H])C([H])([H])C([H])([H])C2(C([H])([H])[H])C([H])([H])[H]

$$$$
69:0:2
     RDKit          3D

 82 88  0  0  1  0  0  0  0  0999 V2000
    5.9512   -8.9095    2.3007 C   0  0  0  0  0  0  0  0  0  0  0  0
    6.1436   -7.4086    2.6730 C   0  0  0  0  0  0  0  0  0  0  0  0
    7.4080   -7.3919    3.5736 C   0  0  0  0  0  0  0  0  0  0  0  0
    6.4570   -6.5771    1.4128 C   0  0  0  0  0  0  0  0  0  0  0  0
    5.2406   -6.3853    0.4939 C   0  0  0  0  0  0  0  0  0  0  0  0
    4.0172   -5.8039    1.2236 C   0  0  0  0  0  0  0  0  0  0  0  0
    3.5945   -6.5512    2.5328 C   0  0  1  0  0  0  0  0  0  0  0  0
    3.0306   -7.9371    2.0839 C   0  0  0  0  0  0  0  0  0  0  0  0
    4.8862   -6.7773    3.4067 C   0  0  2  0  0  0  0  0  0  0  0  0
    5.2299   -5.4311    4.0644 C   0  0  0  0  0  0  0  0  0  0  0  0
    4.1913   -4.9507    5.0706 C   0  0  0  0  0  0  0  0  0  0  0  0
    2.6702   -5.2437    4.8292 C   0  0  2  0  0  0  0  0  0  0  0  0
    1.9527   -3.9295    5.2961 C   0  0  0  0  0  0  0  0  0  0  0  0
    1.3385   -3.0504    4.4624 C   0  0  0  0  0  0  0  0  0  0  0  0
    0.6734   -1.9319    5.0135 C   0  0  0  0  0  0  0  0  0  0  0  0
    0.1233   -0.9201    4.2839 O   0  0  0  0  0  0  0  0  0  0  0  0
   -0.4085   -0.0497    5.2071 C   0  0  0  0  0  0  0  0  0  0  0  0
   -1.0801    1.1545    4.7141 C   0  0  0  0  0  0  0  0  0  0  0  0
   -1.2705    1.4174    3.3365 C   0  0  0  0  0  0  0  0  0  0  0  0
   -1.9027    2.5220    2.9004 N   0  0  0  0  0  0  0  0  0  0  0  0
   -2.3412    3.3713    3.8183 C   0  0  0  0  0  0  0  0  0  0  0  0
   -2.2148    3.2496    5.1381 N   0  0  0  0  0  0  0  0  0  0  0  0
   -1.5846    2.1484    5.5836 C   0  0  0  0  0  0  0  0  0  0  0  0
   -0.1956   -0.5212    6.4823 C   0  0  0  0  0  0  0  0  0  0  0  0
    0.5120   -1.7449    6.3381 C   0  0  0  0  0  0  0  0  0  0  0  0
    0.9519   -2.6390    7.2773 O   0  0  0  0  0  0  0  0  0  0  0  0
    1.9740   -3.5831    6.8408 C   0  0  2  0  0  0  0  0  0  0  0  0
    3.2668   -2.8196    7.2207 C   0  0  0  0  0  0  0  0  0  0  0  0
    1.8217   -4.8048    7.8052 C   0  0  1  0  0  0  0  0  0  0  0  0
    0.5081   -4.9743    8.2984 O   0  0  0  0  0  0  0  0  0  0  0  0
    2.3230   -6.1512    7.2519 C   0  0  0  0  0  0  0  0  0  0  0  0
    2.0930   -6.4059    5.7350 C   0  0  1  0  0  0  0  0  0  0  0  0
    0.6332   -6.9257    5.3826 C   0  0  0  0  0  0  0  0  0  0  0  0
    0.3614   -8.2678    6.1059 C   0  0  0  0  0  0  0  0  0  0  0  0
   -0.5609   -5.9853    5.7011 C   0  0  0  0  0  0  0  0  0  0  0  0
    0.5598   -7.2261    3.8798 C   0  0  0  0  0  0  0  0  0  0  0  0
    1.0185   -6.0351    3.0210 C   0  0  0  0  0  0  0  0  0  0  0  0
    2.4913   -5.6295    3.2914 C   0  0  2  0  0  0  0  0  0  0  0  0
    6.8872   -9.4705    2.3138 H   0  0  0  0  0  0  0  0  0  0  0  0
    5.5733   -9.0515    1.2913 H   0  0  0  0  0  0  0  0  0  0  0  0
    5.2752   -9.4164    2.9902 H   0  0  0  0  0  0  0  0  0  0  0  0
    7.8238   -6.3912    3.6837 H   0  0  0  0  0  0  0  0  0  0  0  0
    8.2192   -7.9827    3.1496 H   0  0  0  0  0  0  0  0  0  0  0  0
    7.1956   -7.7826    4.5680 H   0  0  0  0  0  0  0  0  0  0  0  0
    6.8189   -5.5913    1.7035 H   0  0  0  0  0  0  0  0  0  0  0  0
    7.2786   -7.0409    0.8657 H   0  0  0  0  0  0  0  0  0  0  0  0
    5.5165   -5.7176   -0.3209 H   0  0  0  0  0  0  0  0  0  0  0  0
    4.9810   -7.3267    0.0131 H   0  0  0  0  0  0  0  0  0  0  0  0
    4.2535   -4.7623    1.4360 H   0  0  0  0  0  0  0  0  0  0  0  0
    3.1743   -5.7755    0.5290 H   0  0  0  0  0  0  0  0  0  0  0  0
    3.0225   -8.6635    2.8961 H   0  0  0  0  0  0  0  0  0  0  0  0
    3.6035   -8.3882    1.2858 H   0  0  0  0  0  0  0  0  0  0  0  0
    2.0414   -7.9083    1.6345 H   0  0  0  0  0  0  0  0  0  0  0  0
    4.6328   -7.4544    4.2196 H   0  0  0  0  0  0  0  0  0  0  0  0
    6.1689   -5.4650    4.6167 H   0  0  0  0  0  0  0  0  0  0  0  0
    5.3729   -4.6606    3.3098 H   0  0  0  0  0  0  0  0  0  0  0  0
    4.5234   -5.3079    6.0388 H   0  0  0  0  0  0  0  0  0  0  0  0
    4.3592   -3.8743    5.0848 H   0  0  0  0  0  0  0  0  0  0  0  0
    1.2809   -3.1535    3.3906 H   0  0  0  0  0  0  0  0  0  0  0  0
   -0.9346    0.7344    2.5707 H   0  0  0  0  0  0  0  0  0  0  0  0
   -2.8402    4.2599    3.4569 H   0  0  0  0  0  0  0  0  0  0  0  0
   -1.5018    2.0691    6.6612 H   0  0  0  0  0  0  0  0  0  0  0  0
   -0.5081   -0.0343    7.3919 H   0  0  0  0  0  0  0  0  0  0  0  0
    4.1320   -3.4757    7.2904 H   0  0  0  0  0  0  0  0  0  0  0  0
    3.1665   -2.3482    8.2012 H   0  0  0  0  0  0  0  0  0  0  0  0
    3.4866   -2.0310    6.4992 H   0  0  0  0  0  0  0  0  0  0  0  0
    2.3884   -4.5976    8.7144 H   0  0  0  0  0  0  0  0  0  0  0  0
   -0.0401   -5.2367    7.5737 H   0  0  0  0  0  0  0  0  0  0  0  0
    3.3856   -6.2084    7.4638 H   0  0  0  0  0  0  0  0  0  0  0  0
    1.9344   -6.9693    7.8551 H   0  0  0  0  0  0  0  0  0  0  0  0
    2.7313   -7.2627    5.5112 H   0  0  0  0  0  0  0  0  0  0  0  0
   -0.5410   -8.7517    5.7271 H   0  0  0  0  0  0  0  0  0  0  0  0
    0.2237   -8.1429    7.1797 H   0  0  0  0  0  0  0  0  0  0  0  0
    1.1813   -8.9717    5.9621 H   0  0  0  0  0  0  0  0  0  0  0  0
   -1.4221   -6.2438    5.0854 H   0  0  0  0  0  0  0  0  0  0  0  0
   -0.3602   -4.9320    5.5204 H   0  0  0  0  0  0  0  0  0  0  0  0
   -0.9272   -6.1002    6.7189 H   0  0  0  0  0  0  0  0  0  0  0  0
    1.1408   -8.1213    3.6945 H   0  0  0  0  0  0  0  0  0  0  0  0
   -0.4520   -7.5133    3.5886 H   0  0  0  0  0  0  0  0  0  0  0  0
    0.8454   -6.2268    1.9641 H   0  0  0  0  0  0  0  0  0  0  0  0
    0.3616   -5.2000    3.2465 H   0  0  0  0  0  0  0  0  0  0  0  0
    2.5973   -4.6732    2.7827 H   0  0  0  0  0  0  0  0  0  0  0  0
  1  2  1  0
  1 39  1  0
  1 40  1  0
  1 41  1  0
  2  9  1  0
  2  3  1  0
  2  4  1  0
  3 42  1  0
  3 43  1  0
  3 44  1  0
  4  5  1  0
  4 45  1  0
  4 46  1  0
  5  6  1  0
  5 47  1  0
  5 48  1  0
  6  7  1  0
  6 49  1  0
  6 50  1  0
  7 38  1  0
  7  8  1  6
  7  9  1  0
  8 51  1  0
  8 52  1  0
  8 53  1  0
  9 10  1  0
  9 54  1  1
 10 11  1  0
 10 55  1  0
 10 56  1  0
 12 11  1  1
 11 57  1  0
 11 58  1  0
 12 32  1  0
 12 38  1  0
 12 13  1  0
 13 27  1  0
 13 14  2  0
 14 15  1  0
 14 59  1  0
 15 25  2  0
 15 16  1  0
 16 17  1  0
 17 18  1  0
 17 24  2  0
 18 23  1  0
 18 19  2  0
 19 20  1  0
 19 60  1  0
 20 21  2  0
 21 22  1  0
 21 61  1  0
 22 23  2  0
 23 62  1  0
 24 25  1  0
 24 63  1  0
 25 26  1  0
 26 27  1  0
 27 28  1  1
 27 29  1  0
 28 64  1  0
 28 65  1  0
 28 66  1  0
 29 30  1  0
 29 31  1  0
 29 67  1  1
 30 68  1  0
 31 32  1  0
 31 69  1  0
 31 70  1  0
 32 33  1  0
 32 71  1  6
 33 34  1  0
 33 35  1  0
 33 36  1  0
 34 72  1  0
 34 73  1  0
 34 74  1  0
 35 75  1  0
 35 76  1  0
 35 77  1  0
 36 37  1  0
 36 78  1  0
 36 79  1  0
 37 38  1  0
 37 80  1  0
 37 81  1  0
 38 82  1  6
M  END
>  <i_m_ct_stereo_status>  (204) 
1

>  <s_m_source_file>  (204) 
/var/tmp/pbs.5076255.sched01/tmpbnv9a_8s/88lo2bg1ru.sdf

>  <i_m_source_file_index>  (204) 
12

>  <i_lp_mmshare_version>  (204) 
48012

>  <i_f3d_flags>  (204) 
0

>  <s_epik_input>  (204) 
W0NIMl0xW0NIMl1bQ0gyXUMoW0NIM10pKFtDSDNdKVtDQEBIXShbQ0gyXVtDSDJdMilbQ0BAXTEoW0NIM10pW0NASF0zW0NIMl1bQ0gyXUMoW0NIM10pKFtDSDNdKVtDQEBIXTRbQ0gyXVtDQEhdKFtPSF0pW0NAXShDPTVbQ0BdMjM0KShbQ0gzXSlPYzZjKFtDSF01KW9jKFtjSF02KS1jN1tjSF1uW2NIXW5bY0hdNw==

>  <s_epik_cmdline>  (204) 
J2VwaWtfcHl0aG9uJywgJy1waHQnLCAnMi4wJywgJy1waCcsICc3LjAnLCAnLXRuJywgJzgnLCAnLW1hJywgJzIwMCcsICctaW1hZScsICc8aW5maWxlLm1hZT4nLCAnLW9tYWUnLCAnPG91dGZpbGUubWFlPic=

>  <r_lp_tautomer_probability>  (204) 
1

>  <r_epik_Ionization_Penalty>  (204) 
1.0022e-06

>  <r_epik_Ionization_Penalty_Charging>  (204) 
0

>  <r_epik_Ionization_Penalty_Neutral>  (204) 
1.0022e-06

>  <r_epik_State_Penalty>  (204) 
-0

>  <r_epik_Charging_Adjusted_Penalty>  (204) 
0

>  <i_epik_Tot_Q>  (204) 
0

>  <i_epik_Tot_abs_Q>  (204) 
0

>  <s_lp_Force_Field>  (204) 
OPLS3e

>  <r_lp_Energy>  (204) 
126.874

>  <b_lp_Chiralities_Consistent>  (204) 
1

>  <s_lp_Variant>  (204) 
69:0-1

>  <s_i_glide_gridfile>  (204) 
pfpi4k_grid

>  <i_i_glide_lignum>  (204) 
12

>  <i_i_glide_rotatable_bonds>  (204) 
2

>  <r_i_docking_score>  (204) 
-1.89103

>  <r_i_glide_ligand_efficiency>  (204) 
-0.049764

>  <r_i_glide_ligand_efficiency_sa>  (204) 
-0.167305

>  <r_i_glide_ligand_efficiency_ln>  (204) 
-0.407762

>  <r_i_glide_gscore>  (204) 
-1.89103

>  <r_i_glide_lipo>  (204) 
-0.312646

>  <r_i_glide_hbond>  (204) 
0

>  <r_i_glide_metal>  (204) 
-0

>  <r_i_glide_rewards>  (204) 
0

>  <r_i_glide_evdw>  (204) 
-31.1274

>  <r_i_glide_ecoul>  (204) 
-0.32722

>  <r_i_glide_erotb>  (204) 
0.0768833

>  <r_i_glide_esite>  (204) 
-0.0498188

>  <r_i_glide_emodel>  (204) 
-35.1562

>  <r_i_glide_energy>  (204) 
-31.4546

>  <r_i_glide_einternal>  (204) 
0.0468257

>  <r_i_glide_intrahb_reward>  (204) 
-0

>  <i_i_glide_confnum>  (204) 
3

>  <i_i_glide_posenum>  (204) 
22

>  <r_i_glide_eff_state_penalty>  (204) 
0

>  <ligand_id>  (204) 
69

>  <original_smiles>  (204) 
CC1(C)CCCC2(C)C1CCC13C4=Cc5oc(-c6cncnc6)cc5OC4(C)C(O)CC1C(C)(C)CCC23

>  <smiles>  (204) 
[H]OC1([H])C([H])([H])C2([H])C3(C4=C([H])c5oc(-c6c([H])nc([H])nc6[H])c([H])c5OC41C([H])([H])[H])C([H])([H])C([H])([H])C1([H])C(C([H])([H])[H])(C([H])([H])[H])C([H])([H])C([H])([H])C([H])([H])C1(C([H])([H])[H])C3([H])C([H])([H])C([H])([H])C2(C([H])([H])[H])C([H])([H])[H]

$$$$
70:1:0
     RDKit          3D

 80 88  0  0  1  0  0  0  0  0999 V2000
   -1.7640    0.5658    5.4936 C   0  0  0  0  0  0  0  0  0  0  0  0
   -1.5321   -0.7126    6.0605 O   0  0  0  0  0  0  0  0  0  0  0  0
   -0.5305   -1.4828    5.5200 C   0  0  0  0  0  0  0  0  0  0  0  0
    0.1852   -1.1559    4.3289 C   0  0  0  0  0  0  0  0  0  0  0  0
    1.3086   -1.9142    3.8948 C   0  0  0  0  0  0  0  0  0  0  0  0
    1.6866   -3.0563    4.6197 C   0  0  0  0  0  0  0  0  0  0  0  0
    0.8314   -3.4096    5.6610 C   0  0  0  0  0  0  0  0  0  0  0  0
   -0.2051   -2.6734    6.2130 C   0  0  0  0  0  0  0  0  0  0  0  0
   -0.5812   -3.1471    7.4639 O   0  0  0  0  0  0  0  0  0  0  0  0
   -0.1638   -4.5258    7.3966 C   0  0  2  0  0  0  0  0  0  0  0  0
    0.6459   -5.5962    8.1857 C   0  0  2  0  0  0  0  0  0  0  0  0
   -0.1820   -6.6860    8.6239 O   0  0  0  0  0  0  0  0  0  0  0  0
    0.4675   -7.9597    8.7684 C   0  0  0  0  0  0  0  0  0  0  0  0
    1.5636   -5.1037    9.3238 C   0  0  0  0  0  0  0  0  0  0  0  0
    2.6899   -4.1829    8.8032 C   0  0  0  0  0  0  0  0  0  0  0  0
    2.4772   -3.7202    7.3275 C   0  0  1  0  0  0  0  0  0  0  0  0
    2.5109   -2.2968    7.4531 O   0  0  0  0  0  0  0  0  0  0  0  0
    3.5186   -4.1285    6.2329 C   0  0  2  0  0  0  0  0  0  0  0  0
    3.0754   -3.7167    4.7644 C   0  0  0  0  0  0  0  0  0  0  0  0
    3.8070   -5.5732    6.2186 N   0  0  0  0  0  0  0  0  0  0  0  0
    5.1743   -5.8912    6.6249 C   0  0  0  0  0  0  0  0  0  0  0  0
    5.6129   -7.3068    6.2939 C   0  0  0  0  0  0  0  0  0  0  0  0
    5.6663   -8.3849    7.3515 C   0  0  0  0  0  0  0  0  0  0  0  0
    6.9472   -7.8232    6.7836 C   0  0  0  0  0  0  0  0  0  0  0  0
    2.7689   -6.4378    6.8252 C   0  0  0  0  0  0  0  0  0  0  0  0
    1.3063   -5.8896    6.7696 C   0  0  1  0  0  0  0  0  0  0  0  0
    0.5083   -6.7048    5.7139 C   0  0  0  0  0  0  0  0  0  0  0  0
    0.8210   -6.2632    4.4021 O   0  0  0  0  0  0  0  0  0  0  0  0
    0.8769   -7.2524    3.3783 C   0  0  2  0  0  0  0  0  0  0  0  0
   -0.0964   -8.4163    3.4729 C   0  0  0  0  0  0  0  0  0  0  0  0
   -1.6050   -8.4267    3.5417 C   0  0  0  0  0  0  0  0  0  0  0  0
    0.8732   -9.3367    3.4106 C   0  0  0  0  0  0  0  0  0  0  0  0
    0.9115  -10.8435    3.5004 C   0  0  0  0  0  0  0  0  0  0  0  0
    1.9980   -8.3163    3.5807 C   0  0  1  0  0  0  0  0  0  0  0  0
    3.1179   -8.2856    2.5807 C   0  0  2  0  0  0  0  0  0  0  0  0
    2.8512   -8.7901    1.2753 O   0  0  0  0  0  0  0  0  0  0  0  0
    3.8059   -9.5157    2.0739 C   0  0  1  0  0  0  0  0  0  0  0  0
    5.2377   -9.4650    1.6115 C   0  0  0  0  0  0  0  0  0  0  0  0
    1.2051   -4.3514    6.7139 C   0  0  2  0  0  0  0  0  0  0  0  0
   -2.5408    1.0630    6.0727 H   0  0  0  0  0  0  0  0  0  0  0  0
   -2.1106    0.4850    4.4636 H   0  0  0  0  0  0  0  0  0  0  0  0
   -0.8737    1.1957    5.5304 H   0  0  0  0  0  0  0  0  0  0  0  0
   -0.0270   -0.2570    3.7774 H   0  0  0  0  0  0  0  0  0  0  0  0
    1.9406   -1.5460    3.0949 H   0  0  0  0  0  0  0  0  0  0  0  0
   -0.9538   -5.0079    6.8271 H   0  0  0  0  0  0  0  0  0  0  0  0
   -0.2555   -8.6957    9.1220 H   0  0  0  0  0  0  0  0  0  0  0  0
    1.2980   -7.9344    9.4678 H   0  0  0  0  0  0  0  0  0  0  0  0
    0.8606   -8.3525    7.8376 H   0  0  0  0  0  0  0  0  0  0  0  0
    0.9566   -4.5916   10.0704 H   0  0  0  0  0  0  0  0  0  0  0  0
    2.0356   -5.9340    9.8474 H   0  0  0  0  0  0  0  0  0  0  0  0
    2.7611   -3.3352    9.4915 H   0  0  0  0  0  0  0  0  0  0  0  0
    3.6455   -4.6966    8.8871 H   0  0  0  0  0  0  0  0  0  0  0  0
    1.8339   -2.0578    8.0709 H   0  0  0  0  0  0  0  0  0  0  0  0
    4.4376   -3.5825    6.4552 H   0  0  0  0  0  0  0  0  0  0  0  0
    3.1319   -4.5765    4.0897 H   0  0  0  0  0  0  0  0  0  0  0  0
    3.7956   -2.9915    4.3935 H   0  0  0  0  0  0  0  0  0  0  0  0
    5.8730   -5.2269    6.1082 H   0  0  0  0  0  0  0  0  0  0  0  0
    5.3132   -5.7053    7.6905 H   0  0  0  0  0  0  0  0  0  0  0  0
    5.3419   -7.6199    5.2837 H   0  0  0  0  0  0  0  0  0  0  0  0
    5.4160   -8.1187    8.3771 H   0  0  0  0  0  0  0  0  0  0  0  0
    5.3761   -9.3847    7.0390 H   0  0  0  0  0  0  0  0  0  0  0  0
    7.5090   -8.4580    6.1026 H   0  0  0  0  0  0  0  0  0  0  0  0
    7.5463   -7.1940    7.4407 H   0  0  0  0  0  0  0  0  0  0  0  0
    2.8221   -7.4241    6.3808 H   0  0  0  0  0  0  0  0  0  0  0  0
    3.0450   -6.6376    7.8615 H   0  0  0  0  0  0  0  0  0  0  0  0
    0.7015   -7.7579    5.8595 H   0  0  0  0  0  0  0  0  0  0  0  0
   -0.5709   -6.6365    5.8050 H   0  0  0  0  0  0  0  0  0  0  0  0
    0.9427   -6.7719    2.4054 H   0  0  0  0  0  0  0  0  0  0  0  0
   -2.0149   -7.8256    2.7327 H   0  0  0  0  0  0  0  0  0  0  0  0
   -1.9427   -8.0134    4.4909 H   0  0  0  0  0  0  0  0  0  0  0  0
   -1.9894   -9.4436    3.4567 H   0  0  0  0  0  0  0  0  0  0  0  0
    1.5639  -11.1699    4.3105 H   0  0  0  0  0  0  0  0  0  0  0  0
    1.2852  -11.2598    2.5669 H   0  0  0  0  0  0  0  0  0  0  0  0
   -0.0825  -11.2473    3.6834 H   0  0  0  0  0  0  0  0  0  0  0  0
    2.4110   -8.2714    4.5808 H   0  0  0  0  0  0  0  0  0  0  0  0
    3.7114   -7.3728    2.6137 H   0  0  0  0  0  0  0  0  0  0  0  0
    3.4624  -10.4846    2.4302 H   0  0  0  0  0  0  0  0  0  0  0  0
    5.8857   -9.7479    2.4398 H   0  0  0  0  0  0  0  0  0  0  0  0
    5.5026   -8.4622    1.2761 H   0  0  0  0  0  0  0  0  0  0  0  0
    5.3785  -10.1720    0.7976 H   0  0  0  0  0  0  0  0  0  0  0  0
  1  2  1  0
  1 40  1  0
  1 41  1  0
  1 42  1  0
  2  3  1  0
  3  8  2  0
  3  4  1  0
  4  5  2  0
  4 43  1  0
  5  6  1  0
  5 44  1  0
  6 19  1  0
  6  7  2  0
 39  7  1  6
  7  8  1  0
  8  9  1  0
  9 10  1  0
 10 39  1  0
 10 11  1  0
 10 45  1  6
 11 26  1  0
 11 12  1  1
 11 14  1  0
 12 13  1  0
 13 46  1  0
 13 47  1  0
 13 48  1  0
 14 15  1  0
 14 49  1  0
 14 50  1  0
 15 16  1  0
 15 51  1  0
 15 52  1  0
 16 39  1  0
 16 17  1  1
 16 18  1  0
 17 53  1  0
 18 19  1  0
 18 20  1  0
 18 54  1  1
 19 55  1  0
 19 56  1  0
 20 21  1  0
 20 25  1  0
 21 22  1  0
 21 57  1  0
 21 58  1  0
 22 24  1  0
 22 23  1  0
 22 59  1  0
 23 24  1  0
 23 60  1  0
 23 61  1  0
 24 62  1  0
 24 63  1  0
 25 26  1  0
 25 64  1  0
 25 65  1  0
 26 27  1  6
 26 39  1  0
 27 28  1  0
 27 66  1  0
 27 67  1  0
 28 29  1  0
 29 34  1  0
 29 30  1  0
 29 68  1  6
 30 31  1  0
 30 32  2  0
 31 69  1  0
 31 70  1  0
 31 71  1  0
 32 33  1  0
 32 34  1  0
 33 72  1  0
 33 73  1  0
 33 74  1  0
 34 35  1  0
 34 75  1  1
 35 37  1  0
 35 36  1  0
 35 76  1  6
 36 37  1  0
 37 38  1  0
 37 77  1  1
 38 78  1  0
 38 79  1  0
 38 80  1  0
M  END
>  <i_m_ct_stereo_status>  (205) 
1

>  <s_m_source_file>  (205) 
/var/tmp/pbs.5076255.sched01/tmpbnv9a_8s/88lo2bg1ru.sdf

>  <i_m_source_file_index>  (205) 
14

>  <i_lp_mmshare_version>  (205) 
48012

>  <i_f3d_flags>  (205) 
0

>  <s_epik_input>  (205) 
W0NAQF0xMjNjNGM1W2NIXVtjSF1jKE9bQ0gzXSljNE9bQ0BASF0xW0NAQF02KE9bQ0gzXSlbQ0BAXTMoW0NIMl1OKFtDQEBIXShbQ0gyXTUpW0NAXTIoW09IXSlbQ0gyXVtDSDJdNilbQ0gyXVtDSF03W0NIMl1bQ0gyXTcpW0NIMl1PW0NAQEhdOEMoW0NIM10pPUMoW0NIM10pW0NASF04W0NAQEhdOU9bQ0BIXTlbQ0gzXQ==

>  <s_epik_cmdline>  (205) 
J2VwaWtfcHl0aG9uJywgJy1waHQnLCAnMi4wJywgJy1waCcsICc3LjAnLCAnLXRuJywgJzgnLCAnLW1hJywgJzIwMCcsICctaW1hZScsICc8aW5maWxlLm1hZT4nLCAnLW9tYWUnLCAnPG91dGZpbGUubWFlPic=

>  <r_lp_tautomer_probability>  (205) 
1

>  <r_epik_Ionization_Penalty>  (205) 
2.20054

>  <r_epik_Ionization_Penalty_Charging>  (205) 
0

>  <r_epik_Ionization_Penalty_Neutral>  (205) 
2.20054

>  <r_epik_State_Penalty>  (205) 
2.344

>  <r_epik_Charging_Adjusted_Penalty>  (205) 
2.344

>  <i_epik_Tot_Q>  (205) 
0

>  <i_epik_Tot_abs_Q>  (205) 
0

>  <s_lp_Force_Field>  (205) 
OPLS3e

>  <r_lp_Energy>  (205) 
161.012

>  <b_lp_Chiralities_Consistent>  (205) 
1

>  <s_lp_Variant>  (205) 
70:0-2

>  <s_i_glide_gridfile>  (205) 
pfpi4k_grid

>  <i_i_glide_lignum>  (205) 
14

>  <i_i_glide_rotatable_bonds>  (205) 
9

>  <r_i_docking_score>  (205) 
-1.92571

>  <r_i_glide_ligand_efficiency>  (205) 
-0.0493772

>  <r_i_glide_ligand_efficiency_sa>  (205) 
-0.167448

>  <r_i_glide_ligand_efficiency_ln>  (205) 
-0.412927

>  <r_i_glide_gscore>  (205) 
-1.92571

>  <r_i_glide_lipo>  (205) 
-0.142579

>  <r_i_glide_hbond>  (205) 
-0.386275

>  <r_i_glide_metal>  (205) 
-0

>  <r_i_glide_rewards>  (205) 
0

>  <r_i_glide_evdw>  (205) 
-24.7532

>  <r_i_glide_ecoul>  (205) 
-3.93933

>  <r_i_glide_erotb>  (205) 
0.431705

>  <r_i_glide_esite>  (205) 
0

>  <r_i_glide_emodel>  (205) 
-28.1647

>  <r_i_glide_energy>  (205) 
-28.6926

>  <r_i_glide_einternal>  (205) 
6.65423

>  <r_i_glide_intrahb_reward>  (205) 
-0

>  <i_i_glide_confnum>  (205) 
5

>  <i_i_glide_posenum>  (205) 
9

>  <r_i_glide_eff_state_penalty>  (205) 
0

>  <ligand_id>  (205) 
70

>  <original_smiles>  (205) 
COc1ccc2c3c1OC1C4(OC)CCC5(O)C(C2)N(CC2CC2)CC4(COC2C(C)=C(C)C2C2OC2C)C315

>  <smiles>  (205) 
[H]OC12C([H])([H])C([H])([H])C3(OC([H])([H])[H])C4([H])Oc5c(OC([H])([H])[H])c([H])c([H])c6c5C41C3(C([H])([H])OC1([H])C(C([H])([H])[H])=C(C([H])([H])[H])C1([H])C1([H])OC1([H])C([H])([H])[H])C([H])([H])N(C([H])([H])C1([H])C([H])([H])C1([H])[H])C2([H])C6([H])[H]

$$$$
70:1:1
     RDKit          3D

 80 88  0  0  1  0  0  0  0  0999 V2000
   -2.5567    3.3586    2.6891 C   0  0  0  0  0  0  0  0  0  0  0  0
   -2.0267    2.7390    3.8466 O   0  0  0  0  0  0  0  0  0  0  0  0
   -1.0685    1.7694    3.6728 C   0  0  0  0  0  0  0  0  0  0  0  0
   -0.5903    1.3141    2.4074 C   0  0  0  0  0  0  0  0  0  0  0  0
    0.5089    0.4174    2.2916 C   0  0  0  0  0  0  0  0  0  0  0  0
    1.0990   -0.1017    3.4566 C   0  0  0  0  0  0  0  0  0  0  0  0
    0.4674    0.2588    4.6446 C   0  0  0  0  0  0  0  0  0  0  0  0
   -0.5242    1.2073    4.8504 C   0  0  0  0  0  0  0  0  0  0  0  0
   -0.6436    1.5766    6.1832 O   0  0  0  0  0  0  0  0  0  0  0  0
   -0.1136    0.4194    6.8457 C   0  0  2  0  0  0  0  0  0  0  0  0
    0.8862    0.0191    7.9496 C   0  0  2  0  0  0  0  0  0  0  0  0
    0.2493   -0.6264    9.0542 O   0  0  0  0  0  0  0  0  0  0  0  0
   -0.2521    0.2295   10.0754 C   0  0  0  0  0  0  0  0  0  0  0  0
    1.9701    1.0275    8.3837 C   0  0  0  0  0  0  0  0  0  0  0  0
    2.9038    1.4275    7.2191 C   0  0  0  0  0  0  0  0  0  0  0  0
    2.3944    0.9412    5.8317 C   0  0  1  0  0  0  0  0  0  0  0  0
    2.3144    2.1496    5.0757 O   0  0  0  0  0  0  0  0  0  0  0  0
    3.2647   -0.0658    5.0141 C   0  0  2  0  0  0  0  0  0  0  0  0
    2.5443   -0.5886    3.6965 C   0  0  0  0  0  0  0  0  0  0  0  0
    3.6752   -1.2423    5.7983 N   0  0  0  0  0  0  0  0  0  0  0  0
    5.1136   -1.3017    6.0359 C   0  0  0  0  0  0  0  0  0  0  0  0
    5.6128   -2.6552    6.5016 C   0  0  0  0  0  0  0  0  0  0  0  0
    5.9835   -2.9064    7.9443 C   0  0  0  0  0  0  0  0  0  0  0  0
    7.0612   -2.8393    6.8912 C   0  0  0  0  0  0  0  0  0  0  0  0
    2.8352   -1.5520    6.9837 C   0  0  0  0  0  0  0  0  0  0  0  0
    1.3427   -1.0871    6.8900 C   0  0  1  0  0  0  0  0  0  0  0  0
    0.4847   -2.3592    6.6905 C   0  0  0  0  0  0  0  0  0  0  0  0
    1.0930   -3.2043    5.7342 O   0  0  0  0  0  0  0  0  0  0  0  0
    0.2951   -4.2925    5.3132 C   0  0  2  0  0  0  0  0  0  0  0  0
    0.0151   -5.3680    6.3500 C   0  0  0  0  0  0  0  0  0  0  0  0
   -0.7985   -5.3067    7.6252 C   0  0  0  0  0  0  0  0  0  0  0  0
    0.5820   -6.3297    5.6280 C   0  0  0  0  0  0  0  0  0  0  0  0
    0.8187   -7.8125    5.8337 C   0  0  0  0  0  0  0  0  0  0  0  0
    1.2119   -5.3544    4.6354 C   0  0  1  0  0  0  0  0  0  0  0  0
    0.9928   -5.5805    3.1550 C   0  0  2  0  0  0  0  0  0  0  0  0
   -0.1799   -6.2963    2.7441 O   0  0  0  0  0  0  0  0  0  0  0  0
    1.0984   -6.9140    2.4830 C   0  0  1  0  0  0  0  0  0  0  0  0
    1.4942   -7.0201    1.0360 C   0  0  0  0  0  0  0  0  0  0  0  0
    1.1010    0.1116    5.9532 C   0  0  2  0  0  0  0  0  0  0  0  0
   -3.2597    4.1307    2.9906 H   0  0  0  0  0  0  0  0  0  0  0  0
   -3.0935    2.6381    2.0755 H   0  0  0  0  0  0  0  0  0  0  0  0
   -1.7852    3.8450    2.0922 H   0  0  0  0  0  0  0  0  0  0  0  0
   -0.9705    1.7197    1.4863 H   0  0  0  0  0  0  0  0  0  0  0  0
    0.9544    0.2257    1.3221 H   0  0  0  0  0  0  0  0  0  0  0  0
   -0.9434   -0.2814    6.8512 H   0  0  0  0  0  0  0  0  0  0  0  0
   -0.7347   -0.3679   10.8538 H   0  0  0  0  0  0  0  0  0  0  0  0
   -0.9861    0.9339    9.6781 H   0  0  0  0  0  0  0  0  0  0  0  0
    0.5382    0.7939   10.5761 H   0  0  0  0  0  0  0  0  0  0  0  0
    1.5003    1.9253    8.7842 H   0  0  0  0  0  0  0  0  0  0  0  0
    2.5654    0.6031    9.1936 H   0  0  0  0  0  0  0  0  0  0  0  0
    3.0023    2.5148    7.2453 H   0  0  0  0  0  0  0  0  0  0  0  0
    3.9048    1.0470    7.4064 H   0  0  0  0  0  0  0  0  0  0  0  0
    1.9631    1.9207    4.2259 H   0  0  0  0  0  0  0  0  0  0  0  0
    4.1548    0.4766    4.6932 H   0  0  0  0  0  0  0  0  0  0  0  0
    2.5587   -1.6821    3.6522 H   0  0  0  0  0  0  0  0  0  0  0  0
    3.1195   -0.2438    2.8404 H   0  0  0  0  0  0  0  0  0  0  0  0
    5.6429   -1.0842    5.1051 H   0  0  0  0  0  0  0  0  0  0  0  0
    5.4228   -0.5314    6.7423 H   0  0  0  0  0  0  0  0  0  0  0  0
    5.1784   -3.4904    5.9498 H   0  0  0  0  0  0  0  0  0  0  0  0
    5.9189   -2.0784    8.6479 H   0  0  0  0  0  0  0  0  0  0  0  0
    5.7375   -3.8861    8.3444 H   0  0  0  0  0  0  0  0  0  0  0  0
    7.5298   -3.7771    6.6039 H   0  0  0  0  0  0  0  0  0  0  0  0
    7.7168   -1.9697    6.9051 H   0  0  0  0  0  0  0  0  0  0  0  0
    2.8770   -2.6228    7.1694 H   0  0  0  0  0  0  0  0  0  0  0  0
    3.2996   -1.1367    7.8784 H   0  0  0  0  0  0  0  0  0  0  0  0
    0.4173   -2.8699    7.6441 H   0  0  0  0  0  0  0  0  0  0  0  0
   -0.5341   -2.1669    6.3533 H   0  0  0  0  0  0  0  0  0  0  0  0
   -0.5345   -3.9867    4.6805 H   0  0  0  0  0  0  0  0  0  0  0  0
   -1.7545   -4.8261    7.4252 H   0  0  0  0  0  0  0  0  0  0  0  0
   -0.2732   -4.7465    8.3954 H   0  0  0  0  0  0  0  0  0  0  0  0
   -0.9769   -6.3016    8.0277 H   0  0  0  0  0  0  0  0  0  0  0  0
    1.8813   -8.0417    5.7708 H   0  0  0  0  0  0  0  0  0  0  0  0
    0.2949   -8.3976    5.0790 H   0  0  0  0  0  0  0  0  0  0  0  0
    0.4594   -8.1337    6.8112 H   0  0  0  0  0  0  0  0  0  0  0  0
    2.2517   -5.0977    4.8441 H   0  0  0  0  0  0  0  0  0  0  0  0
    1.2248   -4.7101    2.5431 H   0  0  0  0  0  0  0  0  0  0  0  0
    1.3329   -7.7827    3.0946 H   0  0  0  0  0  0  0  0  0  0  0  0
    2.5685   -7.1895    0.9658 H   0  0  0  0  0  0  0  0  0  0  0  0
    1.2445   -6.1115    0.4909 H   0  0  0  0  0  0  0  0  0  0  0  0
    0.9690   -7.8534    0.5806 H   0  0  0  0  0  0  0  0  0  0  0  0
  1  2  1  0
  1 40  1  0
  1 41  1  0
  1 42  1  0
  2  3  1  0
  3  8  2  0
  3  4  1  0
  4  5  2  0
  4 43  1  0
  5  6  1  0
  5 44  1  0
  6 19  1  0
  6  7  2  0
 39  7  1  6
  7  8  1  0
  8  9  1  0
  9 10  1  0
 10 39  1  0
 10 11  1  0
 10 45  1  6
 11 26  1  0
 11 12  1  1
 11 14  1  0
 12 13  1  0
 13 46  1  0
 13 47  1  0
 13 48  1  0
 14 15  1  0
 14 49  1  0
 14 50  1  0
 15 16  1  0
 15 51  1  0
 15 52  1  0
 16 39  1  0
 16 17  1  6
 16 18  1  0
 17 53  1  0
 18 19  1  0
 18 20  1  0
 18 54  1  6
 19 55  1  0
 19 56  1  0
 20 21  1  0
 20 25  1  0
 21 22  1  0
 21 57  1  0
 21 58  1  0
 22 24  1  0
 22 23  1  0
 22 59  1  0
 23 24  1  0
 23 60  1  0
 23 61  1  0
 24 62  1  0
 24 63  1  0
 25 26  1  0
 25 64  1  0
 25 65  1  0
 26 27  1  6
 26 39  1  0
 27 28  1  0
 27 66  1  0
 27 67  1  0
 28 29  1  0
 29 34  1  0
 29 30  1  0
 29 68  1  6
 30 31  1  0
 30 32  2  0
 31 69  1  0
 31 70  1  0
 31 71  1  0
 32 33  1  0
 32 34  1  0
 33 72  1  0
 33 73  1  0
 33 74  1  0
 34 35  1  0
 34 75  1  6
 35 37  1  0
 35 36  1  0
 35 76  1  6
 36 37  1  0
 37 38  1  0
 37 77  1  1
 38 78  1  0
 38 79  1  0
 38 80  1  0
M  END
>  <i_m_ct_stereo_status>  (206) 
1

>  <s_m_source_file>  (206) 
/var/tmp/pbs.5076255.sched01/tmpbnv9a_8s/88lo2bg1ru.sdf

>  <i_m_source_file_index>  (206) 
14

>  <i_lp_mmshare_version>  (206) 
48012

>  <i_f3d_flags>  (206) 
0

>  <s_epik_input>  (206) 
W0NAQF0xMjNjNGM1W2NIXVtjSF1jKE9bQ0gzXSljNE9bQ0BASF0xW0NAQF02KE9bQ0gzXSlbQ0BAXTMoW0NIMl1OKFtDQEBIXShbQ0gyXTUpW0NAXTIoW09IXSlbQ0gyXVtDSDJdNilbQ0gyXVtDSF03W0NIMl1bQ0gyXTcpW0NIMl1PW0NAQEhdOEMoW0NIM10pPUMoW0NIM10pW0NASF04W0NAQEhdOU9bQ0BIXTlbQ0gzXQ==

>  <s_epik_cmdline>  (206) 
J2VwaWtfcHl0aG9uJywgJy1waHQnLCAnMi4wJywgJy1waCcsICc3LjAnLCAnLXRuJywgJzgnLCAnLW1hJywgJzIwMCcsICctaW1hZScsICc8aW5maWxlLm1hZT4nLCAnLW9tYWUnLCAnPG91dGZpbGUubWFlPic=

>  <r_lp_tautomer_probability>  (206) 
1

>  <r_epik_Ionization_Penalty>  (206) 
2.20054

>  <r_epik_Ionization_Penalty_Charging>  (206) 
0

>  <r_epik_Ionization_Penalty_Neutral>  (206) 
2.20054

>  <r_epik_State_Penalty>  (206) 
2.344

>  <r_epik_Charging_Adjusted_Penalty>  (206) 
2.344

>  <i_epik_Tot_Q>  (206) 
0

>  <i_epik_Tot_abs_Q>  (206) 
0

>  <s_lp_Force_Field>  (206) 
OPLS3e

>  <r_lp_Energy>  (206) 
161.012

>  <b_lp_Chiralities_Consistent>  (206) 
1

>  <s_lp_Variant>  (206) 
70:0-2

>  <s_i_glide_gridfile>  (206) 
pfpi4k_grid

>  <i_i_glide_lignum>  (206) 
14

>  <i_i_glide_rotatable_bonds>  (206) 
9

>  <r_i_docking_score>  (206) 
-1.61618

>  <r_i_glide_ligand_efficiency>  (206) 
-0.0414406

>  <r_i_glide_ligand_efficiency_sa>  (206) 
-0.140534

>  <r_i_glide_ligand_efficiency_ln>  (206) 
-0.346556

>  <r_i_glide_gscore>  (206) 
-1.61618

>  <r_i_glide_lipo>  (206) 
-0.160055

>  <r_i_glide_hbond>  (206) 
-0.155218

>  <r_i_glide_metal>  (206) 
-0

>  <r_i_glide_rewards>  (206) 
0

>  <r_i_glide_evdw>  (206) 
-24.511

>  <r_i_glide_ecoul>  (206) 
-3.38045

>  <r_i_glide_erotb>  (206) 
0.431705

>  <r_i_glide_esite>  (206) 
0

>  <r_i_glide_emodel>  (206) 
-29.511

>  <r_i_glide_energy>  (206) 
-27.8914

>  <r_i_glide_einternal>  (206) 
2.12867

>  <r_i_glide_intrahb_reward>  (206) 
-0

>  <i_i_glide_confnum>  (206) 
1

>  <i_i_glide_posenum>  (206) 
2

>  <r_i_glide_eff_state_penalty>  (206) 
0

>  <ligand_id>  (206) 
70

>  <original_smiles>  (206) 
COc1ccc2c3c1OC1C4(OC)CCC5(O)C(C2)N(CC2CC2)CC4(COC2C(C)=C(C)C2C2OC2C)C315

>  <smiles>  (206) 
[H]OC12C([H])([H])C([H])([H])C3(OC([H])([H])[H])C4([H])Oc5c(OC([H])([H])[H])c([H])c([H])c6c5C41C3(C([H])([H])OC1([H])C(C([H])([H])[H])=C(C([H])([H])[H])C1([H])C1([H])OC1([H])C([H])([H])[H])C([H])([H])N(C([H])([H])C1([H])C([H])([H])C1([H])[H])C2([H])C6([H])[H]

$$$$
70:1:2
     RDKit          3D

 80 88  0  0  1  0  0  0  0  0999 V2000
    4.8494   -3.2050   -2.8145 C   0  0  0  0  0  0  0  0  0  0  0  0
    4.1894   -2.6082   -1.7120 O   0  0  0  0  0  0  0  0  0  0  0  0
    4.2613   -3.2400   -0.4933 C   0  0  0  0  0  0  0  0  0  0  0  0
    4.9095   -4.4918   -0.2667 C   0  0  0  0  0  0  0  0  0  0  0  0
    5.0900   -5.0132    1.0453 C   0  0  0  0  0  0  0  0  0  0  0  0
    4.5426   -4.3268    2.1438 C   0  0  0  0  0  0  0  0  0  0  0  0
    3.7620   -3.2198    1.8225 C   0  0  0  0  0  0  0  0  0  0  0  0
    3.6569   -2.5788    0.5979 C   0  0  0  0  0  0  0  0  0  0  0  0
    3.1521   -1.2936    0.7270 O   0  0  0  0  0  0  0  0  0  0  0  0
    2.3897   -1.4051    1.9401 C   0  0  2  0  0  0  0  0  0  0  0  0
    2.1764   -0.6749    3.2865 C   0  0  2  0  0  0  0  0  0  0  0  0
    0.8372   -0.2226    3.4844 O   0  0  0  0  0  0  0  0  0  0  0  0
    0.3947    0.7854    2.5839 C   0  0  0  0  0  0  0  0  0  0  0  0
    3.2130    0.3770    3.7310 C   0  0  0  0  0  0  0  0  0  0  0  0
    4.6274   -0.2353    3.9033 C   0  0  0  0  0  0  0  0  0  0  0  0
    4.7424   -1.6855    3.3356 C   0  0  1  0  0  0  0  0  0  0  0  0
    5.8094   -1.5609    2.3918 O   0  0  0  0  0  0  0  0  0  0  0  0
    5.0803   -2.8647    4.3074 C   0  0  2  0  0  0  0  0  0  0  0  0
    5.0079   -4.2942    3.6143 C   0  0  0  0  0  0  0  0  0  0  0  0
    4.2201   -2.8919    5.5013 N   0  0  0  0  0  0  0  0  0  0  0  0
    4.9387   -2.6106    6.7405 C   0  0  0  0  0  0  0  0  0  0  0  0
    4.1840   -2.9867    8.0014 C   0  0  0  0  0  0  0  0  0  0  0  0
    3.5217   -1.9405    8.8663 C   0  0  0  0  0  0  0  0  0  0  0  0
    4.7575   -2.6547    9.3606 C   0  0  0  0  0  0  0  0  0  0  0  0
    2.9123   -2.2055    5.3697 C   0  0  0  0  0  0  0  0  0  0  0  0
    2.3287   -2.1319    3.9197 C   0  0  1  0  0  0  0  0  0  0  0  0
    1.1427   -3.1278    3.8793 C   0  0  0  0  0  0  0  0  0  0  0  0
    1.6565   -4.4180    4.1557 O   0  0  0  0  0  0  0  0  0  0  0  0
    0.6640   -5.3932    4.3975 C   0  0  2  0  0  0  0  0  0  0  0  0
    0.2075   -5.4885    5.8381 C   0  0  0  0  0  0  0  0  0  0  0  0
   -0.4910   -4.4748    6.7066 C   0  0  0  0  0  0  0  0  0  0  0  0
    0.5463   -6.7768    5.9452 C   0  0  0  0  0  0  0  0  0  0  0  0
    0.4881   -7.7965    7.0589 C   0  0  0  0  0  0  0  0  0  0  0  0
    1.3191   -6.7846    4.6256 C   0  0  1  0  0  0  0  0  0  0  0  0
    0.9811   -7.8423    3.5933 C   0  0  2  0  0  0  0  0  0  0  0  0
   -0.3651   -8.3368    3.5614 O   0  0  0  0  0  0  0  0  0  0  0  0
    0.6692   -9.2713    3.9311 C   0  0  1  0  0  0  0  0  0  0  0  0
    0.9552  -10.3819    2.9530 C   0  0  0  0  0  0  0  0  0  0  0  0
    3.3885   -2.1958    2.7980 C   0  0  2  0  0  0  0  0  0  0  0  0
    4.7175   -2.5632   -3.6840 H   0  0  0  0  0  0  0  0  0  0  0  0
    4.4230   -4.1796   -3.0510 H   0  0  0  0  0  0  0  0  0  0  0  0
    5.9215   -3.3092   -2.6402 H   0  0  0  0  0  0  0  0  0  0  0  0
    5.3885   -5.0180   -1.0717 H   0  0  0  0  0  0  0  0  0  0  0  0
    5.7494   -5.8569    1.2087 H   0  0  0  0  0  0  0  0  0  0  0  0
    1.4675   -1.8960    1.6433 H   0  0  0  0  0  0  0  0  0  0  0  0
   -0.6440    1.0349    2.8137 H   0  0  0  0  0  0  0  0  0  0  0  0
    0.4272    0.4504    1.5439 H   0  0  0  0  0  0  0  0  0  0  0  0
    0.9787    1.7043    2.6761 H   0  0  0  0  0  0  0  0  0  0  0  0
    3.2528    1.1917    3.0072 H   0  0  0  0  0  0  0  0  0  0  0  0
    2.8985    0.8267    4.6731 H   0  0  0  0  0  0  0  0  0  0  0  0
    5.3355    0.4425    3.4203 H   0  0  0  0  0  0  0  0  0  0  0  0
    4.9102   -0.2272    4.9527 H   0  0  0  0  0  0  0  0  0  0  0  0
    5.5055   -0.9846    1.7045 H   0  0  0  0  0  0  0  0  0  0  0  0
    6.1086   -2.7263    4.6352 H   0  0  0  0  0  0  0  0  0  0  0  0
    4.3830   -4.9742    4.2005 H   0  0  0  0  0  0  0  0  0  0  0  0
    6.0091   -4.7205    3.6245 H   0  0  0  0  0  0  0  0  0  0  0  0
    5.8672   -3.1862    6.7577 H   0  0  0  0  0  0  0  0  0  0  0  0
    5.2372   -1.5635    6.7859 H   0  0  0  0  0  0  0  0  0  0  0  0
    3.6929   -3.9592    7.9359 H   0  0  0  0  0  0  0  0  0  0  0  0
    3.6288   -0.8936    8.5868 H   0  0  0  0  0  0  0  0  0  0  0  0
    2.5722   -2.2144    9.3178 H   0  0  0  0  0  0  0  0  0  0  0  0
    4.6229   -3.3951   10.1455 H   0  0  0  0  0  0  0  0  0  0  0  0
    5.6780   -2.0748    9.4156 H   0  0  0  0  0  0  0  0  0  0  0  0
    2.1968   -2.7028    6.0213 H   0  0  0  0  0  0  0  0  0  0  0  0
    2.9875   -1.2012    5.7875 H   0  0  0  0  0  0  0  0  0  0  0  0
    0.3890   -2.8462    4.6117 H   0  0  0  0  0  0  0  0  0  0  0  0
    0.6185   -3.1729    2.9263 H   0  0  0  0  0  0  0  0  0  0  0  0
   -0.1141   -5.4336    3.6405 H   0  0  0  0  0  0  0  0  0  0  0  0
   -1.3476   -4.0646    6.1776 H   0  0  0  0  0  0  0  0  0  0  0  0
    0.1874   -3.6580    6.9525 H   0  0  0  0  0  0  0  0  0  0  0  0
   -0.8363   -4.9335    7.6326 H   0  0  0  0  0  0  0  0  0  0  0  0
    1.4780   -8.2100    7.2455 H   0  0  0  0  0  0  0  0  0  0  0  0
   -0.1824   -8.6156    6.7998 H   0  0  0  0  0  0  0  0  0  0  0  0
    0.1229   -7.3505    7.9829 H   0  0  0  0  0  0  0  0  0  0  0  0
    2.3969   -6.6565    4.7271 H   0  0  0  0  0  0  0  0  0  0  0  0
    1.4190   -7.6599    2.6098 H   0  0  0  0  0  0  0  0  0  0  0  0
    0.6638   -9.5746    4.9773 H   0  0  0  0  0  0  0  0  0  0  0  0
    1.9363  -10.8044    3.1675 H   0  0  0  0  0  0  0  0  0  0  0  0
    0.9458  -10.0127    1.9276 H   0  0  0  0  0  0  0  0  0  0  0  0
    0.2137  -11.1697    3.0632 H   0  0  0  0  0  0  0  0  0  0  0  0
  1  2  1  0
  1 40  1  0
  1 41  1  0
  1 42  1  0
  2  3  1  0
  3  8  2  0
  3  4  1  0
  4  5  2  0
  4 43  1  0
  5  6  1  0
  5 44  1  0
  6 19  1  0
  6  7  2  0
 39  7  1  6
  7  8  1  0
  8  9  1  0
  9 10  1  0
 10 39  1  0
 10 11  1  0
 10 45  1  6
 11 26  1  0
 11 12  1  6
 11 14  1  0
 12 13  1  0
 13 46  1  0
 13 47  1  0
 13 48  1  0
 14 15  1  0
 14 49  1  0
 14 50  1  0
 15 16  1  0
 15 51  1  0
 15 52  1  0
 16 39  1  0
 16 17  1  6
 16 18  1  0
 17 53  1  0
 18 19  1  0
 18 20  1  0
 18 54  1  1
 19 55  1  0
 19 56  1  0
 20 21  1  0
 20 25  1  0
 21 22  1  0
 21 57  1  0
 21 58  1  0
 22 24  1  0
 22 23  1  0
 22 59  1  0
 23 24  1  0
 23 60  1  0
 23 61  1  0
 24 62  1  0
 24 63  1  0
 25 26  1  0
 25 64  1  0
 25 65  1  0
 26 27  1  6
 26 39  1  0
 27 28  1  0
 27 66  1  0
 27 67  1  0
 28 29  1  0
 29 34  1  0
 29 30  1  0
 29 68  1  6
 30 31  1  0
 30 32  2  0
 31 69  1  0
 31 70  1  0
 31 71  1  0
 32 33  1  0
 32 34  1  0
 33 72  1  0
 33 73  1  0
 33 74  1  0
 34 35  1  0
 34 75  1  1
 35 37  1  0
 35 36  1  0
 35 76  1  6
 36 37  1  0
 37 38  1  0
 37 77  1  1
 38 78  1  0
 38 79  1  0
 38 80  1  0
M  END
>  <i_m_ct_stereo_status>  (207) 
1

>  <s_m_source_file>  (207) 
/var/tmp/pbs.5076255.sched01/tmpbnv9a_8s/88lo2bg1ru.sdf

>  <i_m_source_file_index>  (207) 
14

>  <i_lp_mmshare_version>  (207) 
48012

>  <i_f3d_flags>  (207) 
0

>  <s_epik_input>  (207) 
W0NAQF0xMjNjNGM1W2NIXVtjSF1jKE9bQ0gzXSljNE9bQ0BASF0xW0NAQF02KE9bQ0gzXSlbQ0BAXTMoW0NIMl1OKFtDQEBIXShbQ0gyXTUpW0NAXTIoW09IXSlbQ0gyXVtDSDJdNilbQ0gyXVtDSF03W0NIMl1bQ0gyXTcpW0NIMl1PW0NAQEhdOEMoW0NIM10pPUMoW0NIM10pW0NASF04W0NAQEhdOU9bQ0BIXTlbQ0gzXQ==

>  <s_epik_cmdline>  (207) 
J2VwaWtfcHl0aG9uJywgJy1waHQnLCAnMi4wJywgJy1waCcsICc3LjAnLCAnLXRuJywgJzgnLCAnLW1hJywgJzIwMCcsICctaW1hZScsICc8aW5maWxlLm1hZT4nLCAnLW9tYWUnLCAnPG91dGZpbGUubWFlPic=

>  <r_lp_tautomer_probability>  (207) 
1

>  <r_epik_Ionization_Penalty>  (207) 
2.20054

>  <r_epik_Ionization_Penalty_Charging>  (207) 
0

>  <r_epik_Ionization_Penalty_Neutral>  (207) 
2.20054

>  <r_epik_State_Penalty>  (207) 
2.344

>  <r_epik_Charging_Adjusted_Penalty>  (207) 
2.344

>  <i_epik_Tot_Q>  (207) 
0

>  <i_epik_Tot_abs_Q>  (207) 
0

>  <s_lp_Force_Field>  (207) 
OPLS3e

>  <r_lp_Energy>  (207) 
161.012

>  <b_lp_Chiralities_Consistent>  (207) 
1

>  <s_lp_Variant>  (207) 
70:0-2

>  <s_i_glide_gridfile>  (207) 
pfpi4k_grid

>  <i_i_glide_lignum>  (207) 
14

>  <i_i_glide_rotatable_bonds>  (207) 
9

>  <r_i_docking_score>  (207) 
-1.57248

>  <r_i_glide_ligand_efficiency>  (207) 
-0.0403199

>  <r_i_glide_ligand_efficiency_sa>  (207) 
-0.136733

>  <r_i_glide_ligand_efficiency_ln>  (207) 
-0.337183

>  <r_i_glide_gscore>  (207) 
-1.57248

>  <r_i_glide_lipo>  (207) 
-0.637972

>  <r_i_glide_hbond>  (207) 
0

>  <r_i_glide_metal>  (207) 
-0

>  <r_i_glide_rewards>  (207) 
0

>  <r_i_glide_evdw>  (207) 
-27.2672

>  <r_i_glide_ecoul>  (207) 
-0.0189866

>  <r_i_glide_erotb>  (207) 
0.431705

>  <r_i_glide_esite>  (207) 
0

>  <r_i_glide_emodel>  (207) 
-29.6239

>  <r_i_glide_energy>  (207) 
-27.2862

>  <r_i_glide_einternal>  (207) 
0.649194

>  <r_i_glide_intrahb_reward>  (207) 
-0

>  <i_i_glide_confnum>  (207) 
1

>  <i_i_glide_posenum>  (207) 
11

>  <r_i_glide_eff_state_penalty>  (207) 
0

>  <ligand_id>  (207) 
70

>  <original_smiles>  (207) 
COc1ccc2c3c1OC1C4(OC)CCC5(O)C(C2)N(CC2CC2)CC4(COC2C(C)=C(C)C2C2OC2C)C315

>  <smiles>  (207) 
[H]OC12C([H])([H])C([H])([H])C3(OC([H])([H])[H])C4([H])Oc5c(OC([H])([H])[H])c([H])c([H])c6c5C41C3(C([H])([H])OC1([H])C(C([H])([H])[H])=C(C([H])([H])[H])C1([H])C1([H])OC1([H])C([H])([H])[H])C([H])([H])N(C([H])([H])C1([H])C([H])([H])C1([H])[H])C2([H])C6([H])[H]

$$$$
72:0:0
     RDKit          3D

 12 13  0  0  1  0  0  0  0  0999 V2000
    1.4474  -10.5595    3.2304 C   0  0  0  0  0  0  0  0  0  0  0  0
    2.5145  -10.0463    2.4605 C   0  0  0  0  0  0  0  0  0  0  0  0
    2.4718   -8.8774    1.7819 N   0  0  0  0  0  0  0  0  0  0  0  0
    1.3195   -8.2135    1.8989 N   0  0  0  0  0  0  0  0  0  0  0  0
    1.0755   -7.0184    1.2983 N   0  0  0  0  0  0  0  0  0  0  0  0
   -0.1329   -6.6988    1.6456 N   0  0  0  0  0  0  0  0  0  0  0  0
   -0.7256   -7.6311    2.4755 N   0  0  0  0  0  0  0  0  0  0  0  0
    0.1828   -8.5928    2.6257 C   0  0  0  0  0  0  0  0  0  0  0  0
    0.2467   -9.8263    3.3236 C   0  0  0  0  0  0  0  0  0  0  0  0
    1.5461  -11.5100    3.7373 H   0  0  0  0  0  0  0  0  0  0  0  0
    3.4274  -10.6136    2.3628 H   0  0  0  0  0  0  0  0  0  0  0  0
   -0.5862  -10.1774    3.9099 H   0  0  0  0  0  0  0  0  0  0  0  0
  1  9  2  0
  1  2  1  0
  1 10  1  0
  2  3  2  0
  2 11  1  0
  3  4  1  0
  4  8  1  0
  4  5  1  0
  5  6  2  0
  6  7  1  0
  7  8  2  0
  8  9  1  0
  9 12  1  0
M  END
>  <i_m_ct_stereo_status>  (208) 
1

>  <s_m_source_file>  (208) 
/var/tmp/pbs.5076255.sched01/tmpbnv9a_8s/88lo2bg1ru.sdf

>  <i_m_source_file_index>  (208) 
16

>  <i_lp_mmshare_version>  (208) 
48012

>  <i_f3d_flags>  (208) 
0

>  <s_epik_input>  (208) 
bjFbY0hdW2NIXVtjSF1jKG4xMilubm4y

>  <s_epik_cmdline>  (208) 
J2VwaWtfcHl0aG9uJywgJy1waHQnLCAnMi4wJywgJy1waCcsICc3LjAnLCAnLXRuJywgJzgnLCAnLW1hJywgJzIwMCcsICctaW1hZScsICc8aW5maWxlLm1hZT4nLCAnLW9tYWUnLCAnPG91dGZpbGUubWFlPic=

>  <r_lp_tautomer_probability>  (208) 
1

>  <r_epik_Ionization_Penalty>  (208) 
2.20676e-10

>  <r_epik_Ionization_Penalty_Charging>  (208) 
0

>  <r_epik_Ionization_Penalty_Neutral>  (208) 
2.20676e-10

>  <r_epik_State_Penalty>  (208) 
-0

>  <r_epik_Charging_Adjusted_Penalty>  (208) 
0

>  <i_epik_Tot_Q>  (208) 
0

>  <i_epik_Tot_abs_Q>  (208) 
0

>  <s_lp_Force_Field>  (208) 
OPLS3e

>  <r_lp_Energy>  (208) 
12.6859

>  <b_lp_Chiralities_Consistent>  (208) 
1

>  <s_lp_Variant>  (208) 
72:0-1

>  <s_i_glide_gridfile>  (208) 
pfpi4k_grid

>  <i_i_glide_lignum>  (208) 
16

>  <i_i_glide_rotatable_bonds>  (208) 
0

>  <r_i_docking_score>  (208) 
-4.06315

>  <r_i_glide_ligand_efficiency>  (208) 
-0.451461

>  <r_i_glide_ligand_efficiency_sa>  (208) 
-0.939077

>  <r_i_glide_ligand_efficiency_ln>  (208) 
-1.27084

>  <r_i_glide_gscore>  (208) 
-4.06315

>  <r_i_glide_lipo>  (208) 
-0.132604

>  <r_i_glide_hbond>  (208) 
0

>  <r_i_glide_metal>  (208) 
-0

>  <r_i_glide_rewards>  (208) 
-2.25

>  <r_i_glide_evdw>  (208) 
-14.9367

>  <r_i_glide_ecoul>  (208) 
-4.12123

>  <r_i_glide_erotb>  (208) 
0

>  <r_i_glide_esite>  (208) 
-0.315527

>  <r_i_glide_emodel>  (208) 
-25.177

>  <r_i_glide_energy>  (208) 
-19.0579

>  <r_i_glide_einternal>  (208) 
0

>  <r_i_glide_intrahb_reward>  (208) 
-0

>  <i_i_glide_confnum>  (208) 
2

>  <i_i_glide_posenum>  (208) 
6

>  <r_i_glide_eff_state_penalty>  (208) 
0

>  <ligand_id>  (208) 
72

>  <original_smiles>  (208) 
c1cnn2nnnc2c1

>  <smiles>  (208) 
[H]c1nn2nnnc2c([H])c1[H]

$$$$
72:0:1
     RDKit          3D

 12 13  0  0  1  0  0  0  0  0999 V2000
    0.6279  -10.0900    4.2492 C   0  0  0  0  0  0  0  0  0  0  0  0
    1.7974  -10.1951    3.4664 C   0  0  0  0  0  0  0  0  0  0  0  0
    2.1169   -9.3513    2.4579 N   0  0  0  0  0  0  0  0  0  0  0  0
    1.2194   -8.3851    2.2427 N   0  0  0  0  0  0  0  0  0  0  0  0
    1.3561   -7.4302    1.2860 N   0  0  0  0  0  0  0  0  0  0  0  0
    0.2946   -6.6891    1.3785 N   0  0  0  0  0  0  0  0  0  0  0  0
   -0.5610   -7.0919    2.3900 N   0  0  0  0  0  0  0  0  0  0  0  0
    0.0199   -8.1612    2.9316 C   0  0  0  0  0  0  0  0  0  0  0  0
   -0.2934   -9.0535    3.9878 C   0  0  0  0  0  0  0  0  0  0  0  0
    0.4319  -10.8038    5.0387 H   0  0  0  0  0  0  0  0  0  0  0  0
    2.5068  -10.9880    3.6599 H   0  0  0  0  0  0  0  0  0  0  0  0
   -1.2075   -8.9433    4.5560 H   0  0  0  0  0  0  0  0  0  0  0  0
  1  9  2  0
  1  2  1  0
  1 10  1  0
  2  3  2  0
  2 11  1  0
  3  4  1  0
  4  8  1  0
  4  5  1  0
  5  6  2  0
  6  7  1  0
  7  8  2  0
  8  9  1  0
  9 12  1  0
M  END
>  <i_m_ct_stereo_status>  (209) 
1

>  <s_m_source_file>  (209) 
/var/tmp/pbs.5076255.sched01/tmpbnv9a_8s/88lo2bg1ru.sdf

>  <i_m_source_file_index>  (209) 
16

>  <i_lp_mmshare_version>  (209) 
48012

>  <i_f3d_flags>  (209) 
0

>  <s_epik_input>  (209) 
bjFbY0hdW2NIXVtjSF1jKG4xMilubm4y

>  <s_epik_cmdline>  (209) 
J2VwaWtfcHl0aG9uJywgJy1waHQnLCAnMi4wJywgJy1waCcsICc3LjAnLCAnLXRuJywgJzgnLCAnLW1hJywgJzIwMCcsICctaW1hZScsICc8aW5maWxlLm1hZT4nLCAnLW9tYWUnLCAnPG91dGZpbGUubWFlPic=

>  <r_lp_tautomer_probability>  (209) 
1

>  <r_epik_Ionization_Penalty>  (209) 
2.20676e-10

>  <r_epik_Ionization_Penalty_Charging>  (209) 
0

>  <r_epik_Ionization_Penalty_Neutral>  (209) 
2.20676e-10

>  <r_epik_State_Penalty>  (209) 
-0

>  <r_epik_Charging_Adjusted_Penalty>  (209) 
0

>  <i_epik_Tot_Q>  (209) 
0

>  <i_epik_Tot_abs_Q>  (209) 
0

>  <s_lp_Force_Field>  (209) 
OPLS3e

>  <r_lp_Energy>  (209) 
12.6859

>  <b_lp_Chiralities_Consistent>  (209) 
1

>  <s_lp_Variant>  (209) 
72:0-1

>  <s_i_glide_gridfile>  (209) 
pfpi4k_grid

>  <i_i_glide_lignum>  (209) 
16

>  <i_i_glide_rotatable_bonds>  (209) 
0

>  <r_i_docking_score>  (209) 
-3.88992

>  <r_i_glide_ligand_efficiency>  (209) 
-0.432213

>  <r_i_glide_ligand_efficiency_sa>  (209) 
-0.899039

>  <r_i_glide_ligand_efficiency_ln>  (209) 
-1.21665

>  <r_i_glide_gscore>  (209) 
-3.88992

>  <r_i_glide_lipo>  (209) 
-0.0450131

>  <r_i_glide_hbond>  (209) 
0

>  <r_i_glide_metal>  (209) 
-0

>  <r_i_glide_rewards>  (209) 
-2.25

>  <r_i_glide_evdw>  (209) 
-13.9551

>  <r_i_glide_ecoul>  (209) 
-3.89857

>  <r_i_glide_erotb>  (209) 
0

>  <r_i_glide_esite>  (209) 
-0.312361

>  <r_i_glide_emodel>  (209) 
-23.7121

>  <r_i_glide_energy>  (209) 
-17.8537

>  <r_i_glide_einternal>  (209) 
0

>  <r_i_glide_intrahb_reward>  (209) 
-0

>  <i_i_glide_confnum>  (209) 
2

>  <i_i_glide_posenum>  (209) 
12

>  <r_i_glide_eff_state_penalty>  (209) 
0

>  <ligand_id>  (209) 
72

>  <original_smiles>  (209) 
c1cnn2nnnc2c1

>  <smiles>  (209) 
[H]c1nn2nnnc2c([H])c1[H]

$$$$
72:0:2
     RDKit          3D

 12 13  0  0  1  0  0  0  0  0999 V2000
    3.0119   -2.0389   -3.5814 C   0  0  0  0  0  0  0  0  0  0  0  0
    3.9163   -1.0808   -3.0776 C   0  0  0  0  0  0  0  0  0  0  0  0
    4.3891   -1.0651   -1.8119 N   0  0  0  0  0  0  0  0  0  0  0  0
    3.9085   -2.0419   -1.0385 N   0  0  0  0  0  0  0  0  0  0  0  0
    4.2553   -2.2050    0.2633 N   0  0  0  0  0  0  0  0  0  0  0  0
    3.5977   -3.2492    0.6678 N   0  0  0  0  0  0  0  0  0  0  0  0
    2.8097   -3.8120   -0.3211 N   0  0  0  0  0  0  0  0  0  0  0  0
    3.0066   -3.0535   -1.3939 C   0  0  0  0  0  0  0  0  0  0  0  0
    2.5286   -3.0552   -2.7290 C   0  0  0  0  0  0  0  0  0  0  0  0
    2.6788   -1.9926   -4.6067 H   0  0  0  0  0  0  0  0  0  0  0  0
    4.2755   -0.2916   -3.7186 H   0  0  0  0  0  0  0  0  0  0  0  0
    1.8368   -3.8170   -3.0609 H   0  0  0  0  0  0  0  0  0  0  0  0
  1  9  2  0
  1  2  1  0
  1 10  1  0
  2  3  2  0
  2 11  1  0
  3  4  1  0
  4  8  1  0
  4  5  1  0
  5  6  2  0
  6  7  1  0
  7  8  2  0
  8  9  1  0
  9 12  1  0
M  END
>  <i_m_ct_stereo_status>  (210) 
1

>  <s_m_source_file>  (210) 
/var/tmp/pbs.5076255.sched01/tmpbnv9a_8s/88lo2bg1ru.sdf

>  <i_m_source_file_index>  (210) 
16

>  <i_lp_mmshare_version>  (210) 
48012

>  <i_f3d_flags>  (210) 
0

>  <s_epik_input>  (210) 
bjFbY0hdW2NIXVtjSF1jKG4xMilubm4y

>  <s_epik_cmdline>  (210) 
J2VwaWtfcHl0aG9uJywgJy1waHQnLCAnMi4wJywgJy1waCcsICc3LjAnLCAnLXRuJywgJzgnLCAnLW1hJywgJzIwMCcsICctaW1hZScsICc8aW5maWxlLm1hZT4nLCAnLW9tYWUnLCAnPG91dGZpbGUubWFlPic=

>  <r_lp_tautomer_probability>  (210) 
1

>  <r_epik_Ionization_Penalty>  (210) 
2.20676e-10

>  <r_epik_Ionization_Penalty_Charging>  (210) 
0

>  <r_epik_Ionization_Penalty_Neutral>  (210) 
2.20676e-10

>  <r_epik_State_Penalty>  (210) 
-0

>  <r_epik_Charging_Adjusted_Penalty>  (210) 
0

>  <i_epik_Tot_Q>  (210) 
0

>  <i_epik_Tot_abs_Q>  (210) 
0

>  <s_lp_Force_Field>  (210) 
OPLS3e

>  <r_lp_Energy>  (210) 
12.6859

>  <b_lp_Chiralities_Consistent>  (210) 
1

>  <s_lp_Variant>  (210) 
72:0-1

>  <s_i_glide_gridfile>  (210) 
pfpi4k_grid

>  <i_i_glide_lignum>  (210) 
16

>  <i_i_glide_rotatable_bonds>  (210) 
0

>  <r_i_docking_score>  (210) 
-3.64748

>  <r_i_glide_ligand_efficiency>  (210) 
-0.405276

>  <r_i_glide_ligand_efficiency_sa>  (210) 
-0.843008

>  <r_i_glide_ligand_efficiency_ln>  (210) 
-1.14083

>  <r_i_glide_gscore>  (210) 
-3.64748

>  <r_i_glide_lipo>  (210) 
-0.352266

>  <r_i_glide_hbond>  (210) 
0

>  <r_i_glide_metal>  (210) 
-0

>  <r_i_glide_rewards>  (210) 
-2.25846

>  <r_i_glide_evdw>  (210) 
-15.8788

>  <r_i_glide_ecoul>  (210) 
-1.04316

>  <r_i_glide_erotb>  (210) 
0

>  <r_i_glide_esite>  (210) 
-0.0863415

>  <r_i_glide_emodel>  (210) 
-22.4148

>  <r_i_glide_energy>  (210) 
-16.922

>  <r_i_glide_einternal>  (210) 
0

>  <r_i_glide_intrahb_reward>  (210) 
-0

>  <i_i_glide_confnum>  (210) 
1

>  <i_i_glide_posenum>  (210) 
14

>  <r_i_glide_eff_state_penalty>  (210) 
0

>  <ligand_id>  (210) 
72

>  <original_smiles>  (210) 
c1cnn2nnnc2c1

>  <smiles>  (210) 
[H]c1nn2nnnc2c([H])c1[H]

$$$$
74:0:0
     RDKit          3D

 85 92  0  0  1  0  0  0  0  0999 V2000
    3.4186   -0.2692    1.5341 C   0  0  0  0  0  0  0  0  0  0  0  0
    3.5577   -1.7749    1.6239 C   0  0  0  0  0  0  0  0  0  0  0  0
    2.7195   -2.5909    2.2761 C   0  0  0  0  0  0  0  0  0  0  0  0
    1.6938   -2.5401    3.1294 C   0  0  0  0  0  0  0  0  0  0  0  0
    0.9107   -1.6957    3.8035 C   0  0  0  0  0  0  0  0  0  0  0  0
    0.1440   -2.3224    4.9762 C   0  0  2  0  0  0  0  0  0  0  0  0
   -0.2835   -1.3936    6.1500 C   0  0  2  0  0  0  0  0  0  0  0  0
   -0.5178    0.0979    5.8583 C   0  0  0  0  0  0  0  0  0  0  0  0
   -1.2260    0.4424    4.7596 C   0  0  0  0  0  0  0  0  0  0  0  0
   -1.5254    1.8214    4.4841 C   0  0  0  0  0  0  0  0  0  0  0  0
   -1.7537    2.3265    3.2696 C   0  0  0  0  0  0  0  0  0  0  0  0
   -1.7820    3.8331    3.2605 C   0  0  0  0  0  0  0  0  0  0  0  0
   -1.1620    4.0716    4.6302 C   0  0  0  0  0  0  0  0  0  0  0  0
   -0.5652    5.1050    4.9151 O   0  0  0  0  0  0  0  0  0  0  0  0
   -1.4606    2.8747    5.5621 C   0  0  1  0  0  0  0  0  0  0  0  0
   -2.8527    3.0449    6.1926 C   0  0  0  0  0  0  0  0  0  0  0  0
   -0.4326    2.4535    6.6364 C   0  0  0  0  0  0  0  0  0  0  0  0
    0.0499    3.5293    7.5563 C   0  0  0  0  0  0  0  0  0  0  0  0
   -0.4574    4.6476    7.6684 O   0  0  0  0  0  0  0  0  0  0  0  0
   -0.0303    1.1465    6.7797 C   0  0  0  0  0  0  0  0  0  0  0  0
    0.8225    0.7053    7.8872 C   0  0  0  0  0  0  0  0  0  0  0  0
    1.1274   -0.5762    8.1383 C   0  0  0  0  0  0  0  0  0  0  0  0
    0.6264   -1.7607    7.3447 C   0  0  2  0  0  0  0  0  0  0  0  0
    1.7198   -2.7339    6.8319 C   0  0  0  0  0  0  0  0  0  0  0  0
    2.9642   -1.9469    6.3358 C   0  0  0  0  0  0  0  0  0  0  0  0
    2.2037   -3.7017    7.9349 C   0  0  0  0  0  0  0  0  0  0  0  0
    1.0010   -3.4665    5.6560 C   0  0  1  0  0  0  0  0  0  0  0  0
    0.0919   -4.6404    6.0884 C   0  0  0  0  0  0  0  0  0  0  0  0
    2.0050   -4.1023    4.8336 O   0  0  0  0  0  0  0  0  0  0  0  0
    1.7324   -4.0005    3.4509 C   0  0  2  0  0  0  0  0  0  0  0  0
    2.8912   -4.0899    2.4149 C   0  0  1  0  0  0  0  0  0  0  0  0
    2.5455   -4.8797    1.1476 C   0  0  0  0  0  0  0  0  0  0  0  0
    2.6875   -6.3654    1.4271 C   0  0  0  0  0  0  0  0  0  0  0  0
    1.7258   -7.1174    1.2847 O   0  0  0  0  0  0  0  0  0  0  0  0
    4.0822   -6.8315    1.8891 C   0  0  0  0  0  0  0  0  0  0  0  0
    4.0076   -8.2742    2.4438 C   0  0  0  0  0  0  0  0  0  0  0  0
    4.9955   -6.8167    0.6446 C   0  0  0  0  0  0  0  0  0  0  0  0
    4.5821   -5.8762    3.0274 C   0  0  1  0  0  0  0  0  0  0  0  0
    5.9342   -6.1126    3.3812 O   0  0  0  0  0  0  0  0  0  0  0  0
    4.3393   -4.3549    2.8271 C   0  0  1  0  0  0  0  0  0  0  0  0
    5.3668   -3.6180    1.9041 C   0  0  0  0  0  0  0  0  0  0  0  0
    4.8572   -2.3825    1.0868 C   0  0  1  0  0  0  0  0  0  0  0  0
    4.7294   -2.7179   -0.2776 O   0  0  0  0  0  0  0  0  0  0  0  0
    3.3866    0.0355    0.4906 H   0  0  0  0  0  0  0  0  0  0  0  0
    4.2747    0.2202    1.9942 H   0  0  0  0  0  0  0  0  0  0  0  0
    2.5145    0.0885    2.0235 H   0  0  0  0  0  0  0  0  0  0  0  0
    0.9357   -0.6301    3.6470 H   0  0  0  0  0  0  0  0  0  0  0  0
   -0.7524   -2.7451    4.5229 H   0  0  0  0  0  0  0  0  0  0  0  0
   -1.2719   -1.7457    6.4440 H   0  0  0  0  0  0  0  0  0  0  0  0
   -1.6058   -0.3077    4.0776 H   0  0  0  0  0  0  0  0  0  0  0  0
   -1.8103    1.7626    2.3489 H   0  0  0  0  0  0  0  0  0  0  0  0
   -1.1664    4.2791    2.4816 H   0  0  0  0  0  0  0  0  0  0  0  0
   -2.8047    4.2058    3.1943 H   0  0  0  0  0  0  0  0  0  0  0  0
   -2.8769    3.8790    6.8918 H   0  0  0  0  0  0  0  0  0  0  0  0
   -3.1540    2.1464    6.7299 H   0  0  0  0  0  0  0  0  0  0  0  0
   -3.6092    3.2426    5.4336 H   0  0  0  0  0  0  0  0  0  0  0  0
    0.9002    3.2894    8.1853 H   0  0  0  0  0  0  0  0  0  0  0  0
    1.2547    1.3989    8.5852 H   0  0  0  0  0  0  0  0  0  0  0  0
    1.7549   -0.8099    8.9849 H   0  0  0  0  0  0  0  0  0  0  0  0
    0.0146   -2.3188    8.0536 H   0  0  0  0  0  0  0  0  0  0  0  0
    3.6805   -2.6010    5.8397 H   0  0  0  0  0  0  0  0  0  0  0  0
    3.4992   -1.4797    7.1641 H   0  0  0  0  0  0  0  0  0  0  0  0
    2.7060   -1.1506    5.6401 H   0  0  0  0  0  0  0  0  0  0  0  0
    2.8820   -4.4499    7.5229 H   0  0  0  0  0  0  0  0  0  0  0  0
    1.3833   -4.2315    8.4198 H   0  0  0  0  0  0  0  0  0  0  0  0
    2.7443   -3.1695    8.7190 H   0  0  0  0  0  0  0  0  0  0  0  0
   -0.6521   -4.3490    6.8275 H   0  0  0  0  0  0  0  0  0  0  0  0
    0.6780   -5.4588    6.5065 H   0  0  0  0  0  0  0  0  0  0  0  0
   -0.4400   -5.0588    5.2338 H   0  0  0  0  0  0  0  0  0  0  0  0
    0.8612   -4.5922    3.1639 H   0  0  0  0  0  0  0  0  0  0  0  0
    1.5163   -4.7103    0.8496 H   0  0  0  0  0  0  0  0  0  0  0  0
    3.1569   -4.6142    0.2887 H   0  0  0  0  0  0  0  0  0  0  0  0
    4.9872   -8.6226    2.7739 H   0  0  0  0  0  0  0  0  0  0  0  0
    3.6392   -8.9826    1.7006 H   0  0  0  0  0  0  0  0  0  0  0  0
    3.3384   -8.3307    3.3033 H   0  0  0  0  0  0  0  0  0  0  0  0
    6.0344   -7.0306    0.8966 H   0  0  0  0  0  0  0  0  0  0  0  0
    4.9724   -5.8648    0.1171 H   0  0  0  0  0  0  0  0  0  0  0  0
    4.6680   -7.5684   -0.0768 H   0  0  0  0  0  0  0  0  0  0  0  0
    4.0070   -6.1363    3.9170 H   0  0  0  0  0  0  0  0  0  0  0  0
    6.4727   -5.9553    2.6210 H   0  0  0  0  0  0  0  0  0  0  0  0
    4.4748   -3.9074    3.8141 H   0  0  0  0  0  0  0  0  0  0  0  0
    6.1335   -3.2383    2.5720 H   0  0  0  0  0  0  0  0  0  0  0  0
    5.9223   -4.2989    1.2642 H   0  0  0  0  0  0  0  0  0  0  0  0
    5.6294   -1.6153    1.1294 H   0  0  0  0  0  0  0  0  0  0  0  0
    3.9185   -3.1925   -0.3792 H   0  0  0  0  0  0  0  0  0  0  0  0
  1  2  1  0
  1 44  1  0
  1 45  1  0
  1 46  1  0
  2 42  1  0
  2  3  2  0
  3 31  1  0
  3  4  1  0
  4 30  1  0
  4  5  2  0
  5  6  1  0
  5 47  1  0
  6 27  1  0
  6  7  1  0
  6 48  1  6
  7 23  1  0
  7  8  1  0
  7 49  1  1
  8 20  1  0
  8  9  2  0
  9 10  1  0
  9 50  1  0
 10 15  1  0
 10 11  2  0
 11 12  1  0
 11 51  1  0
 12 13  1  0
 12 52  1  0
 12 53  1  0
 13 14  2  0
 13 15  1  0
 15 16  1  1
 15 17  1  0
 16 54  1  0
 16 55  1  0
 16 56  1  0
 17 18  1  0
 17 20  2  0
 18 19  2  0
 18 57  1  0
 20 21  1  0
 21 22  2  0
 21 58  1  0
 22 23  1  0
 22 59  1  0
 23 24  1  0
 23 60  1  1
 24 25  1  0
 24 26  1  0
 24 27  1  0
 25 61  1  0
 25 62  1  0
 25 63  1  0
 26 64  1  0
 26 65  1  0
 26 66  1  0
 27 28  1  1
 27 29  1  0
 28 67  1  0
 28 68  1  0
 28 69  1  0
 29 30  1  0
 30 31  1  0
 30 70  1  6
 31 40  1  0
 31 32  1  6
 32 33  1  0
 32 71  1  0
 32 72  1  0
 33 34  2  0
 33 35  1  0
 35 36  1  0
 35 37  1  0
 35 38  1  0
 36 73  1  0
 36 74  1  0
 36 75  1  0
 37 76  1  0
 37 77  1  0
 37 78  1  0
 38 39  1  0
 38 40  1  0
 38 79  1  1
 39 80  1  0
 40 41  1  0
 40 81  1  1
 41 42  1  0
 41 82  1  0
 41 83  1  0
 42 43  1  0
 42 84  1  6
 43 85  1  0
M  END
>  <i_m_ct_stereo_status>  (211) 
1

>  <s_m_source_file>  (211) 
/var/tmp/pbs.5076255.sched01/tmpbnv9a_8s/88lo2bg1ru.sdf

>  <i_m_source_file_index>  (211) 
18

>  <i_lp_mmshare_version>  (211) 
48012

>  <i_f3d_flags>  (211) 
0

>  <s_epik_input>  (211) 
W0NIMl0xQyg9TylDKFtDSDNdKShbQ0gzXSlbQ0BASF0oW09IXSlbQ0BIXTJbQ0gyXVtDQEBIXShbT0hdKUMoW0NIM10pPUMoW0NAQF0xMjMpQz00W0NAQEhdM09bQ0BdNShbQ0gzXSlbQ0BIXShbQ0hdNClbQ0BASF02Qz03QyhbQ0hdPVtDSF1bQ0BASF02QzUoW0NIM10pW0NIM10pPUMoW0NIXT1PKVtDQF04KFtDSDNdKUMoW0NIXTcpPVtDSF1bQ0gyXUM4PU8=

>  <s_epik_cmdline>  (211) 
J2VwaWtfcHl0aG9uJywgJy1waHQnLCAnMi4wJywgJy1waCcsICc3LjAnLCAnLXRuJywgJzgnLCAnLW1hJywgJzIwMCcsICctaW1hZScsICc8aW5maWxlLm1hZT4nLCAnLW9tYWUnLCAnPG91dGZpbGUubWFlPic=

>  <r_lp_tautomer_probability>  (211) 
1

>  <r_epik_Ionization_Penalty>  (211) 
2.26155e-07

>  <r_epik_Ionization_Penalty_Charging>  (211) 
0

>  <r_epik_Ionization_Penalty_Neutral>  (211) 
2.26155e-07

>  <r_epik_State_Penalty>  (211) 
-0

>  <r_epik_Charging_Adjusted_Penalty>  (211) 
0

>  <i_epik_Tot_Q>  (211) 
0

>  <i_epik_Tot_abs_Q>  (211) 
0

>  <s_lp_Force_Field>  (211) 
OPLS3e

>  <r_lp_Energy>  (211) 
82.8394

>  <b_lp_Chiralities_Consistent>  (211) 
1

>  <s_lp_Variant>  (211) 
74:0-1

>  <s_i_glide_gridfile>  (211) 
pfpi4k_grid

>  <i_i_glide_lignum>  (211) 
18

>  <i_i_glide_rotatable_bonds>  (211) 
3

>  <r_i_docking_score>  (211) 
-2.53404

>  <r_i_glide_ligand_efficiency>  (211) 
-0.0589312

>  <r_i_glide_ligand_efficiency_sa>  (211) 
-0.206459

>  <r_i_glide_ligand_efficiency_ln>  (211) 
-0.532227

>  <r_i_glide_gscore>  (211) 
-2.53404

>  <r_i_glide_lipo>  (211) 
-0.377565

>  <r_i_glide_hbond>  (211) 
0

>  <r_i_glide_metal>  (211) 
-0

>  <r_i_glide_rewards>  (211) 
0

>  <r_i_glide_evdw>  (211) 
-36.0581

>  <r_i_glide_ecoul>  (211) 
-2.00642

>  <r_i_glide_erotb>  (211) 
0

>  <r_i_glide_esite>  (211) 
-0.0526087

>  <r_i_glide_emodel>  (211) 
-44.2142

>  <r_i_glide_energy>  (211) 
-38.0645

>  <r_i_glide_einternal>  (211) 
0.271328

>  <r_i_glide_intrahb_reward>  (211) 
-0

>  <i_i_glide_confnum>  (211) 
2

>  <i_i_glide_posenum>  (211) 
13

>  <r_i_glide_eff_state_penalty>  (211) 
0

>  <ligand_id>  (211) 
74

>  <original_smiles>  (211) 
CC1=C2C3=CC4C5C6=CC7=CCC(=O)C7(C)C(C=O)=C6C=CC5C(C)(C)C4(C)OC3C23CC(=O)C(C)(C)C(O)C3CC1O

>  <smiles>  (211) 
[H]OC1([H])C(C([H])([H])[H])=C2C3=C([H])C4([H])C5([H])C6=C([H])C7=C([H])C([H])([H])C(=O)C7(C([H])([H])[H])C(C([H])=O)=C6C([H])=C([H])C5([H])C(C([H])([H])[H])(C([H])([H])[H])C4(C([H])([H])[H])OC3([H])C23C([H])([H])C(=O)C(C([H])([H])[H])(C([H])([H])[H])C([H])(O[H])C3([H])C1([H])[H]

$$$$
74:0:1
     RDKit          3D

 85 92  0  0  1  0  0  0  0  0999 V2000
    3.4195   -0.2765    1.5325 C   0  0  0  0  0  0  0  0  0  0  0  0
    3.5588   -1.7825    1.6216 C   0  0  0  0  0  0  0  0  0  0  0  0
    2.7213   -2.5970    2.2747 C   0  0  0  0  0  0  0  0  0  0  0  0
    1.6941   -2.5455    3.1283 C   0  0  0  0  0  0  0  0  0  0  0  0
    0.9107   -1.7022    3.8032 C   0  0  0  0  0  0  0  0  0  0  0  0
    0.1436   -2.3279    4.9755 C   0  0  2  0  0  0  0  0  0  0  0  0
   -0.2838   -1.3991    6.1492 C   0  0  2  0  0  0  0  0  0  0  0  0
   -0.5182    0.0923    5.8575 C   0  0  0  0  0  0  0  0  0  0  0  0
   -1.2259    0.4372    4.7591 C   0  0  0  0  0  0  0  0  0  0  0  0
   -1.5249    1.8155    4.4822 C   0  0  0  0  0  0  0  0  0  0  0  0
   -1.7536    2.3213    3.2675 C   0  0  0  0  0  0  0  0  0  0  0  0
   -1.7825    3.8273    3.2599 C   0  0  0  0  0  0  0  0  0  0  0  0
   -1.1626    4.0677    4.6292 C   0  0  0  0  0  0  0  0  0  0  0  0
   -0.5677    5.1007    4.9148 O   0  0  0  0  0  0  0  0  0  0  0  0
   -1.4607    2.8693    5.5599 C   0  0  1  0  0  0  0  0  0  0  0  0
   -2.8530    3.0401    6.1906 C   0  0  0  0  0  0  0  0  0  0  0  0
   -0.4328    2.4487    6.6348 C   0  0  0  0  0  0  0  0  0  0  0  0
    0.0504    3.5234    7.5550 C   0  0  0  0  0  0  0  0  0  0  0  0
   -0.4581    4.6419    7.6679 O   0  0  0  0  0  0  0  0  0  0  0  0
   -0.0303    1.1416    6.7794 C   0  0  0  0  0  0  0  0  0  0  0  0
    0.8222    0.7002    7.8862 C   0  0  0  0  0  0  0  0  0  0  0  0
    1.1274   -0.5811    8.1378 C   0  0  0  0  0  0  0  0  0  0  0  0
    0.6269   -1.7661    7.3446 C   0  0  2  0  0  0  0  0  0  0  0  0
    1.7202   -2.7393    6.8308 C   0  0  0  0  0  0  0  0  0  0  0  0
    2.9646   -1.9518    6.3347 C   0  0  0  0  0  0  0  0  0  0  0  0
    2.2042   -3.7069    7.9347 C   0  0  0  0  0  0  0  0  0  0  0  0
    1.0012   -3.4716    5.6557 C   0  0  1  0  0  0  0  0  0  0  0  0
    0.0923   -4.6461    6.0875 C   0  0  0  0  0  0  0  0  0  0  0  0
    2.0052   -4.1085    4.8333 O   0  0  0  0  0  0  0  0  0  0  0  0
    1.7335   -4.0066    3.4494 C   0  0  2  0  0  0  0  0  0  0  0  0
    2.8913   -4.0959    2.4146 C   0  0  1  0  0  0  0  0  0  0  0  0
    2.5446   -4.8864    1.1476 C   0  0  0  0  0  0  0  0  0  0  0  0
    2.6869   -6.3726    1.4272 C   0  0  0  0  0  0  0  0  0  0  0  0
    1.7258   -7.1246    1.2879 O   0  0  0  0  0  0  0  0  0  0  0  0
    4.0814   -6.8382    1.8900 C   0  0  0  0  0  0  0  0  0  0  0  0
    4.0077   -8.2819    2.4447 C   0  0  0  0  0  0  0  0  0  0  0  0
    4.9952   -6.8223    0.6454 C   0  0  0  0  0  0  0  0  0  0  0  0
    4.5772   -5.8821    3.0282 C   0  0  1  0  0  0  0  0  0  0  0  0
    5.9328   -6.1182    3.3631 O   0  0  0  0  0  0  0  0  0  0  0  0
    4.3392   -4.3624    2.8273 C   0  0  1  0  0  0  0  0  0  0  0  0
    5.3696   -3.6243    1.9068 C   0  0  0  0  0  0  0  0  0  0  0  0
    4.8590   -2.3911    1.0857 C   0  0  1  0  0  0  0  0  0  0  0  0
    4.7348   -2.7246   -0.2787 O   0  0  0  0  0  0  0  0  0  0  0  0
    3.3867    0.0304    0.4896 H   0  0  0  0  0  0  0  0  0  0  0  0
    4.2753    0.2143    1.9936 H   0  0  0  0  0  0  0  0  0  0  0  0
    2.5158    0.0821    2.0229 H   0  0  0  0  0  0  0  0  0  0  0  0
    0.9358   -0.6360    3.6461 H   0  0  0  0  0  0  0  0  0  0  0  0
   -0.7527   -2.7507    4.5228 H   0  0  0  0  0  0  0  0  0  0  0  0
   -1.2721   -1.7511    6.4443 H   0  0  0  0  0  0  0  0  0  0  0  0
   -1.6051   -0.3138    4.0774 H   0  0  0  0  0  0  0  0  0  0  0  0
   -1.8104    1.7574    2.3469 H   0  0  0  0  0  0  0  0  0  0  0  0
   -1.1675    4.2741    2.4799 H   0  0  0  0  0  0  0  0  0  0  0  0
   -2.8055    4.2005    3.1932 H   0  0  0  0  0  0  0  0  0  0  0  0
   -2.8774    3.8739    6.8901 H   0  0  0  0  0  0  0  0  0  0  0  0
   -3.1541    2.1426    6.7287 H   0  0  0  0  0  0  0  0  0  0  0  0
   -3.6098    3.2370    5.4321 H   0  0  0  0  0  0  0  0  0  0  0  0
    0.9014    3.2844    8.1827 H   0  0  0  0  0  0  0  0  0  0  0  0
    1.2544    1.3944    8.5843 H   0  0  0  0  0  0  0  0  0  0  0  0
    1.7551   -0.8139    8.9847 H   0  0  0  0  0  0  0  0  0  0  0  0
    0.0149   -2.3241    8.0530 H   0  0  0  0  0  0  0  0  0  0  0  0
    3.6812   -2.6059    5.8386 H   0  0  0  0  0  0  0  0  0  0  0  0
    3.4997   -1.4846    7.1630 H   0  0  0  0  0  0  0  0  0  0  0  0
    2.7065   -1.1559    5.6392 H   0  0  0  0  0  0  0  0  0  0  0  0
    2.8826   -4.4550    7.5224 H   0  0  0  0  0  0  0  0  0  0  0  0
    1.3838   -4.2365    8.4192 H   0  0  0  0  0  0  0  0  0  0  0  0
    2.7447   -3.1745    8.7183 H   0  0  0  0  0  0  0  0  0  0  0  0
   -0.6517   -4.3545    6.8268 H   0  0  0  0  0  0  0  0  0  0  0  0
    0.6784   -5.4645    6.5059 H   0  0  0  0  0  0  0  0  0  0  0  0
   -0.4398   -5.0644    5.2330 H   0  0  0  0  0  0  0  0  0  0  0  0
    0.8614   -4.5981    3.1638 H   0  0  0  0  0  0  0  0  0  0  0  0
    1.5154   -4.7156    0.8495 H   0  0  0  0  0  0  0  0  0  0  0  0
    3.1550   -4.6202    0.2880 H   0  0  0  0  0  0  0  0  0  0  0  0
    4.9863   -8.6356    2.7704 H   0  0  0  0  0  0  0  0  0  0  0  0
    3.6376   -8.9880    1.6999 H   0  0  0  0  0  0  0  0  0  0  0  0
    3.3378   -8.3379    3.3036 H   0  0  0  0  0  0  0  0  0  0  0  0
    6.0349   -7.0303    0.8996 H   0  0  0  0  0  0  0  0  0  0  0  0
    4.9730   -5.8705    0.1186 H   0  0  0  0  0  0  0  0  0  0  0  0
    4.6712   -7.5748   -0.0774 H   0  0  0  0  0  0  0  0  0  0  0  0
    4.0029   -6.1446    3.9204 H   0  0  0  0  0  0  0  0  0  0  0  0
    6.0107   -7.0298    3.6041 H   0  0  0  0  0  0  0  0  0  0  0  0
    4.4755   -3.9143    3.8142 H   0  0  0  0  0  0  0  0  0  0  0  0
    6.1373   -3.2457    2.5742 H   0  0  0  0  0  0  0  0  0  0  0  0
    5.9262   -4.3093    1.2704 H   0  0  0  0  0  0  0  0  0  0  0  0
    5.6277   -1.6213    1.1284 H   0  0  0  0  0  0  0  0  0  0  0  0
    4.0367   -3.3584   -0.3543 H   0  0  0  0  0  0  0  0  0  0  0  0
  1  2  1  0
  1 44  1  0
  1 45  1  0
  1 46  1  0
  2 42  1  0
  2  3  2  0
  3 31  1  0
  3  4  1  0
  4 30  1  0
  4  5  2  0
  5  6  1  0
  5 47  1  0
  6 27  1  0
  6  7  1  0
  6 48  1  6
  7 23  1  0
  7  8  1  0
  7 49  1  1
  8 20  1  0
  8  9  2  0
  9 10  1  0
  9 50  1  0
 10 15  1  0
 10 11  2  0
 11 12  1  0
 11 51  1  0
 12 13  1  0
 12 52  1  0
 12 53  1  0
 13 14  2  0
 13 15  1  0
 15 16  1  1
 15 17  1  0
 16 54  1  0
 16 55  1  0
 16 56  1  0
 17 18  1  0
 17 20  2  0
 18 19  2  0
 18 57  1  0
 20 21  1  0
 21 22  2  0
 21 58  1  0
 22 23  1  0
 22 59  1  0
 23 24  1  0
 23 60  1  1
 24 25  1  0
 24 26  1  0
 24 27  1  0
 25 61  1  0
 25 62  1  0
 25 63  1  0
 26 64  1  0
 26 65  1  0
 26 66  1  0
 27 28  1  1
 27 29  1  0
 28 67  1  0
 28 68  1  0
 28 69  1  0
 29 30  1  0
 30 31  1  0
 30 70  1  6
 31 40  1  0
 31 32  1  6
 32 33  1  0
 32 71  1  0
 32 72  1  0
 33 34  2  0
 33 35  1  0
 35 36  1  0
 35 37  1  0
 35 38  1  0
 36 73  1  0
 36 74  1  0
 36 75  1  0
 37 76  1  0
 37 77  1  0
 37 78  1  0
 38 39  1  0
 38 40  1  0
 38 79  1  1
 39 80  1  0
 40 41  1  0
 40 81  1  1
 41 42  1  0
 41 82  1  0
 41 83  1  0
 42 43  1  0
 42 84  1  6
 43 85  1  0
M  END
>  <i_m_ct_stereo_status>  (212) 
1

>  <s_m_source_file>  (212) 
/var/tmp/pbs.5076255.sched01/tmpbnv9a_8s/88lo2bg1ru.sdf

>  <i_m_source_file_index>  (212) 
18

>  <i_lp_mmshare_version>  (212) 
48012

>  <i_f3d_flags>  (212) 
0

>  <s_epik_input>  (212) 
W0NIMl0xQyg9TylDKFtDSDNdKShbQ0gzXSlbQ0BASF0oW09IXSlbQ0BIXTJbQ0gyXVtDQEBIXShbT0hdKUMoW0NIM10pPUMoW0NAQF0xMjMpQz00W0NAQEhdM09bQ0BdNShbQ0gzXSlbQ0BIXShbQ0hdNClbQ0BASF02Qz03QyhbQ0hdPVtDSF1bQ0BASF02QzUoW0NIM10pW0NIM10pPUMoW0NIXT1PKVtDQF04KFtDSDNdKUMoW0NIXTcpPVtDSF1bQ0gyXUM4PU8=

>  <s_epik_cmdline>  (212) 
J2VwaWtfcHl0aG9uJywgJy1waHQnLCAnMi4wJywgJy1waCcsICc3LjAnLCAnLXRuJywgJzgnLCAnLW1hJywgJzIwMCcsICctaW1hZScsICc8aW5maWxlLm1hZT4nLCAnLW9tYWUnLCAnPG91dGZpbGUubWFlPic=

>  <r_lp_tautomer_probability>  (212) 
1

>  <r_epik_Ionization_Penalty>  (212) 
2.26155e-07

>  <r_epik_Ionization_Penalty_Charging>  (212) 
0

>  <r_epik_Ionization_Penalty_Neutral>  (212) 
2.26155e-07

>  <r_epik_State_Penalty>  (212) 
-0

>  <r_epik_Charging_Adjusted_Penalty>  (212) 
0

>  <i_epik_Tot_Q>  (212) 
0

>  <i_epik_Tot_abs_Q>  (212) 
0

>  <s_lp_Force_Field>  (212) 
OPLS3e

>  <r_lp_Energy>  (212) 
82.8394

>  <b_lp_Chiralities_Consistent>  (212) 
1

>  <s_lp_Variant>  (212) 
74:0-1

>  <s_i_glide_gridfile>  (212) 
pfpi4k_grid

>  <i_i_glide_lignum>  (212) 
18

>  <i_i_glide_rotatable_bonds>  (212) 
3

>  <r_i_docking_score>  (212) 
-2.525

>  <r_i_glide_ligand_efficiency>  (212) 
-0.0587209

>  <r_i_glide_ligand_efficiency_sa>  (212) 
-0.205723

>  <r_i_glide_ligand_efficiency_ln>  (212) 
-0.530329

>  <r_i_glide_gscore>  (212) 
-2.525

>  <r_i_glide_lipo>  (212) 
-0.378102

>  <r_i_glide_hbond>  (212) 
0

>  <r_i_glide_metal>  (212) 
-0

>  <r_i_glide_rewards>  (212) 
0

>  <r_i_glide_evdw>  (212) 
-36.0469

>  <r_i_glide_ecoul>  (212) 
-1.9471

>  <r_i_glide_erotb>  (212) 
0

>  <r_i_glide_esite>  (212) 
-0.0524889

>  <r_i_glide_emodel>  (212) 
-44.1329

>  <r_i_glide_energy>  (212) 
-37.994

>  <r_i_glide_einternal>  (212) 
0.36829

>  <r_i_glide_intrahb_reward>  (212) 
-0

>  <i_i_glide_confnum>  (212) 
2

>  <i_i_glide_posenum>  (212) 
14

>  <r_i_glide_eff_state_penalty>  (212) 
0

>  <ligand_id>  (212) 
74

>  <original_smiles>  (212) 
CC1=C2C3=CC4C5C6=CC7=CCC(=O)C7(C)C(C=O)=C6C=CC5C(C)(C)C4(C)OC3C23CC(=O)C(C)(C)C(O)C3CC1O

>  <smiles>  (212) 
[H]OC1([H])C(C([H])([H])[H])=C2C3=C([H])C4([H])C5([H])C6=C([H])C7=C([H])C([H])([H])C(=O)C7(C([H])([H])[H])C(C([H])=O)=C6C([H])=C([H])C5([H])C(C([H])([H])[H])(C([H])([H])[H])C4(C([H])([H])[H])OC3([H])C23C([H])([H])C(=O)C(C([H])([H])[H])(C([H])([H])[H])C([H])(O[H])C3([H])C1([H])[H]

$$$$
74:0:2
     RDKit          3D

 85 92  0  0  1  0  0  0  0  0999 V2000
    3.4132   -0.3135    1.5310 C   0  0  0  0  0  0  0  0  0  0  0  0
    3.5511   -1.8189    1.6197 C   0  0  0  0  0  0  0  0  0  0  0  0
    2.7121   -2.6332    2.2746 C   0  0  0  0  0  0  0  0  0  0  0  0
    1.6874   -2.5816    3.1284 C   0  0  0  0  0  0  0  0  0  0  0  0
    0.9045   -1.7368    3.8038 C   0  0  0  0  0  0  0  0  0  0  0  0
    0.1383   -2.3624    4.9771 C   0  0  2  0  0  0  0  0  0  0  0  0
   -0.2887   -1.4330    6.1505 C   0  0  2  0  0  0  0  0  0  0  0  0
   -0.5222    0.0588    5.8583 C   0  0  0  0  0  0  0  0  0  0  0  0
   -1.2302    0.4037    4.7600 C   0  0  0  0  0  0  0  0  0  0  0  0
   -1.5283    1.7825    4.4830 C   0  0  0  0  0  0  0  0  0  0  0  0
   -1.7567    2.2878    3.2681 C   0  0  0  0  0  0  0  0  0  0  0  0
   -1.7852    3.7943    3.2590 C   0  0  0  0  0  0  0  0  0  0  0  0
   -1.1654    4.0334    4.6286 C   0  0  0  0  0  0  0  0  0  0  0  0
   -0.5722    5.0684    4.9146 O   0  0  0  0  0  0  0  0  0  0  0  0
   -1.4630    2.8367    5.5604 C   0  0  1  0  0  0  0  0  0  0  0  0
   -2.8547    3.0102    6.1922 C   0  0  0  0  0  0  0  0  0  0  0  0
   -0.4348    2.4150    6.6350 C   0  0  0  0  0  0  0  0  0  0  0  0
    0.0496    3.4900    7.5547 C   0  0  0  0  0  0  0  0  0  0  0  0
   -0.4576    4.6084    7.6678 O   0  0  0  0  0  0  0  0  0  0  0  0
   -0.0334    1.1076    6.7794 C   0  0  0  0  0  0  0  0  0  0  0  0
    0.8196    0.6659    7.8864 C   0  0  0  0  0  0  0  0  0  0  0  0
    1.1237   -0.6158    8.1381 C   0  0  0  0  0  0  0  0  0  0  0  0
    0.6217   -1.8005    7.3448 C   0  0  2  0  0  0  0  0  0  0  0  0
    1.7146   -2.7745    6.8319 C   0  0  0  0  0  0  0  0  0  0  0  0
    2.9593   -1.9883    6.3346 C   0  0  0  0  0  0  0  0  0  0  0  0
    2.1983   -3.7423    7.9348 C   0  0  0  0  0  0  0  0  0  0  0  0
    0.9948   -3.5070    5.6564 C   0  0  1  0  0  0  0  0  0  0  0  0
    0.0849   -4.6804    6.0891 C   0  0  0  0  0  0  0  0  0  0  0  0
    1.9985   -4.1440    4.8336 O   0  0  0  0  0  0  0  0  0  0  0  0
    1.7247   -4.0422    3.4509 C   0  0  2  0  0  0  0  0  0  0  0  0
    2.8823   -4.1322    2.4144 C   0  0  1  0  0  0  0  0  0  0  0  0
    2.5337   -4.9234    1.1483 C   0  0  0  0  0  0  0  0  0  0  0  0
    2.6763   -6.4092    1.4302 C   0  0  0  0  0  0  0  0  0  0  0  0
    1.7166   -7.1615    1.2886 O   0  0  0  0  0  0  0  0  0  0  0  0
    4.0708   -6.8743    1.8912 C   0  0  0  0  0  0  0  0  0  0  0  0
    3.9958   -8.3171    2.4459 C   0  0  0  0  0  0  0  0  0  0  0  0
    4.9830   -6.8602    0.6464 C   0  0  0  0  0  0  0  0  0  0  0  0
    4.5677   -5.9193    3.0286 C   0  0  1  0  0  0  0  0  0  0  0  0
    5.9241   -6.1501    3.3623 O   0  0  0  0  0  0  0  0  0  0  0  0
    4.3288   -4.3973    2.8287 C   0  0  1  0  0  0  0  0  0  0  0  0
    5.3595   -3.6628    1.9056 C   0  0  0  0  0  0  0  0  0  0  0  0
    4.8505   -2.4287    1.0846 C   0  0  1  0  0  0  0  0  0  0  0  0
    4.7258   -2.7646   -0.2799 O   0  0  0  0  0  0  0  0  0  0  0  0
    3.3795   -0.0083    0.4871 H   0  0  0  0  0  0  0  0  0  0  0  0
    4.2689    0.1757    1.9910 H   0  0  0  0  0  0  0  0  0  0  0  0
    2.5108    0.0449    2.0217 H   0  0  0  0  0  0  0  0  0  0  0  0
    0.9300   -0.6713    3.6466 H   0  0  0  0  0  0  0  0  0  0  0  0
   -0.7584   -2.7847    4.5248 H   0  0  0  0  0  0  0  0  0  0  0  0
   -1.2776   -1.7844    6.4443 H   0  0  0  0  0  0  0  0  0  0  0  0
   -1.6103   -0.3471    4.0790 H   0  0  0  0  0  0  0  0  0  0  0  0
   -1.8148    1.7250    2.3472 H   0  0  0  0  0  0  0  0  0  0  0  0
   -1.1711    4.2398    2.4785 H   0  0  0  0  0  0  0  0  0  0  0  0
   -2.8078    4.1677    3.1941 H   0  0  0  0  0  0  0  0  0  0  0  0
   -2.8780    3.8456    6.8901 H   0  0  0  0  0  0  0  0  0  0  0  0
   -3.1560    2.1149    6.7338 H   0  0  0  0  0  0  0  0  0  0  0  0
   -3.6120    3.2060    5.4334 H   0  0  0  0  0  0  0  0  0  0  0  0
    0.9007    3.2499    8.1823 H   0  0  0  0  0  0  0  0  0  0  0  0
    1.2525    1.3597    8.5840 H   0  0  0  0  0  0  0  0  0  0  0  0
    1.7516   -0.8486    8.9846 H   0  0  0  0  0  0  0  0  0  0  0  0
    0.0094   -2.3579    8.0541 H   0  0  0  0  0  0  0  0  0  0  0  0
    3.6750   -2.6425    5.8381 H   0  0  0  0  0  0  0  0  0  0  0  0
    3.4949   -1.5210    7.1624 H   0  0  0  0  0  0  0  0  0  0  0  0
    2.7012   -1.1920    5.6389 H   0  0  0  0  0  0  0  0  0  0  0  0
    2.8757   -4.4913    7.5230 H   0  0  0  0  0  0  0  0  0  0  0  0
    1.3775   -4.2712    8.4202 H   0  0  0  0  0  0  0  0  0  0  0  0
    2.7395   -3.2102    8.7186 H   0  0  0  0  0  0  0  0  0  0  0  0
   -0.6585   -4.3881    6.8285 H   0  0  0  0  0  0  0  0  0  0  0  0
    0.6703   -5.4994    6.5073 H   0  0  0  0  0  0  0  0  0  0  0  0
   -0.4482   -5.0985    5.2349 H   0  0  0  0  0  0  0  0  0  0  0  0
    0.8526   -4.6336    3.1656 H   0  0  0  0  0  0  0  0  0  0  0  0
    1.5034   -4.7537    0.8510 H   0  0  0  0  0  0  0  0  0  0  0  0
    3.1434   -4.6587    0.2879 H   0  0  0  0  0  0  0  0  0  0  0  0
    4.9758   -8.6660    2.7734 H   0  0  0  0  0  0  0  0  0  0  0  0
    3.6273   -9.0243    1.7017 H   0  0  0  0  0  0  0  0  0  0  0  0
    3.3270   -8.3743    3.3050 H   0  0  0  0  0  0  0  0  0  0  0  0
    6.0220   -7.0697    0.9027 H   0  0  0  0  0  0  0  0  0  0  0  0
    4.9622   -5.9091    0.1181 H   0  0  0  0  0  0  0  0  0  0  0  0
    4.6580   -7.6130   -0.0748 H   0  0  0  0  0  0  0  0  0  0  0  0
    3.9937   -6.1818    3.9216 H   0  0  0  0  0  0  0  0  0  0  0  0
    6.1074   -5.6982    4.1724 H   0  0  0  0  0  0  0  0  0  0  0  0
    4.4629   -3.9447    3.8139 H   0  0  0  0  0  0  0  0  0  0  0  0
    6.1291   -3.2834    2.5707 H   0  0  0  0  0  0  0  0  0  0  0  0
    5.9141   -4.3482    1.2684 H   0  0  0  0  0  0  0  0  0  0  0  0
    5.6203   -1.6596    1.1260 H   0  0  0  0  0  0  0  0  0  0  0  0
    4.0285   -3.3976   -0.3550 H   0  0  0  0  0  0  0  0  0  0  0  0
  1  2  1  0
  1 44  1  0
  1 45  1  0
  1 46  1  0
  2 42  1  0
  2  3  2  0
  3 31  1  0
  3  4  1  0
  4 30  1  0
  4  5  2  0
  5  6  1  0
  5 47  1  0
  6 27  1  0
  6  7  1  0
  6 48  1  6
  7 23  1  0
  7  8  1  0
  7 49  1  1
  8 20  1  0
  8  9  2  0
  9 10  1  0
  9 50  1  0
 10 15  1  0
 10 11  2  0
 11 12  1  0
 11 51  1  0
 12 13  1  0
 12 52  1  0
 12 53  1  0
 13 14  2  0
 13 15  1  0
 15 16  1  1
 15 17  1  0
 16 54  1  0
 16 55  1  0
 16 56  1  0
 17 18  1  0
 17 20  2  0
 18 19  2  0
 18 57  1  0
 20 21  1  0
 21 22  2  0
 21 58  1  0
 22 23  1  0
 22 59  1  0
 23 24  1  0
 23 60  1  1
 24 25  1  0
 24 26  1  0
 24 27  1  0
 25 61  1  0
 25 62  1  0
 25 63  1  0
 26 64  1  0
 26 65  1  0
 26 66  1  0
 27 28  1  1
 27 29  1  0
 28 67  1  0
 28 68  1  0
 28 69  1  0
 29 30  1  0
 30 31  1  0
 30 70  1  6
 31 40  1  0
 31 32  1  6
 32 33  1  0
 32 71  1  0
 32 72  1  0
 33 34  2  0
 33 35  1  0
 35 36  1  0
 35 37  1  0
 35 38  1  0
 36 73  1  0
 36 74  1  0
 36 75  1  0
 37 76  1  0
 37 77  1  0
 37 78  1  0
 38 39  1  0
 38 40  1  0
 38 79  1  1
 39 80  1  0
 40 41  1  0
 40 81  1  1
 41 42  1  0
 41 82  1  0
 41 83  1  0
 42 43  1  0
 42 84  1  6
 43 85  1  0
M  END
>  <i_m_ct_stereo_status>  (213) 
1

>  <s_m_source_file>  (213) 
/var/tmp/pbs.5076255.sched01/tmpbnv9a_8s/88lo2bg1ru.sdf

>  <i_m_source_file_index>  (213) 
18

>  <i_lp_mmshare_version>  (213) 
48012

>  <i_f3d_flags>  (213) 
0

>  <s_epik_input>  (213) 
W0NIMl0xQyg9TylDKFtDSDNdKShbQ0gzXSlbQ0BASF0oW09IXSlbQ0BIXTJbQ0gyXVtDQEBIXShbT0hdKUMoW0NIM10pPUMoW0NAQF0xMjMpQz00W0NAQEhdM09bQ0BdNShbQ0gzXSlbQ0BIXShbQ0hdNClbQ0BASF02Qz03QyhbQ0hdPVtDSF1bQ0BASF02QzUoW0NIM10pW0NIM10pPUMoW0NIXT1PKVtDQF04KFtDSDNdKUMoW0NIXTcpPVtDSF1bQ0gyXUM4PU8=

>  <s_epik_cmdline>  (213) 
J2VwaWtfcHl0aG9uJywgJy1waHQnLCAnMi4wJywgJy1waCcsICc3LjAnLCAnLXRuJywgJzgnLCAnLW1hJywgJzIwMCcsICctaW1hZScsICc8aW5maWxlLm1hZT4nLCAnLW9tYWUnLCAnPG91dGZpbGUubWFlPic=

>  <r_lp_tautomer_probability>  (213) 
1

>  <r_epik_Ionization_Penalty>  (213) 
2.26155e-07

>  <r_epik_Ionization_Penalty_Charging>  (213) 
0

>  <r_epik_Ionization_Penalty_Neutral>  (213) 
2.26155e-07

>  <r_epik_State_Penalty>  (213) 
-0

>  <r_epik_Charging_Adjusted_Penalty>  (213) 
0

>  <i_epik_Tot_Q>  (213) 
0

>  <i_epik_Tot_abs_Q>  (213) 
0

>  <s_lp_Force_Field>  (213) 
OPLS3e

>  <r_lp_Energy>  (213) 
82.8394

>  <b_lp_Chiralities_Consistent>  (213) 
1

>  <s_lp_Variant>  (213) 
74:0-1

>  <s_i_glide_gridfile>  (213) 
pfpi4k_grid

>  <i_i_glide_lignum>  (213) 
18

>  <i_i_glide_rotatable_bonds>  (213) 
3

>  <r_i_docking_score>  (213) 
-2.50162

>  <r_i_glide_ligand_efficiency>  (213) 
-0.0581771

>  <r_i_glide_ligand_efficiency_sa>  (213) 
-0.203818

>  <r_i_glide_ligand_efficiency_ln>  (213) 
-0.525417

>  <r_i_glide_gscore>  (213) 
-2.50162

>  <r_i_glide_lipo>  (213) 
-0.384022

>  <r_i_glide_hbond>  (213) 
0

>  <r_i_glide_metal>  (213) 
-0

>  <r_i_glide_rewards>  (213) 
0

>  <r_i_glide_evdw>  (213) 
-36.0612

>  <r_i_glide_ecoul>  (213) 
-1.75397

>  <r_i_glide_erotb>  (213) 
0

>  <r_i_glide_esite>  (213) 
-0.0514358

>  <r_i_glide_emodel>  (213) 
-43.8888

>  <r_i_glide_energy>  (213) 
-37.8152

>  <r_i_glide_einternal>  (213) 
0.376334

>  <r_i_glide_intrahb_reward>  (213) 
-0

>  <i_i_glide_confnum>  (213) 
2

>  <i_i_glide_posenum>  (213) 
25

>  <r_i_glide_eff_state_penalty>  (213) 
0

>  <ligand_id>  (213) 
74

>  <original_smiles>  (213) 
CC1=C2C3=CC4C5C6=CC7=CCC(=O)C7(C)C(C=O)=C6C=CC5C(C)(C)C4(C)OC3C23CC(=O)C(C)(C)C(O)C3CC1O

>  <smiles>  (213) 
[H]OC1([H])C(C([H])([H])[H])=C2C3=C([H])C4([H])C5([H])C6=C([H])C7=C([H])C([H])([H])C(=O)C7(C([H])([H])[H])C(C([H])=O)=C6C([H])=C([H])C5([H])C(C([H])([H])[H])(C([H])([H])[H])C4(C([H])([H])[H])OC3([H])C23C([H])([H])C(=O)C(C([H])([H])[H])(C([H])([H])[H])C([H])(O[H])C3([H])C1([H])[H]

$$$$
75:0:0
     RDKit          3D

 30 32  0  0  1  0  0  0  0  0999 V2000
   -2.5108    5.3715    9.0110 C   0  0  0  0  0  0  0  0  0  0  0  0
   -2.0260    4.0322    9.2932 N   0  0  0  0  0  0  0  0  0  0  0  0
   -1.4431    3.7619   10.4818 N   0  0  0  0  0  0  0  0  0  0  0  0
   -1.1342    2.4730   10.3666 C   0  0  0  0  0  0  0  0  0  0  0  0
   -1.4444    1.8885    9.1704 N   0  0  0  0  0  0  0  0  0  0  0  0
   -1.9992    2.9229    8.5416 C   0  0  0  0  0  0  0  0  0  0  0  0
   -2.6051    2.8834    6.8869 S   0  0  0  0  0  0  0  0  0  0  0  0
   -1.3366    1.9604    6.0754 C   0  0  0  0  0  0  0  0  0  0  0  0
   -0.3272    2.5622    5.4184 C   0  0  0  0  0  0  0  0  0  0  0  0
    0.7944    1.7668    4.7794 C   0  0  2  0  0  0  0  0  0  0  0  0
    1.4054    2.4400    3.5351 C   0  0  0  0  0  0  0  0  0  0  0  0
    0.6209    2.1453    2.3390 N   0  0  0  0  0  0  0  0  0  0  0  0
   -0.1124    1.0246    2.2189 C   0  0  0  0  0  0  0  0  0  0  0  0
   -0.2259    0.1334    3.2246 N   0  0  0  0  0  0  0  0  0  0  0  0
    0.3850    0.2857    4.5560 C   0  0  2  0  0  0  0  0  0  0  0  0
   -0.6449   -0.1864    5.5839 C   0  0  0  0  0  0  0  0  0  0  0  0
   -0.7093   -2.1491    5.8053 Br  0  0  0  0  0  0  0  0  0  0  0  0
   -1.4316    0.5760    6.2312 N   0  0  0  0  0  0  0  0  0  0  0  0
   -3.2489    5.3651    8.2091 H   0  0  0  0  0  0  0  0  0  0  0  0
   -1.6751    6.0061    8.7288 H   0  0  0  0  0  0  0  0  0  0  0  0
   -2.9787    5.7803    9.9012 H   0  0  0  0  0  0  0  0  0  0  0  0
   -0.6264    1.9424   11.1639 H   0  0  0  0  0  0  0  0  0  0  0  0
   -0.2820    3.6349    5.3544 H   0  0  0  0  0  0  0  0  0  0  0  0
    1.5878    1.7651    5.5259 H   0  0  0  0  0  0  0  0  0  0  0  0
    1.4758    3.5169    3.6640 H   0  0  0  0  0  0  0  0  0  0  0  0
    2.4171    2.0761    3.3666 H   0  0  0  0  0  0  0  0  0  0  0  0
    0.5954    2.8541    1.6026 H   0  0  0  0  0  0  0  0  0  0  0  0
   -0.6221    0.8396    1.2792 H   0  0  0  0  0  0  0  0  0  0  0  0
    1.2732   -0.3514    4.6004 H   0  0  0  0  0  0  0  0  0  0  0  0
   -0.7146   -0.7354    3.0572 H   0  0  0  0  0  0  0  0  0  0  0  0
  1  2  1  0
  1 19  1  0
  1 20  1  0
  1 21  1  0
  2  6  1  0
  2  3  1  0
  3  4  2  0
  4  5  1  0
  4 22  1  0
  5  6  2  0
  6  7  1  0
  7  8  1  0
  8 18  1  0
  8  9  2  0
  9 10  1  0
  9 23  1  0
 10 15  1  0
 10 11  1  0
 10 24  1  1
 11 12  1  0
 11 25  1  0
 11 26  1  0
 12 13  1  0
 12 27  1  0
 13 14  2  0
 13 28  1  0
 14 15  1  0
 14 30  1  0
 15 16  1  0
 15 29  1  6
 16 17  1  0
 16 18  2  0
M  CHG  1  14   1
M  END
>  <i_m_ct_stereo_status>  (214) 
1

>  <s_m_source_file>  (214) 
/var/tmp/pbs.5076255.sched01/tmpbnv9a_8s/88lo2bg1ru.sdf

>  <i_m_source_file_index>  (214) 
19

>  <i_lp_mmshare_version>  (214) 
48012

>  <i_f3d_flags>  (214) 
0

>  <s_epik_input>  (214) 
W0NIM11uMW5bY0hdbmMxU0MoPVtDSF0yKU49QyhCcilbQ0BIXShbQ0BIXTIzKU49W0NIXVtOSF1bQ0gyXTM=

>  <s_epik_cmdline>  (214) 
J2VwaWtfcHl0aG9uJywgJy1waHQnLCAnMi4wJywgJy1waCcsICc3LjAnLCAnLXRuJywgJzgnLCAnLW1hJywgJzIwMCcsICctaW1hZScsICc8aW5maWxlLm1hZT4nLCAnLW9tYWUnLCAnPG91dGZpbGUubWFlPic=

>  <r_lp_tautomer_probability>  (214) 
1

>  <r_epik_Ionization_Penalty>  (214) 
0.118412

>  <r_epik_Ionization_Penalty_Charging>  (214) 
0.118412

>  <r_epik_Ionization_Penalty_Neutral>  (214) 
6.44013e-08

>  <r_epik_State_Penalty>  (214) 
0.466856

>  <r_epik_Charging_Adjusted_Penalty>  (214) 
0.585268

>  <i_epik_Tot_Q>  (214) 
1

>  <i_epik_Tot_abs_Q>  (214) 
1

>  <s_epik_Chemistry_Notes>  (214) 
This compound has an imine and may undergo hydrolysis.

>  <s_lp_Force_Field>  (214) 
OPLS3e

>  <r_lp_Energy>  (214) 
26.4399

>  <b_lp_Chiralities_Consistent>  (214) 
1

>  <s_lp_Variant>  (214) 
75:0-1

>  <s_i_glide_gridfile>  (214) 
pfpi4k_grid

>  <i_i_glide_lignum>  (214) 
19

>  <i_i_glide_rotatable_bonds>  (214) 
2

>  <r_i_docking_score>  (214) 
-3.70517

>  <r_i_glide_ligand_efficiency>  (214) 
-0.205843

>  <r_i_glide_ligand_efficiency_sa>  (214) 
-0.53946

>  <r_i_glide_ligand_efficiency_ln>  (214) 
-0.952394

>  <r_i_glide_gscore>  (214) 
-3.70517

>  <r_i_glide_lipo>  (214) 
-0.152553

>  <r_i_glide_hbond>  (214) 
-0.253508

>  <r_i_glide_metal>  (214) 
-0

>  <r_i_glide_rewards>  (214) 
-1.17128

>  <r_i_glide_evdw>  (214) 
-17.6889

>  <r_i_glide_ecoul>  (214) 
-8.58356

>  <r_i_glide_erotb>  (214) 
0.348644

>  <r_i_glide_esite>  (214) 
-0.304492

>  <r_i_glide_emodel>  (214) 
-35.0707

>  <r_i_glide_energy>  (214) 
-26.2724

>  <r_i_glide_einternal>  (214) 
2.32772

>  <r_i_glide_intrahb_reward>  (214) 
-0

>  <i_i_glide_confnum>  (214) 
5

>  <i_i_glide_posenum>  (214) 
22

>  <r_i_glide_eff_state_penalty>  (214) 
0

>  <ligand_id>  (214) 
75

>  <original_smiles>  (214) 
Cn1ncnc1SC1=CC2CNC=NC2C(Br)=N1

>  <smiles>  (214) 
[H]C1=C(Sc2nc([H])nn2C([H])([H])[H])N=C(Br)C2([H])[N+]([H])=C([H])N([H])C([H])([H])C12[H]

$$$$
75:0:1
     RDKit          3D

 30 32  0  0  1  0  0  0  0  0999 V2000
    0.6475   -3.8438    5.1180 C   0  0  0  0  0  0  0  0  0  0  0  0
    0.1412   -4.5768    6.2670 N   0  0  0  0  0  0  0  0  0  0  0  0
   -0.9871   -4.1492    6.8865 N   0  0  0  0  0  0  0  0  0  0  0  0
   -1.1356   -5.0424    7.8638 C   0  0  0  0  0  0  0  0  0  0  0  0
   -0.1829   -6.0181    7.9372 N   0  0  0  0  0  0  0  0  0  0  0  0
    0.5861   -5.6783    6.9058 C   0  0  0  0  0  0  0  0  0  0  0  0
    2.0226   -6.5919    6.4170 S   0  0  0  0  0  0  0  0  0  0  0  0
    1.2955   -7.9795    5.5793 C   0  0  0  0  0  0  0  0  0  0  0  0
    1.6790   -9.2541    5.7818 C   0  0  0  0  0  0  0  0  0  0  0  0
    0.9937  -10.4118    5.0800 C   0  0  2  0  0  0  0  0  0  0  0  0
    1.9023  -11.6226    4.8343 C   0  0  0  0  0  0  0  0  0  0  0  0
    2.6987  -11.4205    3.6207 N   0  0  0  0  0  0  0  0  0  0  0  0
    2.2715  -10.6728    2.5878 C   0  0  0  0  0  0  0  0  0  0  0  0
    1.1158   -9.9809    2.6365 N   0  0  0  0  0  0  0  0  0  0  0  0
    0.2366   -9.9422    3.8153 C   0  0  2  0  0  0  0  0  0  0  0  0
   -0.2721   -8.5127    3.9518 C   0  0  0  0  0  0  0  0  0  0  0  0
   -1.7891   -8.0950    2.7516 Br  0  0  0  0  0  0  0  0  0  0  0  0
    0.2368   -7.6391    4.7271 N   0  0  0  0  0  0  0  0  0  0  0  0
    1.3014   -4.4544    4.4997 H   0  0  0  0  0  0  0  0  0  0  0  0
    1.1962   -2.9638    5.4469 H   0  0  0  0  0  0  0  0  0  0  0  0
   -0.1804   -3.5073    4.4986 H   0  0  0  0  0  0  0  0  0  0  0  0
   -1.9595   -4.9913    8.5559 H   0  0  0  0  0  0  0  0  0  0  0  0
    2.4647   -9.5020    6.4759 H   0  0  0  0  0  0  0  0  0  0  0  0
    0.2406  -10.7559    5.7869 H   0  0  0  0  0  0  0  0  0  0  0  0
    2.5559  -11.8050    5.6867 H   0  0  0  0  0  0  0  0  0  0  0  0
    1.2954  -12.5211    4.7156 H   0  0  0  0  0  0  0  0  0  0  0  0
    3.5465  -11.9613    3.5296 H   0  0  0  0  0  0  0  0  0  0  0  0
    2.8718  -10.6449    1.6795 H   0  0  0  0  0  0  0  0  0  0  0  0
   -0.5955  -10.6197    3.6328 H   0  0  0  0  0  0  0  0  0  0  0  0
    0.7713   -9.5185    1.8051 H   0  0  0  0  0  0  0  0  0  0  0  0
  1  2  1  0
  1 19  1  0
  1 20  1  0
  1 21  1  0
  2  6  1  0
  2  3  1  0
  3  4  2  0
  4  5  1  0
  4 22  1  0
  5  6  2  0
  6  7  1  0
  7  8  1  0
  8 18  1  0
  8  9  2  0
  9 10  1  0
  9 23  1  0
 10 15  1  0
 10 11  1  0
 10 24  1  1
 11 12  1  0
 11 25  1  0
 11 26  1  0
 12 13  1  0
 12 27  1  0
 13 14  2  0
 13 28  1  0
 14 15  1  0
 14 30  1  0
 15 16  1  0
 15 29  1  6
 16 17  1  0
 16 18  2  0
M  CHG  1  14   1
M  END
>  <i_m_ct_stereo_status>  (215) 
1

>  <s_m_source_file>  (215) 
/var/tmp/pbs.5076255.sched01/tmpbnv9a_8s/88lo2bg1ru.sdf

>  <i_m_source_file_index>  (215) 
19

>  <i_lp_mmshare_version>  (215) 
48012

>  <i_f3d_flags>  (215) 
0

>  <s_epik_input>  (215) 
W0NIM11uMW5bY0hdbmMxU0MoPVtDSF0yKU49QyhCcilbQ0BIXShbQ0BIXTIzKU49W0NIXVtOSF1bQ0gyXTM=

>  <s_epik_cmdline>  (215) 
J2VwaWtfcHl0aG9uJywgJy1waHQnLCAnMi4wJywgJy1waCcsICc3LjAnLCAnLXRuJywgJzgnLCAnLW1hJywgJzIwMCcsICctaW1hZScsICc8aW5maWxlLm1hZT4nLCAnLW9tYWUnLCAnPG91dGZpbGUubWFlPic=

>  <r_lp_tautomer_probability>  (215) 
1

>  <r_epik_Ionization_Penalty>  (215) 
0.118412

>  <r_epik_Ionization_Penalty_Charging>  (215) 
0.118412

>  <r_epik_Ionization_Penalty_Neutral>  (215) 
6.44013e-08

>  <r_epik_State_Penalty>  (215) 
0.466856

>  <r_epik_Charging_Adjusted_Penalty>  (215) 
0.585268

>  <i_epik_Tot_Q>  (215) 
1

>  <i_epik_Tot_abs_Q>  (215) 
1

>  <s_epik_Chemistry_Notes>  (215) 
This compound has an imine and may undergo hydrolysis.

>  <s_lp_Force_Field>  (215) 
OPLS3e

>  <r_lp_Energy>  (215) 
26.4399

>  <b_lp_Chiralities_Consistent>  (215) 
1

>  <s_lp_Variant>  (215) 
75:0-1

>  <s_i_glide_gridfile>  (215) 
pfpi4k_grid

>  <i_i_glide_lignum>  (215) 
19

>  <i_i_glide_rotatable_bonds>  (215) 
2

>  <r_i_docking_score>  (215) 
-3.10178

>  <r_i_glide_ligand_efficiency>  (215) 
-0.172321

>  <r_i_glide_ligand_efficiency_sa>  (215) 
-0.451609

>  <r_i_glide_ligand_efficiency_ln>  (215) 
-0.797296

>  <r_i_glide_gscore>  (215) 
-3.10178

>  <r_i_glide_lipo>  (215) 
0

>  <r_i_glide_hbond>  (215) 
0

>  <r_i_glide_metal>  (215) 
-0

>  <r_i_glide_rewards>  (215) 
-1.25173

>  <r_i_glide_evdw>  (215) 
-19.2306

>  <r_i_glide_ecoul>  (215) 
-7.79775

>  <r_i_glide_erotb>  (215) 
0.348644

>  <r_i_glide_esite>  (215) 
-0.0675021

>  <r_i_glide_emodel>  (215) 
-34.4421

>  <r_i_glide_energy>  (215) 
-27.0283

>  <r_i_glide_einternal>  (215) 
1.76596

>  <r_i_glide_intrahb_reward>  (215) 
-0

>  <i_i_glide_confnum>  (215) 
5

>  <i_i_glide_posenum>  (215) 
25

>  <r_i_glide_eff_state_penalty>  (215) 
0

>  <ligand_id>  (215) 
75

>  <original_smiles>  (215) 
Cn1ncnc1SC1=CC2CNC=NC2C(Br)=N1

>  <smiles>  (215) 
[H]C1=C(Sc2nc([H])nn2C([H])([H])[H])N=C(Br)C2([H])[N+]([H])=C([H])N([H])C([H])([H])C12[H]

$$$$
75:0:2
     RDKit          3D

 30 32  0  0  1  0  0  0  0  0999 V2000
    0.4265    0.9904    1.9084 C   0  0  0  0  0  0  0  0  0  0  0  0
    1.6643    0.7943    2.6421 N   0  0  0  0  0  0  0  0  0  0  0  0
    2.3572    1.8662    3.0862 N   0  0  0  0  0  0  0  0  0  0  0  0
    3.4099    1.3031    3.6827 C   0  0  0  0  0  0  0  0  0  0  0  0
    3.4532   -0.0603    3.6516 N   0  0  0  0  0  0  0  0  0  0  0  0
    2.3327   -0.3142    2.9873 C   0  0  0  0  0  0  0  0  0  0  0  0
    1.8147   -1.9310    2.5644 S   0  0  0  0  0  0  0  0  0  0  0  0
    2.9126   -2.3315    1.2348 C   0  0  0  0  0  0  0  0  0  0  0  0
    3.4654   -1.4149    0.4129 C   0  0  0  0  0  0  0  0  0  0  0  0
    4.4036   -1.8145   -0.7075 C   0  0  2  0  0  0  0  0  0  0  0  0
    4.3488   -0.8786   -1.9298 C   0  0  0  0  0  0  0  0  0  0  0  0
    3.2418   -1.2135   -2.8279 N   0  0  0  0  0  0  0  0  0  0  0  0
    2.7573   -2.4585   -2.9084 C   0  0  0  0  0  0  0  0  0  0  0  0
    3.2187   -3.4566   -2.1209 N   0  0  0  0  0  0  0  0  0  0  0  0
    4.2447   -3.3090   -1.0755 C   0  0  2  0  0  0  0  0  0  0  0  0
    3.8007   -4.1480    0.1252 C   0  0  0  0  0  0  0  0  0  0  0  0
    4.2614   -6.0661    0.0012 Br  0  0  0  0  0  0  0  0  0  0  0  0
    3.1753   -3.6950    1.1319 N   0  0  0  0  0  0  0  0  0  0  0  0
   -0.1836    0.0886    1.9085 H   0  0  0  0  0  0  0  0  0  0  0  0
    0.6477    1.2567    0.8806 H   0  0  0  0  0  0  0  0  0  0  0  0
   -0.1434    1.8000    2.3544 H   0  0  0  0  0  0  0  0  0  0  0  0
    4.2025    1.8993    4.1089 H   0  0  0  0  0  0  0  0  0  0  0  0
    3.2464   -0.3660    0.5049 H   0  0  0  0  0  0  0  0  0  0  0  0
    5.4013   -1.6845   -0.2844 H   0  0  0  0  0  0  0  0  0  0  0  0
    4.2281    0.1447   -1.6020 H   0  0  0  0  0  0  0  0  0  0  0  0
    5.2770   -0.9249   -2.4924 H   0  0  0  0  0  0  0  0  0  0  0  0
    2.8308   -0.4657   -3.3764 H   0  0  0  0  0  0  0  0  0  0  0  0
    1.9909   -2.6850   -3.6417 H   0  0  0  0  0  0  0  0  0  0  0  0
    5.1923   -3.6945   -1.4633 H   0  0  0  0  0  0  0  0  0  0  0  0
    2.9260   -4.4085   -2.3069 H   0  0  0  0  0  0  0  0  0  0  0  0
  1  2  1  0
  1 19  1  0
  1 20  1  0
  1 21  1  0
  2  6  1  0
  2  3  1  0
  3  4  2  0
  4  5  1  0
  4 22  1  0
  5  6  2  0
  6  7  1  0
  7  8  1  0
  8 18  1  0
  8  9  2  0
  9 10  1  0
  9 23  1  0
 10 15  1  0
 10 11  1  0
 10 24  1  1
 11 12  1  0
 11 25  1  0
 11 26  1  0
 12 13  1  0
 12 27  1  0
 13 14  2  0
 13 28  1  0
 14 15  1  0
 14 30  1  0
 15 16  1  0
 15 29  1  6
 16 17  1  0
 16 18  2  0
M  CHG  1  14   1
M  END
>  <i_m_ct_stereo_status>  (216) 
1

>  <s_m_source_file>  (216) 
/var/tmp/pbs.5076255.sched01/tmpbnv9a_8s/88lo2bg1ru.sdf

>  <i_m_source_file_index>  (216) 
19

>  <i_lp_mmshare_version>  (216) 
48012

>  <i_f3d_flags>  (216) 
0

>  <s_epik_input>  (216) 
W0NIM11uMW5bY0hdbmMxU0MoPVtDSF0yKU49QyhCcilbQ0BIXShbQ0BIXTIzKU49W0NIXVtOSF1bQ0gyXTM=

>  <s_epik_cmdline>  (216) 
J2VwaWtfcHl0aG9uJywgJy1waHQnLCAnMi4wJywgJy1waCcsICc3LjAnLCAnLXRuJywgJzgnLCAnLW1hJywgJzIwMCcsICctaW1hZScsICc8aW5maWxlLm1hZT4nLCAnLW9tYWUnLCAnPG91dGZpbGUubWFlPic=

>  <r_lp_tautomer_probability>  (216) 
1

>  <r_epik_Ionization_Penalty>  (216) 
0.118412

>  <r_epik_Ionization_Penalty_Charging>  (216) 
0.118412

>  <r_epik_Ionization_Penalty_Neutral>  (216) 
6.44013e-08

>  <r_epik_State_Penalty>  (216) 
0.466856

>  <r_epik_Charging_Adjusted_Penalty>  (216) 
0.585268

>  <i_epik_Tot_Q>  (216) 
1

>  <i_epik_Tot_abs_Q>  (216) 
1

>  <s_epik_Chemistry_Notes>  (216) 
This compound has an imine and may undergo hydrolysis.

>  <s_lp_Force_Field>  (216) 
OPLS3e

>  <r_lp_Energy>  (216) 
26.4399

>  <b_lp_Chiralities_Consistent>  (216) 
1

>  <s_lp_Variant>  (216) 
75:0-1

>  <s_i_glide_gridfile>  (216) 
pfpi4k_grid

>  <i_i_glide_lignum>  (216) 
19

>  <i_i_glide_rotatable_bonds>  (216) 
2

>  <r_i_docking_score>  (216) 
-2.88032

>  <r_i_glide_ligand_efficiency>  (216) 
-0.160018

>  <r_i_glide_ligand_efficiency_sa>  (216) 
-0.419366

>  <r_i_glide_ligand_efficiency_ln>  (216) 
-0.740372

>  <r_i_glide_gscore>  (216) 
-2.88032

>  <r_i_glide_lipo>  (216) 
-0.0169369

>  <r_i_glide_hbond>  (216) 
0

>  <r_i_glide_metal>  (216) 
-0

>  <r_i_glide_rewards>  (216) 
-1.17128

>  <r_i_glide_evdw>  (216) 
-19.3548

>  <r_i_glide_ecoul>  (216) 
-6.54243

>  <r_i_glide_erotb>  (216) 
0.348644

>  <r_i_glide_esite>  (216) 
-0.0916465

>  <r_i_glide_emodel>  (216) 
-33.5809

>  <r_i_glide_energy>  (216) 
-25.8972

>  <r_i_glide_einternal>  (216) 
0.0606455

>  <r_i_glide_intrahb_reward>  (216) 
-0

>  <i_i_glide_confnum>  (216) 
5

>  <i_i_glide_posenum>  (216) 
5

>  <r_i_glide_eff_state_penalty>  (216) 
0

>  <ligand_id>  (216) 
75

>  <original_smiles>  (216) 
Cn1ncnc1SC1=CC2CNC=NC2C(Br)=N1

>  <smiles>  (216) 
[H]C1=C(Sc2nc([H])nn2C([H])([H])[H])N=C(Br)C2([H])[N+]([H])=C([H])N([H])C([H])([H])C12[H]

$$$$
75:1:0
     RDKit          3D

 30 32  0  0  1  0  0  0  0  0999 V2000
    3.8631   -5.2555    3.4271 C   0  0  0  0  0  0  0  0  0  0  0  0
    3.2217   -5.2147    2.1253 N   0  0  0  0  0  0  0  0  0  0  0  0
    3.8823   -4.6908    1.0674 N   0  0  0  0  0  0  0  0  0  0  0  0
    3.0049   -4.8324    0.0826 C   0  0  0  0  0  0  0  0  0  0  0  0
    1.8244   -5.4537    0.4074 N   0  0  0  0  0  0  0  0  0  0  0  0
    2.0210   -5.6460    1.7054 C   0  0  0  0  0  0  0  0  0  0  0  0
    0.8628   -6.4868    2.7481 S   0  0  0  0  0  0  0  0  0  0  0  0
    1.4001   -8.1716    2.6170 C   0  0  0  0  0  0  0  0  0  0  0  0
    0.7237   -9.2203    3.1297 C   0  0  0  0  0  0  0  0  0  0  0  0
    1.2577  -10.6393    2.9993 C   0  0  2  0  0  0  0  0  0  0  0  0
    0.8341  -11.5618    4.1490 C   0  0  0  0  0  0  0  0  0  0  0  0
    1.7537  -11.4310    5.2713 N   0  0  0  0  0  0  0  0  0  0  0  0
    3.0305  -11.0414    5.1430 C   0  0  0  0  0  0  0  0  0  0  0  0
    3.5646  -10.6735    3.9592 N   0  0  0  0  0  0  0  0  0  0  0  0
    2.7949  -10.6708    2.7039 C   0  0  2  0  0  0  0  0  0  0  0  0
    3.2255   -9.4270    1.9299 C   0  0  0  0  0  0  0  0  0  0  0  0
    4.9408   -9.5296    0.9714 Br  0  0  0  0  0  0  0  0  0  0  0  0
    2.5962   -8.3352    1.9208 N   0  0  0  0  0  0  0  0  0  0  0  0
    3.4149   -6.0183    4.0664 H   0  0  0  0  0  0  0  0  0  0  0  0
    3.7615   -4.2820    3.9023 H   0  0  0  0  0  0  0  0  0  0  0  0
    4.9240   -5.4799    3.3169 H   0  0  0  0  0  0  0  0  0  0  0  0
    3.2341   -4.4794   -0.9176 H   0  0  0  0  0  0  0  0  0  0  0  0
   -0.2190   -9.0907    3.6404 H   0  0  0  0  0  0  0  0  0  0  0  0
    0.7368  -11.0204    2.1205 H   0  0  0  0  0  0  0  0  0  0  0  0
   -0.1761  -11.3392    4.4752 H   0  0  0  0  0  0  0  0  0  0  0  0
    0.8290  -12.5986    3.8249 H   0  0  0  0  0  0  0  0  0  0  0  0
    3.6550  -11.0544    6.0274 H   0  0  0  0  0  0  0  0  0  0  0  0
    3.0443  -11.5623    2.1252 H   0  0  0  0  0  0  0  0  0  0  0  0
    4.5464  -10.4334    3.9048 H   0  0  0  0  0  0  0  0  0  0  0  0
    1.4443  -11.7853    6.2038 H   0  0  0  0  0  0  0  0  0  0  0  0
  1  2  1  0
  1 19  1  0
  1 20  1  0
  1 21  1  0
  2  6  1  0
  2  3  1  0
  3  4  2  0
  4  5  1  0
  4 22  1  0
  5  6  2  0
  6  7  1  0
  7  8  1  0
  8 18  1  0
  8  9  2  0
  9 10  1  0
  9 23  1  0
 10 15  1  0
 10 11  1  0
 10 24  1  6
 11 12  1  0
 11 25  1  0
 11 26  1  0
 12 13  2  0
 12 30  1  0
 13 14  1  0
 13 27  1  0
 14 15  1  0
 14 29  1  0
 15 16  1  0
 15 28  1  6
 16 17  1  0
 16 18  2  0
M  CHG  1  12   1
M  END
>  <i_m_ct_stereo_status>  (217) 
1

>  <s_m_source_file>  (217) 
/var/tmp/pbs.5076255.sched01/tmpbnv9a_8s/88lo2bg1ru.sdf

>  <i_m_source_file_index>  (217) 
20

>  <i_lp_mmshare_version>  (217) 
48012

>  <i_f3d_flags>  (217) 
0

>  <s_epik_input>  (217) 
W0NIM11uMW5bY0hdbmMxU0MoPVtDSF0yKU49QyhCcilbQ0BIXShbQ0BIXTIzKU49W0NIXVtOSF1bQ0gyXTM=

>  <s_epik_cmdline>  (217) 
J2VwaWtfcHl0aG9uJywgJy1waHQnLCAnMi4wJywgJy1waCcsICc3LjAnLCAnLXRuJywgJzgnLCAnLW1hJywgJzIwMCcsICctaW1hZScsICc8aW5maWxlLm1hZT4nLCAnLW9tYWUnLCAnPG91dGZpbGUubWFlPic=

>  <r_lp_tautomer_probability>  (217) 
1

>  <r_epik_Ionization_Penalty>  (217) 
0.118412

>  <r_epik_Ionization_Penalty_Charging>  (217) 
0.118412

>  <r_epik_Ionization_Penalty_Neutral>  (217) 
5.71875e-08

>  <r_epik_State_Penalty>  (217) 
0.466856

>  <r_epik_Charging_Adjusted_Penalty>  (217) 
0.585268

>  <i_epik_Tot_Q>  (217) 
1

>  <i_epik_Tot_abs_Q>  (217) 
1

>  <s_epik_Chemistry_Notes>  (217) 
This compound has an imine and may undergo hydrolysis.

>  <s_lp_Force_Field>  (217) 
OPLS3e

>  <r_lp_Energy>  (217) 
26.0814

>  <b_lp_Chiralities_Consistent>  (217) 
1

>  <s_lp_Variant>  (217) 
75:0-2

>  <s_i_glide_gridfile>  (217) 
pfpi4k_grid

>  <i_i_glide_lignum>  (217) 
20

>  <i_i_glide_rotatable_bonds>  (217) 
2

>  <r_i_docking_score>  (217) 
-3.95986

>  <r_i_glide_ligand_efficiency>  (217) 
-0.219992

>  <r_i_glide_ligand_efficiency_sa>  (217) 
-0.576542

>  <r_i_glide_ligand_efficiency_ln>  (217) 
-1.01786

>  <r_i_glide_gscore>  (217) 
-3.95986

>  <r_i_glide_lipo>  (217) 
-0.18464

>  <r_i_glide_hbond>  (217) 
-0.294846

>  <r_i_glide_metal>  (217) 
-0

>  <r_i_glide_rewards>  (217) 
-1.17296

>  <r_i_glide_evdw>  (217) 
-16.2819

>  <r_i_glide_ecoul>  (217) 
-10.3644

>  <r_i_glide_erotb>  (217) 
0.348644

>  <r_i_glide_esite>  (217) 
-0.287304

>  <r_i_glide_emodel>  (217) 
-35.9856

>  <r_i_glide_energy>  (217) 
-26.6463

>  <r_i_glide_einternal>  (217) 
2.27131

>  <r_i_glide_intrahb_reward>  (217) 
-0

>  <i_i_glide_confnum>  (217) 
3

>  <i_i_glide_posenum>  (217) 
22

>  <r_i_glide_eff_state_penalty>  (217) 
0

>  <ligand_id>  (217) 
75

>  <original_smiles>  (217) 
Cn1ncnc1SC1=CC2CNC=NC2C(Br)=N1

>  <smiles>  (217) 
[H]C1=C(Sc2nc([H])nn2C([H])([H])[H])N=C(Br)C2([H])N([H])C([H])=[N+]([H])C([H])([H])C12[H]

$$$$
75:1:1
     RDKit          3D

 30 32  0  0  1  0  0  0  0  0999 V2000
    1.6196    3.4525    8.7215 C   0  0  0  0  0  0  0  0  0  0  0  0
    0.9296    2.1822    8.7647 N   0  0  0  0  0  0  0  0  0  0  0  0
    1.5534    1.0867    9.2595 N   0  0  0  0  0  0  0  0  0  0  0  0
    0.6194    0.1514    9.1465 C   0  0  0  0  0  0  0  0  0  0  0  0
   -0.5510    0.5423    8.5704 N   0  0  0  0  0  0  0  0  0  0  0  0
   -0.2905    1.8210    8.3269 C   0  0  0  0  0  0  0  0  0  0  0  0
   -1.3794    2.8818    7.4401 S   0  0  0  0  0  0  0  0  0  0  0  0
   -1.3812    2.1690    5.8131 C   0  0  0  0  0  0  0  0  0  0  0  0
   -0.7388    1.0330    5.4624 C   0  0  0  0  0  0  0  0  0  0  0  0
   -0.8269    0.4753    4.0553 C   0  0  2  0  0  0  0  0  0  0  0  0
    0.4370   -0.3084    3.6585 C   0  0  0  0  0  0  0  0  0  0  0  0
    1.4644    0.5956    3.1389 N   0  0  0  0  0  0  0  0  0  0  0  0
    1.1743    1.7697    2.5611 C   0  0  0  0  0  0  0  0  0  0  0  0
   -0.0807    2.2412    2.4804 N   0  0  0  0  0  0  0  0  0  0  0  0
   -1.2657    1.5571    3.0286 C   0  0  2  0  0  0  0  0  0  0  0  0
   -2.1707    2.6137    3.6818 C   0  0  0  0  0  0  0  0  0  0  0  0
   -3.3630    3.5877    2.4377 Br  0  0  0  0  0  0  0  0  0  0  0  0
   -2.1887    2.8759    4.9286 N   0  0  0  0  0  0  0  0  0  0  0  0
    0.9264    4.2783    8.5780 H   0  0  0  0  0  0  0  0  0  0  0  0
    2.3503    3.4670    7.9140 H   0  0  0  0  0  0  0  0  0  0  0  0
    2.1407    3.6166    9.6618 H   0  0  0  0  0  0  0  0  0  0  0  0
    0.8279   -0.8728    9.4141 H   0  0  0  0  0  0  0  0  0  0  0  0
   -0.1331    0.4780    6.1625 H   0  0  0  0  0  0  0  0  0  0  0  0
   -1.6310   -0.2613    4.0945 H   0  0  0  0  0  0  0  0  0  0  0  0
    0.8391   -0.8487    4.5162 H   0  0  0  0  0  0  0  0  0  0  0  0
    0.2117   -1.0515    2.8943 H   0  0  0  0  0  0  0  0  0  0  0  0
    1.9789    2.3649    2.1326 H   0  0  0  0  0  0  0  0  0  0  0  0
   -1.7898    1.0851    2.1912 H   0  0  0  0  0  0  0  0  0  0  0  0
   -0.2023    3.0980    1.9406 H   0  0  0  0  0  0  0  0  0  0  0  0
    2.4173    0.2653    3.1315 H   0  0  0  0  0  0  0  0  0  0  0  0
  1  2  1  0
  1 19  1  0
  1 20  1  0
  1 21  1  0
  2  6  1  0
  2  3  1  0
  3  4  2  0
  4  5  1  0
  4 22  1  0
  5  6  2  0
  6  7  1  0
  7  8  1  0
  8 18  1  0
  8  9  2  0
  9 10  1  0
  9 23  1  0
 10 15  1  0
 10 11  1  0
 10 24  1  1
 11 12  1  0
 11 25  1  0
 11 26  1  0
 12 13  2  0
 12 30  1  0
 13 14  1  0
 13 27  1  0
 14 15  1  0
 14 29  1  0
 15 16  1  0
 15 28  1  6
 16 17  1  0
 16 18  2  0
M  CHG  1  12   1
M  END
>  <i_m_ct_stereo_status>  (218) 
1

>  <s_m_source_file>  (218) 
/var/tmp/pbs.5076255.sched01/tmpbnv9a_8s/88lo2bg1ru.sdf

>  <i_m_source_file_index>  (218) 
20

>  <i_lp_mmshare_version>  (218) 
48012

>  <i_f3d_flags>  (218) 
0

>  <s_epik_input>  (218) 
W0NIM11uMW5bY0hdbmMxU0MoPVtDSF0yKU49QyhCcilbQ0BIXShbQ0BIXTIzKU49W0NIXVtOSF1bQ0gyXTM=

>  <s_epik_cmdline>  (218) 
J2VwaWtfcHl0aG9uJywgJy1waHQnLCAnMi4wJywgJy1waCcsICc3LjAnLCAnLXRuJywgJzgnLCAnLW1hJywgJzIwMCcsICctaW1hZScsICc8aW5maWxlLm1hZT4nLCAnLW9tYWUnLCAnPG91dGZpbGUubWFlPic=

>  <r_lp_tautomer_probability>  (218) 
1

>  <r_epik_Ionization_Penalty>  (218) 
0.118412

>  <r_epik_Ionization_Penalty_Charging>  (218) 
0.118412

>  <r_epik_Ionization_Penalty_Neutral>  (218) 
5.71875e-08

>  <r_epik_State_Penalty>  (218) 
0.466856

>  <r_epik_Charging_Adjusted_Penalty>  (218) 
0.585268

>  <i_epik_Tot_Q>  (218) 
1

>  <i_epik_Tot_abs_Q>  (218) 
1

>  <s_epik_Chemistry_Notes>  (218) 
This compound has an imine and may undergo hydrolysis.

>  <s_lp_Force_Field>  (218) 
OPLS3e

>  <r_lp_Energy>  (218) 
26.0814

>  <b_lp_Chiralities_Consistent>  (218) 
1

>  <s_lp_Variant>  (218) 
75:0-2

>  <s_i_glide_gridfile>  (218) 
pfpi4k_grid

>  <i_i_glide_lignum>  (218) 
20

>  <i_i_glide_rotatable_bonds>  (218) 
2

>  <r_i_docking_score>  (218) 
-3.45616

>  <r_i_glide_ligand_efficiency>  (218) 
-0.192009

>  <r_i_glide_ligand_efficiency_sa>  (218) 
-0.503206

>  <r_i_glide_ligand_efficiency_ln>  (218) 
-0.888388

>  <r_i_glide_gscore>  (218) 
-3.45616

>  <r_i_glide_lipo>  (218) 
-0.080367

>  <r_i_glide_hbond>  (218) 
-0.200447

>  <r_i_glide_metal>  (218) 
-0

>  <r_i_glide_rewards>  (218) 
-1.17128

>  <r_i_glide_evdw>  (218) 
-15.9462

>  <r_i_glide_ecoul>  (218) 
-8.85184

>  <r_i_glide_erotb>  (218) 
0.348644

>  <r_i_glide_esite>  (218) 
-0.227623

>  <r_i_glide_emodel>  (218) 
-33.72

>  <r_i_glide_energy>  (218) 
-24.7981

>  <r_i_glide_einternal>  (218) 
0.25769

>  <r_i_glide_intrahb_reward>  (218) 
-0

>  <i_i_glide_confnum>  (218) 
2

>  <i_i_glide_posenum>  (218) 
18

>  <r_i_glide_eff_state_penalty>  (218) 
0

>  <ligand_id>  (218) 
75

>  <original_smiles>  (218) 
Cn1ncnc1SC1=CC2CNC=NC2C(Br)=N1

>  <smiles>  (218) 
[H]C1=C(Sc2nc([H])nn2C([H])([H])[H])N=C(Br)C2([H])N([H])C([H])=[N+]([H])C([H])([H])C12[H]

$$$$
75:1:2
     RDKit          3D

 30 32  0  0  1  0  0  0  0  0999 V2000
   -1.2217   -9.7510    2.3885 C   0  0  0  0  0  0  0  0  0  0  0  0
    0.1101   -9.8360    2.9605 N   0  0  0  0  0  0  0  0  0  0  0  0
    0.6426  -11.0441    3.2515 N   0  0  0  0  0  0  0  0  0  0  0  0
    1.8026  -10.7183    3.8144 C   0  0  0  0  0  0  0  0  0  0  0  0
    2.0640   -9.3843    3.8941 N   0  0  0  0  0  0  0  0  0  0  0  0
    0.9833   -8.8823    3.3119 C   0  0  0  0  0  0  0  0  0  0  0  0
    0.7300   -7.1633    2.9936 S   0  0  0  0  0  0  0  0  0  0  0  0
    2.0650   -6.7454    1.8950 C   0  0  0  0  0  0  0  0  0  0  0  0
    3.2995   -7.2965    1.9363 C   0  0  0  0  0  0  0  0  0  0  0  0
    4.3720   -6.9045    0.9447 C   0  0  2  0  0  0  0  0  0  0  0  0
    5.7915   -7.0773    1.5140 C   0  0  0  0  0  0  0  0  0  0  0  0
    6.2010   -5.8838    2.2522 N   0  0  0  0  0  0  0  0  0  0  0  0
    5.6950   -4.6652    2.0022 C   0  0  0  0  0  0  0  0  0  0  0  0
    4.7278   -4.4563    1.0915 N   0  0  0  0  0  0  0  0  0  0  0  0
    4.0943   -5.5184    0.2996 C   0  0  2  0  0  0  0  0  0  0  0  0
    2.5963   -5.2214    0.2277 C   0  0  0  0  0  0  0  0  0  0  0  0
    2.1066   -3.8357   -1.1227 Br  0  0  0  0  0  0  0  0  0  0  0  0
    1.7085   -5.7825    0.9476 N   0  0  0  0  0  0  0  0  0  0  0  0
   -1.3815   -8.8046    1.8730 H   0  0  0  0  0  0  0  0  0  0  0  0
   -1.9627   -9.8385    3.1826 H   0  0  0  0  0  0  0  0  0  0  0  0
   -1.3820  -10.5587    1.6747 H   0  0  0  0  0  0  0  0  0  0  0  0
    2.4952  -11.4738    4.1319 H   0  0  0  0  0  0  0  0  0  0  0  0
    3.5762   -8.0349    2.6770 H   0  0  0  0  0  0  0  0  0  0  0  0
    4.2832   -7.6438    0.1481 H   0  0  0  0  0  0  0  0  0  0  0  0
    5.8433   -7.9499    2.1700 H   0  0  0  0  0  0  0  0  0  0  0  0
    6.5185   -7.2378    0.7218 H   0  0  0  0  0  0  0  0  0  0  0  0
    6.0952   -3.8149    2.5493 H   0  0  0  0  0  0  0  0  0  0  0  0
    4.5115   -5.4879   -0.7116 H   0  0  0  0  0  0  0  0  0  0  0  0
    4.3967   -3.5153    0.9360 H   0  0  0  0  0  0  0  0  0  0  0  0
    6.9632   -5.9913    2.9096 H   0  0  0  0  0  0  0  0  0  0  0  0
  1  2  1  0
  1 19  1  0
  1 20  1  0
  1 21  1  0
  2  6  1  0
  2  3  1  0
  3  4  2  0
  4  5  1  0
  4 22  1  0
  5  6  2  0
  6  7  1  0
  7  8  1  0
  8 18  1  0
  8  9  2  0
  9 10  1  0
  9 23  1  0
 10 15  1  0
 10 11  1  0
 10 24  1  6
 11 12  1  0
 11 25  1  0
 11 26  1  0
 12 13  2  0
 12 30  1  0
 13 14  1  0
 13 27  1  0
 14 15  1  0
 14 29  1  0
 15 16  1  0
 15 28  1  6
 16 17  1  0
 16 18  2  0
M  CHG  1  12   1
M  END
>  <i_m_ct_stereo_status>  (219) 
1

>  <s_m_source_file>  (219) 
/var/tmp/pbs.5076255.sched01/tmpbnv9a_8s/88lo2bg1ru.sdf

>  <i_m_source_file_index>  (219) 
20

>  <i_lp_mmshare_version>  (219) 
48012

>  <i_f3d_flags>  (219) 
0

>  <s_epik_input>  (219) 
W0NIM11uMW5bY0hdbmMxU0MoPVtDSF0yKU49QyhCcilbQ0BIXShbQ0BIXTIzKU49W0NIXVtOSF1bQ0gyXTM=

>  <s_epik_cmdline>  (219) 
J2VwaWtfcHl0aG9uJywgJy1waHQnLCAnMi4wJywgJy1waCcsICc3LjAnLCAnLXRuJywgJzgnLCAnLW1hJywgJzIwMCcsICctaW1hZScsICc8aW5maWxlLm1hZT4nLCAnLW9tYWUnLCAnPG91dGZpbGUubWFlPic=

>  <r_lp_tautomer_probability>  (219) 
1

>  <r_epik_Ionization_Penalty>  (219) 
0.118412

>  <r_epik_Ionization_Penalty_Charging>  (219) 
0.118412

>  <r_epik_Ionization_Penalty_Neutral>  (219) 
5.71875e-08

>  <r_epik_State_Penalty>  (219) 
0.466856

>  <r_epik_Charging_Adjusted_Penalty>  (219) 
0.585268

>  <i_epik_Tot_Q>  (219) 
1

>  <i_epik_Tot_abs_Q>  (219) 
1

>  <s_epik_Chemistry_Notes>  (219) 
This compound has an imine and may undergo hydrolysis.

>  <s_lp_Force_Field>  (219) 
OPLS3e

>  <r_lp_Energy>  (219) 
26.0814

>  <b_lp_Chiralities_Consistent>  (219) 
1

>  <s_lp_Variant>  (219) 
75:0-2

>  <s_i_glide_gridfile>  (219) 
pfpi4k_grid

>  <i_i_glide_lignum>  (219) 
20

>  <i_i_glide_rotatable_bonds>  (219) 
2

>  <r_i_docking_score>  (219) 
-3.26354

>  <r_i_glide_ligand_efficiency>  (219) 
-0.181308

>  <r_i_glide_ligand_efficiency_sa>  (219) 
-0.47516

>  <r_i_glide_ligand_efficiency_ln>  (219) 
-0.838875

>  <r_i_glide_gscore>  (219) 
-3.26354

>  <r_i_glide_lipo>  (219) 
-0.447336

>  <r_i_glide_hbond>  (219) 
-0.104243

>  <r_i_glide_metal>  (219) 
-0

>  <r_i_glide_rewards>  (219) 
-1.27119

>  <r_i_glide_evdw>  (219) 
-20.8908

>  <r_i_glide_ecoul>  (219) 
-4.42534

>  <r_i_glide_erotb>  (219) 
0.348644

>  <r_i_glide_esite>  (219) 
-0.0810647

>  <r_i_glide_emodel>  (219) 
-33.3

>  <r_i_glide_energy>  (219) 
-25.3162

>  <r_i_glide_einternal>  (219) 
1.01859

>  <r_i_glide_intrahb_reward>  (219) 
-0

>  <i_i_glide_confnum>  (219) 
2

>  <i_i_glide_posenum>  (219) 
11

>  <r_i_glide_eff_state_penalty>  (219) 
0

>  <ligand_id>  (219) 
75

>  <original_smiles>  (219) 
Cn1ncnc1SC1=CC2CNC=NC2C(Br)=N1

>  <smiles>  (219) 
[H]C1=C(Sc2nc([H])nn2C([H])([H])[H])N=C(Br)C2([H])N([H])C([H])=[N+]([H])C([H])([H])C12[H]

$$$$
75:2:0
     RDKit          3D

 29 31  0  0  1  0  0  0  0  0999 V2000
    5.3170   -3.8624   -3.3643 C   0  0  0  0  0  0  0  0  0  0  0  0
    4.6776   -2.5871   -3.1644 N   0  0  0  0  0  0  0  0  0  0  0  0
    3.7790   -2.1243   -4.0620 N   0  0  0  0  0  0  0  0  0  0  0  0
    3.4537   -0.9449   -3.5584 C   0  0  0  0  0  0  0  0  0  0  0  0
    4.1559   -0.5680   -2.4507 N   0  0  0  0  0  0  0  0  0  0  0  0
    4.8306   -1.6787   -2.1996 C   0  0  0  0  0  0  0  0  0  0  0  0
    5.8397   -1.9318   -0.7800 S   0  0  0  0  0  0  0  0  0  0  0  0
    4.8402   -1.3106    0.5588 C   0  0  0  0  0  0  0  0  0  0  0  0
    3.4836   -1.2608    0.5404 C   0  0  0  0  0  0  0  0  0  0  0  0
    2.6803   -0.7163    1.6877 C   0  0  2  0  0  0  0  0  0  0  0  0
    2.0915    0.6592    1.3494 C   0  0  0  0  0  0  0  0  0  0  0  0
    1.4455    1.2007    2.5249 N   0  0  0  0  0  0  0  0  0  0  0  0
    2.0805    1.1184    3.7418 C   0  0  0  0  0  0  0  0  0  0  0  0
    3.0419    0.2632    4.0214 N   0  0  0  0  0  0  0  0  0  0  0  0
    3.5146   -0.6821    2.9977 C   0  0  2  0  0  0  0  0  0  0  0  0
    5.0135   -0.5318    2.7275 C   0  0  0  0  0  0  0  0  0  0  0  0
    6.0282    0.1354    4.2905 Br  0  0  0  0  0  0  0  0  0  0  0  0
    5.5924   -0.8393    1.6391 N   0  0  0  0  0  0  0  0  0  0  0  0
    6.2249   -3.9367   -2.7693 H   0  0  0  0  0  0  0  0  0  0  0  0
    5.5795   -3.9633   -4.4123 H   0  0  0  0  0  0  0  0  0  0  0  0
    4.6391   -4.6685   -3.0988 H   0  0  0  0  0  0  0  0  0  0  0  0
    2.6761   -0.3293   -3.9896 H   0  0  0  0  0  0  0  0  0  0  0  0
    2.8944   -1.6283   -0.2819 H   0  0  0  0  0  0  0  0  0  0  0  0
    1.8392   -1.3944    1.8268 H   0  0  0  0  0  0  0  0  0  0  0  0
    2.8612    1.3390    0.9792 H   0  0  0  0  0  0  0  0  0  0  0  0
    1.3393    0.5586    0.5689 H   0  0  0  0  0  0  0  0  0  0  0  0
    0.6478    1.8042    2.3340 H   0  0  0  0  0  0  0  0  0  0  0  0
    1.7257    1.8129    4.4948 H   0  0  0  0  0  0  0  0  0  0  0  0
    3.4193   -1.6814    3.4125 H   0  0  0  0  0  0  0  0  0  0  0  0
  1  2  1  0
  1 19  1  0
  1 20  1  0
  1 21  1  0
  2  6  1  0
  2  3  1  0
  3  4  2  0
  4  5  1  0
  4 22  1  0
  5  6  2  0
  6  7  1  0
  7  8  1  0
  8 18  1  0
  8  9  2  0
  9 10  1  0
  9 23  1  0
 10 15  1  0
 10 11  1  0
 10 24  1  1
 11 12  1  0
 11 25  1  0
 11 26  1  0
 12 13  1  0
 12 27  1  0
 13 14  2  0
 13 28  1  0
 14 15  1  0
 15 16  1  0
 15 29  1  1
 16 17  1  0
 16 18  2  0
M  END
>  <i_m_ct_stereo_status>  (220) 
1

>  <s_m_source_file>  (220) 
/var/tmp/pbs.5076255.sched01/tmpbnv9a_8s/88lo2bg1ru.sdf

>  <i_m_source_file_index>  (220) 
21

>  <i_lp_mmshare_version>  (220) 
48012

>  <i_f3d_flags>  (220) 
0

>  <s_epik_input>  (220) 
W0NIM11uMW5bY0hdbmMxU0MoPVtDSF0yKU49QyhCcilbQ0BIXShbQ0BIXTIzKU49W0NIXVtOSF1bQ0gyXTM=

>  <s_epik_cmdline>  (220) 
J2VwaWtfcHl0aG9uJywgJy1waHQnLCAnMi4wJywgJy1waCcsICc3LjAnLCAnLXRuJywgJzgnLCAnLW1hJywgJzIwMCcsICctaW1hZScsICc8aW5maWxlLm1hZT4nLCAnLW9tYWUnLCAnPG91dGZpbGUubWFlPic=

>  <r_lp_tautomer_probability>  (220) 
1

>  <r_epik_Ionization_Penalty>  (220) 
1.01455

>  <r_epik_Ionization_Penalty_Charging>  (220) 
0

>  <r_epik_Ionization_Penalty_Neutral>  (220) 
1.01455

>  <r_epik_State_Penalty>  (220) 
1.42366

>  <r_epik_Charging_Adjusted_Penalty>  (220) 
1.42366

>  <i_epik_Tot_Q>  (220) 
0

>  <i_epik_Tot_abs_Q>  (220) 
0

>  <s_epik_Chemistry_Notes>  (220) 
This compound has an imine and may undergo hydrolysis.

>  <s_lp_Force_Field>  (220) 
OPLS3e

>  <r_lp_Energy>  (220) 
15.1766

>  <b_lp_Chiralities_Consistent>  (220) 
1

>  <s_lp_Variant>  (220) 
75:0-3

>  <s_i_glide_gridfile>  (220) 
pfpi4k_grid

>  <i_i_glide_lignum>  (220) 
21

>  <i_i_glide_rotatable_bonds>  (220) 
2

>  <r_i_docking_score>  (220) 
-3.81621

>  <r_i_glide_ligand_efficiency>  (220) 
-0.212011

>  <r_i_glide_ligand_efficiency_sa>  (220) 
-0.555627

>  <r_i_glide_ligand_efficiency_ln>  (220) 
-0.980936

>  <r_i_glide_gscore>  (220) 
-3.81621

>  <r_i_glide_lipo>  (220) 
-0.196771

>  <r_i_glide_hbond>  (220) 
-0.234502

>  <r_i_glide_metal>  (220) 
-0

>  <r_i_glide_rewards>  (220) 
-1.80603

>  <r_i_glide_evdw>  (220) 
-28.0158

>  <r_i_glide_ecoul>  (220) 
-3.1758

>  <r_i_glide_erotb>  (220) 
0.350543

>  <r_i_glide_esite>  (220) 
-0.0522871

>  <r_i_glide_emodel>  (220) 
-38.3157

>  <r_i_glide_energy>  (220) 
-31.1916

>  <r_i_glide_einternal>  (220) 
0.599619

>  <r_i_glide_intrahb_reward>  (220) 
-0

>  <i_i_glide_confnum>  (220) 
1

>  <i_i_glide_posenum>  (220) 
30

>  <r_i_glide_eff_state_penalty>  (220) 
0

>  <ligand_id>  (220) 
75

>  <original_smiles>  (220) 
Cn1ncnc1SC1=CC2CNC=NC2C(Br)=N1

>  <smiles>  (220) 
[H]C1=NC2([H])C(Br)=NC(Sc3nc([H])nn3C([H])([H])[H])=C([H])C2([H])C([H])([H])N1[H]

$$$$
75:2:1
     RDKit          3D

 29 31  0  0  1  0  0  0  0  0999 V2000
    5.6941   -3.8039   -2.8903 C   0  0  0  0  0  0  0  0  0  0  0  0
    5.0036   -2.5496   -2.7445 N   0  0  0  0  0  0  0  0  0  0  0  0
    4.1528   -2.1250   -3.7077 N   0  0  0  0  0  0  0  0  0  0  0  0
    3.7683   -0.9495   -3.2343 C   0  0  0  0  0  0  0  0  0  0  0  0
    4.3409   -0.5654   -2.0613 N   0  0  0  0  0  0  0  0  0  0  0  0
    5.0295   -1.6435   -1.7525 C   0  0  0  0  0  0  0  0  0  0  0  0
    5.8905   -1.8638   -0.2262 S   0  0  0  0  0  0  0  0  0  0  0  0
    4.7052   -1.3817    1.0084 C   0  0  0  0  0  0  0  0  0  0  0  0
    3.4095   -1.0885    0.7706 C   0  0  0  0  0  0  0  0  0  0  0  0
    2.4493   -0.6757    1.8648 C   0  0  2  0  0  0  0  0  0  0  0  0
    2.1409    0.8253    1.7944 C   0  0  0  0  0  0  0  0  0  0  0  0
    1.3581    1.2025    2.9539 N   0  0  0  0  0  0  0  0  0  0  0  0
    1.6766    0.6856    4.1981 C   0  0  0  0  0  0  0  0  0  0  0  0
    2.4189   -0.3618    4.4094 N   0  0  0  0  0  0  0  0  0  0  0  0
    2.9775   -1.1102    3.2721 C   0  0  2  0  0  0  0  0  0  0  0  0
    4.5095   -1.1698    3.3199 C   0  0  0  0  0  0  0  0  0  0  0  0
    5.2794   -1.1046    5.1621 Br  0  0  0  0  0  0  0  0  0  0  0  0
    5.2578   -1.2933    2.2914 N   0  0  0  0  0  0  0  0  0  0  0  0
    6.5432   -3.8421   -2.2073 H   0  0  0  0  0  0  0  0  0  0  0  0
    6.0776   -3.8496   -3.9093 H   0  0  0  0  0  0  0  0  0  0  0  0
    5.0200   -4.6485   -2.7039 H   0  0  0  0  0  0  0  0  0  0  0  0
    3.0055   -0.3537   -3.7161 H   0  0  0  0  0  0  0  0  0  0  0  0
    2.9654   -1.1519   -0.2132 H   0  0  0  0  0  0  0  0  0  0  0  0
    1.5112   -1.2023    1.6795 H   0  0  0  0  0  0  0  0  0  0  0  0
    3.0542    1.4195    1.7306 H   0  0  0  0  0  0  0  0  0  0  0  0
    1.5546    1.0398    0.9013 H   0  0  0  0  0  0  0  0  0  0  0  0
    0.6521    1.9118    2.7890 H   0  0  0  0  0  0  0  0  0  0  0  0
    1.2531    1.2430    5.0329 H   0  0  0  0  0  0  0  0  0  0  0  0
    2.6542   -2.1471    3.3766 H   0  0  0  0  0  0  0  0  0  0  0  0
  1  2  1  0
  1 19  1  0
  1 20  1  0
  1 21  1  0
  2  6  1  0
  2  3  1  0
  3  4  2  0
  4  5  1  0
  4 22  1  0
  5  6  2  0
  6  7  1  0
  7  8  1  0
  8 18  1  0
  8  9  2  0
  9 10  1  0
  9 23  1  0
 10 15  1  0
 10 11  1  0
 10 24  1  6
 11 12  1  0
 11 25  1  0
 11 26  1  0
 12 13  1  0
 12 27  1  0
 13 14  2  0
 13 28  1  0
 14 15  1  0
 15 16  1  0
 15 29  1  1
 16 17  1  0
 16 18  2  0
M  END
>  <i_m_ct_stereo_status>  (221) 
1

>  <s_m_source_file>  (221) 
/var/tmp/pbs.5076255.sched01/tmpbnv9a_8s/88lo2bg1ru.sdf

>  <i_m_source_file_index>  (221) 
21

>  <i_lp_mmshare_version>  (221) 
48012

>  <i_f3d_flags>  (221) 
0

>  <s_epik_input>  (221) 
W0NIM11uMW5bY0hdbmMxU0MoPVtDSF0yKU49QyhCcilbQ0BIXShbQ0BIXTIzKU49W0NIXVtOSF1bQ0gyXTM=

>  <s_epik_cmdline>  (221) 
J2VwaWtfcHl0aG9uJywgJy1waHQnLCAnMi4wJywgJy1waCcsICc3LjAnLCAnLXRuJywgJzgnLCAnLW1hJywgJzIwMCcsICctaW1hZScsICc8aW5maWxlLm1hZT4nLCAnLW9tYWUnLCAnPG91dGZpbGUubWFlPic=

>  <r_lp_tautomer_probability>  (221) 
1

>  <r_epik_Ionization_Penalty>  (221) 
1.01455

>  <r_epik_Ionization_Penalty_Charging>  (221) 
0

>  <r_epik_Ionization_Penalty_Neutral>  (221) 
1.01455

>  <r_epik_State_Penalty>  (221) 
1.42366

>  <r_epik_Charging_Adjusted_Penalty>  (221) 
1.42366

>  <i_epik_Tot_Q>  (221) 
0

>  <i_epik_Tot_abs_Q>  (221) 
0

>  <s_epik_Chemistry_Notes>  (221) 
This compound has an imine and may undergo hydrolysis.

>  <s_lp_Force_Field>  (221) 
OPLS3e

>  <r_lp_Energy>  (221) 
15.1766

>  <b_lp_Chiralities_Consistent>  (221) 
1

>  <s_lp_Variant>  (221) 
75:0-3

>  <s_i_glide_gridfile>  (221) 
pfpi4k_grid

>  <i_i_glide_lignum>  (221) 
21

>  <i_i_glide_rotatable_bonds>  (221) 
2

>  <r_i_docking_score>  (221) 
-3.14425

>  <r_i_glide_ligand_efficiency>  (221) 
-0.174681

>  <r_i_glide_ligand_efficiency_sa>  (221) 
-0.457793

>  <r_i_glide_ligand_efficiency_ln>  (221) 
-0.808214

>  <r_i_glide_gscore>  (221) 
-3.14425

>  <r_i_glide_lipo>  (221) 
-0.161198

>  <r_i_glide_hbond>  (221) 
0

>  <r_i_glide_metal>  (221) 
-0

>  <r_i_glide_rewards>  (221) 
-1.62001

>  <r_i_glide_evdw>  (221) 
-25.0985

>  <r_i_glide_ecoul>  (221) 
-2.64691

>  <r_i_glide_erotb>  (221) 
0.350543

>  <r_i_glide_esite>  (221) 
-0.0616275

>  <r_i_glide_emodel>  (221) 
-33.2467

>  <r_i_glide_energy>  (221) 
-27.7454

>  <r_i_glide_einternal>  (221) 
0.460035

>  <r_i_glide_intrahb_reward>  (221) 
-0

>  <i_i_glide_confnum>  (221) 
1

>  <i_i_glide_posenum>  (221) 
13

>  <r_i_glide_eff_state_penalty>  (221) 
0

>  <ligand_id>  (221) 
75

>  <original_smiles>  (221) 
Cn1ncnc1SC1=CC2CNC=NC2C(Br)=N1

>  <smiles>  (221) 
[H]C1=NC2([H])C(Br)=NC(Sc3nc([H])nn3C([H])([H])[H])=C([H])C2([H])C([H])([H])N1[H]

$$$$
75:2:2
     RDKit          3D

 29 31  0  0  1  0  0  0  0  0999 V2000
   -0.4787   -1.9699    5.1387 C   0  0  0  0  0  0  0  0  0  0  0  0
   -0.5023   -3.2265    5.8814 N   0  0  0  0  0  0  0  0  0  0  0  0
   -1.4154   -3.4351    6.8653 N   0  0  0  0  0  0  0  0  0  0  0  0
   -1.0735   -4.6011    7.3494 C   0  0  0  0  0  0  0  0  0  0  0  0
    0.0265   -5.1385    6.8052 N   0  0  0  0  0  0  0  0  0  0  0  0
    0.2517   -4.3184    5.7884 C   0  0  0  0  0  0  0  0  0  0  0  0
    1.3262   -4.6627    4.4176 S   0  0  0  0  0  0  0  0  0  0  0  0
    1.2535   -6.4180    4.1118 C   0  0  0  0  0  0  0  0  0  0  0  0
    0.4320   -7.2940    4.7412 C   0  0  0  0  0  0  0  0  0  0  0  0
    0.4379   -8.7625    4.4845 C   0  0  2  0  0  0  0  0  0  0  0  0
    1.1164   -9.5242    5.6287 C   0  0  0  0  0  0  0  0  0  0  0  0
    1.2163  -10.9179    5.2560 N   0  0  0  0  0  0  0  0  0  0  0  0
    1.5706  -11.2538    3.9614 C   0  0  0  0  0  0  0  0  0  0  0  0
    1.5393  -10.4621    2.9233 N   0  0  0  0  0  0  0  0  0  0  0  0
    1.0502   -9.0813    3.0843 C   0  0  2  0  0  0  0  0  0  0  0  0
    2.1035   -8.0323    2.6562 C   0  0  0  0  0  0  0  0  0  0  0  0
    3.3598   -8.6735    1.2662 Br  0  0  0  0  0  0  0  0  0  0  0  0
    2.1603   -6.8414    3.1246 N   0  0  0  0  0  0  0  0  0  0  0  0
    0.4503   -1.8744    4.5510 H   0  0  0  0  0  0  0  0  0  0  0  0
   -0.5002   -1.1392    5.8620 H   0  0  0  0  0  0  0  0  0  0  0  0
   -1.3458   -1.8817    4.4663 H   0  0  0  0  0  0  0  0  0  0  0  0
   -1.6792   -5.0968    8.0588 H   0  0  0  0  0  0  0  0  0  0  0  0
   -0.3160   -7.1084    5.4771 H   0  0  0  0  0  0  0  0  0  0  0  0
   -0.6105   -9.0590    4.4866 H   0  0  0  0  0  0  0  0  0  0  0  0
    2.0888   -9.1009    5.8830 H   0  0  0  0  0  0  0  0  0  0  0  0
    0.5238   -9.4667    6.5368 H   0  0  0  0  0  0  0  0  0  0  0  0
    1.1219  -11.5870    6.0331 H   0  0  0  0  0  0  0  0  0  0  0  0
    1.9223  -12.2607    3.8428 H   0  0  0  0  0  0  0  0  0  0  0  0
    0.2073   -8.9313    2.3951 H   0  0  0  0  0  0  0  0  0  0  0  0
  1  2  1  0
  1 19  1  0
  1 20  1  0
  1 21  1  0
  2  6  1  0
  2  3  1  0
  3  4  2  0
  4  5  1  0
  4 22  1  0
  5  6  2  0
  6  7  1  0
  7  8  1  0
  8 18  1  0
  8  9  2  0
  9 10  1  0
  9 23  1  0
 10 15  1  0
 10 11  1  0
 10 24  1  6
 11 12  1  0
 11 25  1  0
 11 26  1  0
 12 13  1  0
 12 27  1  0
 13 14  2  0
 13 28  1  0
 14 15  1  0
 15 16  1  0
 15 29  1  6
 16 17  1  0
 16 18  2  0
M  END
>  <i_m_ct_stereo_status>  (222) 
1

>  <s_m_source_file>  (222) 
/var/tmp/pbs.5076255.sched01/tmpbnv9a_8s/88lo2bg1ru.sdf

>  <i_m_source_file_index>  (222) 
21

>  <i_lp_mmshare_version>  (222) 
48012

>  <i_f3d_flags>  (222) 
0

>  <s_epik_input>  (222) 
W0NIM11uMW5bY0hdbmMxU0MoPVtDSF0yKU49QyhCcilbQ0BIXShbQ0BIXTIzKU49W0NIXVtOSF1bQ0gyXTM=

>  <s_epik_cmdline>  (222) 
J2VwaWtfcHl0aG9uJywgJy1waHQnLCAnMi4wJywgJy1waCcsICc3LjAnLCAnLXRuJywgJzgnLCAnLW1hJywgJzIwMCcsICctaW1hZScsICc8aW5maWxlLm1hZT4nLCAnLW9tYWUnLCAnPG91dGZpbGUubWFlPic=

>  <r_lp_tautomer_probability>  (222) 
1

>  <r_epik_Ionization_Penalty>  (222) 
1.01455

>  <r_epik_Ionization_Penalty_Charging>  (222) 
0

>  <r_epik_Ionization_Penalty_Neutral>  (222) 
1.01455

>  <r_epik_State_Penalty>  (222) 
1.42366

>  <r_epik_Charging_Adjusted_Penalty>  (222) 
1.42366

>  <i_epik_Tot_Q>  (222) 
0

>  <i_epik_Tot_abs_Q>  (222) 
0

>  <s_epik_Chemistry_Notes>  (222) 
This compound has an imine and may undergo hydrolysis.

>  <s_lp_Force_Field>  (222) 
OPLS3e

>  <r_lp_Energy>  (222) 
15.1766

>  <b_lp_Chiralities_Consistent>  (222) 
1

>  <s_lp_Variant>  (222) 
75:0-3

>  <s_i_glide_gridfile>  (222) 
pfpi4k_grid

>  <i_i_glide_lignum>  (222) 
21

>  <i_i_glide_rotatable_bonds>  (222) 
2

>  <r_i_docking_score>  (222) 
-2.9953

>  <r_i_glide_ligand_efficiency>  (222) 
-0.166406

>  <r_i_glide_ligand_efficiency_sa>  (222) 
-0.436106

>  <r_i_glide_ligand_efficiency_ln>  (222) 
-0.769927

>  <r_i_glide_gscore>  (222) 
-2.9953

>  <r_i_glide_lipo>  (222) 
0

>  <r_i_glide_hbond>  (222) 
-0.16

>  <r_i_glide_metal>  (222) 
-0

>  <r_i_glide_rewards>  (222) 
-1.32187

>  <r_i_glide_evdw>  (222) 
-20.167

>  <r_i_glide_ecoul>  (222) 
-4.91332

>  <r_i_glide_erotb>  (222) 
0.350543

>  <r_i_glide_esite>  (222) 
-0.118627

>  <r_i_glide_emodel>  (222) 
-28.817

>  <r_i_glide_energy>  (222) 
-25.0803

>  <r_i_glide_einternal>  (222) 
0.932925

>  <r_i_glide_intrahb_reward>  (222) 
-0

>  <i_i_glide_confnum>  (222) 
1

>  <i_i_glide_posenum>  (222) 
3

>  <r_i_glide_eff_state_penalty>  (222) 
0

>  <ligand_id>  (222) 
75

>  <original_smiles>  (222) 
Cn1ncnc1SC1=CC2CNC=NC2C(Br)=N1

>  <smiles>  (222) 
[H]C1=NC2([H])C(Br)=NC(Sc3nc([H])nn3C([H])([H])[H])=C([H])C2([H])C([H])([H])N1[H]

$$$$
76:0:0
     RDKit          3D

 29 30  0  0  1  0  0  0  0  0999 V2000
    4.1733   -3.1097    1.2936 C   0  0  0  0  0  0  0  0  0  0  0  0
    4.4404   -3.9942    0.0555 C   0  0  2  0  0  0  0  0  0  0  0  0
    5.3472   -3.2964   -0.9567 C   0  0  0  0  0  0  0  0  0  0  0  0
    4.3908   -2.6305   -1.9770 C   0  0  1  0  0  0  0  0  0  0  0  0
    4.5550   -1.0975   -1.9850 C   0  0  0  0  0  0  0  0  0  0  0  0
    3.6556   -0.4755   -3.0538 C   0  0  0  0  0  0  0  0  0  0  0  0
    3.9107   -1.1371   -4.4005 C   0  0  0  0  0  0  0  0  0  0  0  0
    3.7479   -2.5439   -4.3187 O   0  0  0  0  0  0  0  0  0  0  0  0
    4.6408   -3.1704   -3.4024 C   0  0  0  0  0  0  0  0  0  0  0  0
    2.9832   -3.0471   -1.5105 C   0  0  0  0  0  0  0  0  0  0  0  0
    3.1999   -4.2395   -0.6906 N   0  0  0  0  0  0  0  0  0  0  0  0
    5.0766   -2.9610    1.8864 H   0  0  0  0  0  0  0  0  0  0  0  0
    3.4248   -3.5536    1.9486 H   0  0  0  0  0  0  0  0  0  0  0  0
    3.8067   -2.1191    1.0148 H   0  0  0  0  0  0  0  0  0  0  0  0
    4.8703   -4.9434    0.3672 H   0  0  0  0  0  0  0  0  0  0  0  0
    6.0229   -2.5882   -0.4798 H   0  0  0  0  0  0  0  0  0  0  0  0
    5.9855   -4.0305   -1.4484 H   0  0  0  0  0  0  0  0  0  0  0  0
    4.3373   -0.6572   -1.0132 H   0  0  0  0  0  0  0  0  0  0  0  0
    5.5920   -0.8475   -2.1844 H   0  0  0  0  0  0  0  0  0  0  0  0
    2.6086   -0.5904   -2.7766 H   0  0  0  0  0  0  0  0  0  0  0  0
    3.8409    0.5931   -3.1346 H   0  0  0  0  0  0  0  0  0  0  0  0
    3.2346   -0.7336   -5.1512 H   0  0  0  0  0  0  0  0  0  0  0  0
    4.9232   -0.9180   -4.7268 H   0  0  0  0  0  0  0  0  0  0  0  0
    5.6759   -3.0261   -3.6990 H   0  0  0  0  0  0  0  0  0  0  0  0
    4.4619   -4.2455   -3.4470 H   0  0  0  0  0  0  0  0  0  0  0  0
    2.5702   -2.2669   -0.8732 H   0  0  0  0  0  0  0  0  0  0  0  0
    2.2685   -3.2328   -2.3195 H   0  0  0  0  0  0  0  0  0  0  0  0
    3.3253   -5.0254   -1.3327 H   0  0  0  0  0  0  0  0  0  0  0  0
    2.4238   -4.4332   -0.0836 H   0  0  0  0  0  0  0  0  0  0  0  0
  1  2  1  0
  1 12  1  0
  1 13  1  0
  1 14  1  0
  2 11  1  0
  2  3  1  0
  2 15  1  1
  4  3  1  1
  3 16  1  0
  3 17  1  0
  4  9  1  0
  4  5  1  0
  4 10  1  0
  5  6  1  0
  5 18  1  0
  5 19  1  0
  6  7  1  0
  6 20  1  0
  6 21  1  0
  7  8  1  0
  7 22  1  0
  7 23  1  0
  8  9  1  0
  9 24  1  0
  9 25  1  0
 10 11  1  0
 10 26  1  0
 10 27  1  0
 11 28  1  0
 11 29  1  0
M  CHG  1  11   1
M  END
>  <i_m_ct_stereo_status>  (223) 
1

>  <s_m_source_file>  (223) 
/var/tmp/pbs.5076255.sched01/tmpbnv9a_8s/88lo2bg1ru.sdf

>  <i_m_source_file_index>  (223) 
22

>  <i_lp_mmshare_version>  (223) 
48012

>  <i_f3d_flags>  (223) 
0

>  <s_epik_input>  (223) 
W0NIMl0xW05IXVtDQEhdKFtDSDNdKVtDSDJdW0NAXTEyW0NIMl1bQ0gyXVtDSDJdT1tDSDJdMg==

>  <s_epik_cmdline>  (223) 
J2VwaWtfcHl0aG9uJywgJy1waHQnLCAnMi4wJywgJy1waCcsICc3LjAnLCAnLXRuJywgJzgnLCAnLW1hJywgJzIwMCcsICctaW1hZScsICc8aW5maWxlLm1hZT4nLCAnLW9tYWUnLCAnPG91dGZpbGUubWFlPic=

>  <r_lp_tautomer_probability>  (223) 
1

>  <r_epik_Ionization_Penalty>  (223) 
8.10616e-05

>  <r_epik_Ionization_Penalty_Charging>  (223) 
8.10616e-05

>  <r_epik_Ionization_Penalty_Neutral>  (223) 
8.50695e-12

>  <r_epik_State_Penalty>  (223) 
-0

>  <r_epik_Charging_Adjusted_Penalty>  (223) 
8.10616e-05

>  <i_epik_Tot_Q>  (223) 
1

>  <i_epik_Tot_abs_Q>  (223) 
1

>  <s_lp_Force_Field>  (223) 
OPLS3e

>  <r_lp_Energy>  (223) 
15.4622

>  <b_lp_Chiralities_Consistent>  (223) 
1

>  <s_lp_Variant>  (223) 
76:0-1

>  <s_i_glide_gridfile>  (223) 
pfpi4k_grid

>  <i_i_glide_lignum>  (223) 
22

>  <i_i_glide_rotatable_bonds>  (223) 
0

>  <r_i_docking_score>  (223) 
-4.98805

>  <r_i_glide_ligand_efficiency>  (223) 
-0.453459

>  <r_i_glide_ligand_efficiency_sa>  (223) 
-1.00848

>  <r_i_glide_ligand_efficiency_ln>  (223) 
-1.46798

>  <r_i_glide_gscore>  (223) 
-4.98805

>  <r_i_glide_lipo>  (223) 
-0.416634

>  <r_i_glide_hbond>  (223) 
-0.32

>  <r_i_glide_metal>  (223) 
-0

>  <r_i_glide_rewards>  (223) 
-2.25

>  <r_i_glide_evdw>  (223) 
-17.5454

>  <r_i_glide_ecoul>  (223) 
-7.23674

>  <r_i_glide_erotb>  (223) 
0

>  <r_i_glide_esite>  (223) 
-0.038634

>  <r_i_glide_emodel>  (223) 
-32.9754

>  <r_i_glide_energy>  (223) 
-24.7821

>  <r_i_glide_einternal>  (223) 
0

>  <r_i_glide_intrahb_reward>  (223) 
-0

>  <i_i_glide_confnum>  (223) 
4

>  <i_i_glide_posenum>  (223) 
2

>  <r_i_glide_eff_state_penalty>  (223) 
0

>  <ligand_id>  (223) 
76

>  <original_smiles>  (223) 
CC1CC2(CCCOC2)CN1

>  <smiles>  (223) 
[H]C([H])([H])C1([H])C([H])([H])C2(C([H])([H])OC([H])([H])C([H])([H])C2([H])[H])C([H])([H])[N+]1([H])[H]

$$$$
76:0:1
     RDKit          3D

 29 30  0  0  1  0  0  0  0  0999 V2000
    3.5402   -1.8303   -3.9835 C   0  0  0  0  0  0  0  0  0  0  0  0
    3.7314   -1.9495   -2.4760 C   0  0  2  0  0  0  0  0  0  0  0  0
    4.9767   -2.7349   -2.0701 C   0  0  0  0  0  0  0  0  0  0  0  0
    4.6602   -3.1704   -0.6365 C   0  0  1  0  0  0  0  0  0  0  0  0
    5.4336   -4.4410   -0.2344 C   0  0  0  0  0  0  0  0  0  0  0  0
    5.1678   -4.7772    1.2404 C   0  0  0  0  0  0  0  0  0  0  0  0
    5.4588   -3.5574    2.1235 C   0  0  0  0  0  0  0  0  0  0  0  0
    4.6961   -2.4381    1.6925 O   0  0  0  0  0  0  0  0  0  0  0  0
    5.0004   -2.0367    0.3663 C   0  0  0  0  0  0  0  0  0  0  0  0
    3.1377   -3.4244   -0.6918 C   0  0  0  0  0  0  0  0  0  0  0  0
    2.6146   -2.6547   -1.8320 N   0  0  0  0  0  0  0  0  0  0  0  0
    4.3710   -1.2830   -4.4329 H   0  0  0  0  0  0  0  0  0  0  0  0
    2.6237   -1.2949   -4.2268 H   0  0  0  0  0  0  0  0  0  0  0  0
    3.4899   -2.8111   -4.4545 H   0  0  0  0  0  0  0  0  0  0  0  0
    3.7755   -0.9473   -2.0451 H   0  0  0  0  0  0  0  0  0  0  0  0
    5.0904   -3.6124   -2.7105 H   0  0  0  0  0  0  0  0  0  0  0  0
    5.8948   -2.1540   -2.1565 H   0  0  0  0  0  0  0  0  0  0  0  0
    5.1804   -5.2913   -0.8713 H   0  0  0  0  0  0  0  0  0  0  0  0
    6.4993   -4.2680   -0.3805 H   0  0  0  0  0  0  0  0  0  0  0  0
    4.1313   -5.0851    1.3695 H   0  0  0  0  0  0  0  0  0  0  0  0
    5.7838   -5.6189    1.5485 H   0  0  0  0  0  0  0  0  0  0  0  0
    5.2130   -3.7709    3.1637 H   0  0  0  0  0  0  0  0  0  0  0  0
    6.5174   -3.2998    2.0847 H   0  0  0  0  0  0  0  0  0  0  0  0
    6.0486   -1.7470    0.2964 H   0  0  0  0  0  0  0  0  0  0  0  0
    4.4258   -1.1375    0.1575 H   0  0  0  0  0  0  0  0  0  0  0  0
    2.9159   -4.4786   -0.8677 H   0  0  0  0  0  0  0  0  0  0  0  0
    2.6292   -3.1477    0.2336 H   0  0  0  0  0  0  0  0  0  0  0  0
    1.9081   -1.9824   -1.5096 H   0  0  0  0  0  0  0  0  0  0  0  0
    2.1896   -3.2992   -2.4856 H   0  0  0  0  0  0  0  0  0  0  0  0
  1  2  1  0
  1 12  1  0
  1 13  1  0
  1 14  1  0
  2 11  1  0
  2  3  1  0
  2 15  1  1
  4  3  1  6
  3 16  1  0
  3 17  1  0
  4  9  1  0
  4  5  1  0
  4 10  1  0
  5  6  1  0
  5 18  1  0
  5 19  1  0
  6  7  1  0
  6 20  1  0
  6 21  1  0
  7  8  1  0
  7 22  1  0
  7 23  1  0
  8  9  1  0
  9 24  1  0
  9 25  1  0
 10 11  1  0
 10 26  1  0
 10 27  1  0
 11 28  1  0
 11 29  1  0
M  CHG  1  11   1
M  END
>  <i_m_ct_stereo_status>  (224) 
1

>  <s_m_source_file>  (224) 
/var/tmp/pbs.5076255.sched01/tmpbnv9a_8s/88lo2bg1ru.sdf

>  <i_m_source_file_index>  (224) 
22

>  <i_lp_mmshare_version>  (224) 
48012

>  <i_f3d_flags>  (224) 
0

>  <s_epik_input>  (224) 
W0NIMl0xW05IXVtDQEhdKFtDSDNdKVtDSDJdW0NAXTEyW0NIMl1bQ0gyXVtDSDJdT1tDSDJdMg==

>  <s_epik_cmdline>  (224) 
J2VwaWtfcHl0aG9uJywgJy1waHQnLCAnMi4wJywgJy1waCcsICc3LjAnLCAnLXRuJywgJzgnLCAnLW1hJywgJzIwMCcsICctaW1hZScsICc8aW5maWxlLm1hZT4nLCAnLW9tYWUnLCAnPG91dGZpbGUubWFlPic=

>  <r_lp_tautomer_probability>  (224) 
1

>  <r_epik_Ionization_Penalty>  (224) 
8.10616e-05

>  <r_epik_Ionization_Penalty_Charging>  (224) 
8.10616e-05

>  <r_epik_Ionization_Penalty_Neutral>  (224) 
8.50695e-12

>  <r_epik_State_Penalty>  (224) 
-0

>  <r_epik_Charging_Adjusted_Penalty>  (224) 
8.10616e-05

>  <i_epik_Tot_Q>  (224) 
1

>  <i_epik_Tot_abs_Q>  (224) 
1

>  <s_lp_Force_Field>  (224) 
OPLS3e

>  <r_lp_Energy>  (224) 
15.4622

>  <b_lp_Chiralities_Consistent>  (224) 
1

>  <s_lp_Variant>  (224) 
76:0-1

>  <s_i_glide_gridfile>  (224) 
pfpi4k_grid

>  <i_i_glide_lignum>  (224) 
22

>  <i_i_glide_rotatable_bonds>  (224) 
0

>  <r_i_docking_score>  (224) 
-4.51569

>  <r_i_glide_ligand_efficiency>  (224) 
-0.410517

>  <r_i_glide_ligand_efficiency_sa>  (224) 
-0.912982

>  <r_i_glide_ligand_efficiency_ln>  (224) 
-1.32897

>  <r_i_glide_gscore>  (224) 
-4.51569

>  <r_i_glide_lipo>  (224) 
-0.379587

>  <r_i_glide_hbond>  (224) 
-0.2

>  <r_i_glide_metal>  (224) 
-0

>  <r_i_glide_rewards>  (224) 
-2.25

>  <r_i_glide_evdw>  (224) 
-15.2372

>  <r_i_glide_ecoul>  (224) 
-5.85659

>  <r_i_glide_erotb>  (224) 
0

>  <r_i_glide_esite>  (224) 
-0.0457556

>  <r_i_glide_emodel>  (224) 
-28.68

>  <r_i_glide_energy>  (224) 
-21.0938

>  <r_i_glide_einternal>  (224) 
0

>  <r_i_glide_intrahb_reward>  (224) 
-0

>  <i_i_glide_confnum>  (224) 
6

>  <i_i_glide_posenum>  (224) 
1

>  <r_i_glide_eff_state_penalty>  (224) 
0

>  <ligand_id>  (224) 
76

>  <original_smiles>  (224) 
CC1CC2(CCCOC2)CN1

>  <smiles>  (224) 
[H]C([H])([H])C1([H])C([H])([H])C2(C([H])([H])OC([H])([H])C([H])([H])C2([H])[H])C([H])([H])[N+]1([H])[H]

$$$$
76:0:2
     RDKit          3D

 29 30  0  0  1  0  0  0  0  0999 V2000
    3.4156   -0.6676   -4.3908 C   0  0  0  0  0  0  0  0  0  0  0  0
    3.4060   -1.0712   -2.9171 C   0  0  2  0  0  0  0  0  0  0  0  0
    4.7850   -1.3765   -2.3464 C   0  0  0  0  0  0  0  0  0  0  0  0
    4.4843   -2.2295   -1.1103 C   0  0  1  0  0  0  0  0  0  0  0  0
    5.6696   -3.1471   -0.7409 C   0  0  0  0  0  0  0  0  0  0  0  0
    5.3649   -3.9068    0.5542 C   0  0  0  0  0  0  0  0  0  0  0  0
    4.9705   -2.9205    1.6670 C   0  0  0  0  0  0  0  0  0  0  0  0
    3.8671   -2.1305    1.2482 O   0  0  0  0  0  0  0  0  0  0  0  0
    4.1531   -1.3301    0.1090 C   0  0  0  0  0  0  0  0  0  0  0  0
    3.2498   -3.0368   -1.5683 C   0  0  0  0  0  0  0  0  0  0  0  0
    2.6140   -2.2837   -2.6644 N   0  0  0  0  0  0  0  0  0  0  0  0
    3.9750    0.2542   -4.5414 H   0  0  0  0  0  0  0  0  0  0  0  0
    2.3994   -0.4912   -4.7495 H   0  0  0  0  0  0  0  0  0  0  0  0
    3.8590   -1.4377   -5.0171 H   0  0  0  0  0  0  0  0  0  0  0  0
    2.9384   -0.2748   -2.3425 H   0  0  0  0  0  0  0  0  0  0  0  0
    5.3611   -1.9606   -3.0640 H   0  0  0  0  0  0  0  0  0  0  0  0
    5.3550   -0.4742   -2.1216 H   0  0  0  0  0  0  0  0  0  0  0  0
    5.9012   -3.8493   -1.5449 H   0  0  0  0  0  0  0  0  0  0  0  0
    6.5687   -2.5457   -0.6164 H   0  0  0  0  0  0  0  0  0  0  0  0
    4.5538   -4.6167    0.3894 H   0  0  0  0  0  0  0  0  0  0  0  0
    6.2301   -4.4911    0.8637 H   0  0  0  0  0  0  0  0  0  0  0  0
    4.6884   -3.4596    2.5679 H   0  0  0  0  0  0  0  0  0  0  0  0
    5.8073   -2.2697    1.9329 H   0  0  0  0  0  0  0  0  0  0  0  0
    4.9684   -0.6440    0.3305 H   0  0  0  0  0  0  0  0  0  0  0  0
    3.2785   -0.7101   -0.0812 H   0  0  0  0  0  0  0  0  0  0  0  0
    3.5487   -4.0096   -1.9547 H   0  0  0  0  0  0  0  0  0  0  0  0
    2.5372   -3.2141   -0.7576 H   0  0  0  0  0  0  0  0  0  0  0  0
    1.6790   -2.0131   -2.3830 H   0  0  0  0  0  0  0  0  0  0  0  0
    2.5717   -2.8747   -3.4844 H   0  0  0  0  0  0  0  0  0  0  0  0
  1  2  1  0
  1 12  1  0
  1 13  1  0
  1 14  1  0
  2 11  1  0
  2  3  1  0
  2 15  1  1
  4  3  1  6
  3 16  1  0
  3 17  1  0
  4  9  1  0
  4  5  1  0
  4 10  1  0
  5  6  1  0
  5 18  1  0
  5 19  1  0
  6  7  1  0
  6 20  1  0
  6 21  1  0
  7  8  1  0
  7 22  1  0
  7 23  1  0
  8  9  1  0
  9 24  1  0
  9 25  1  0
 10 11  1  0
 10 26  1  0
 10 27  1  0
 11 28  1  0
 11 29  1  0
M  CHG  1  11   1
M  END
>  <i_m_ct_stereo_status>  (225) 
1

>  <s_m_source_file>  (225) 
/var/tmp/pbs.5076255.sched01/tmpbnv9a_8s/88lo2bg1ru.sdf

>  <i_m_source_file_index>  (225) 
22

>  <i_lp_mmshare_version>  (225) 
48012

>  <i_f3d_flags>  (225) 
0

>  <s_epik_input>  (225) 
W0NIMl0xW05IXVtDQEhdKFtDSDNdKVtDSDJdW0NAXTEyW0NIMl1bQ0gyXVtDSDJdT1tDSDJdMg==

>  <s_epik_cmdline>  (225) 
J2VwaWtfcHl0aG9uJywgJy1waHQnLCAnMi4wJywgJy1waCcsICc3LjAnLCAnLXRuJywgJzgnLCAnLW1hJywgJzIwMCcsICctaW1hZScsICc8aW5maWxlLm1hZT4nLCAnLW9tYWUnLCAnPG91dGZpbGUubWFlPic=

>  <r_lp_tautomer_probability>  (225) 
1

>  <r_epik_Ionization_Penalty>  (225) 
8.10616e-05

>  <r_epik_Ionization_Penalty_Charging>  (225) 
8.10616e-05

>  <r_epik_Ionization_Penalty_Neutral>  (225) 
8.50695e-12

>  <r_epik_State_Penalty>  (225) 
-0

>  <r_epik_Charging_Adjusted_Penalty>  (225) 
8.10616e-05

>  <i_epik_Tot_Q>  (225) 
1

>  <i_epik_Tot_abs_Q>  (225) 
1

>  <s_lp_Force_Field>  (225) 
OPLS3e

>  <r_lp_Energy>  (225) 
15.4622

>  <b_lp_Chiralities_Consistent>  (225) 
1

>  <s_lp_Variant>  (225) 
76:0-1

>  <s_i_glide_gridfile>  (225) 
pfpi4k_grid

>  <i_i_glide_lignum>  (225) 
22

>  <i_i_glide_rotatable_bonds>  (225) 
0

>  <r_i_docking_score>  (225) 
-4.13538

>  <r_i_glide_ligand_efficiency>  (225) 
-0.375943

>  <r_i_glide_ligand_efficiency_sa>  (225) 
-0.83609

>  <r_i_glide_ligand_efficiency_ln>  (225) 
-1.21704

>  <r_i_glide_gscore>  (225) 
-4.13538

>  <r_i_glide_lipo>  (225) 
-0.346212

>  <r_i_glide_hbond>  (225) 
-0.150936

>  <r_i_glide_metal>  (225) 
-0

>  <r_i_glide_rewards>  (225) 
-2.25

>  <r_i_glide_evdw>  (225) 
-16.6839

>  <r_i_glide_ecoul>  (225) 
-3.34163

>  <r_i_glide_erotb>  (225) 
0

>  <r_i_glide_esite>  (225) 
-0.0527887

>  <r_i_glide_emodel>  (225) 
-26.9653

>  <r_i_glide_energy>  (225) 
-20.0255

>  <r_i_glide_einternal>  (225) 
0

>  <r_i_glide_intrahb_reward>  (225) 
-0

>  <i_i_glide_confnum>  (225) 
6

>  <i_i_glide_posenum>  (225) 
24

>  <r_i_glide_eff_state_penalty>  (225) 
0

>  <ligand_id>  (225) 
76

>  <original_smiles>  (225) 
CC1CC2(CCCOC2)CN1

>  <smiles>  (225) 
[H]C([H])([H])C1([H])C([H])([H])C2(C([H])([H])OC([H])([H])C([H])([H])C2([H])[H])C([H])([H])[N+]1([H])[H]

$$$$
78:0:0
     RDKit          3D

 55 60  0  0  1  0  0  0  0  0999 V2000
    4.7164   -2.8358   -3.0736 C   0  0  0  0  0  0  0  0  0  0  0  0
    4.0206   -3.4572   -1.9175 N   0  0  2  0  0  0  0  0  0  0  0  0
    3.1245   -2.4958   -1.2248 C   0  0  0  0  0  0  0  0  0  0  0  0
    2.3985   -3.1641   -0.0510 C   0  0  0  0  0  0  0  0  0  0  0  0
    3.3641   -3.8951    0.9132 C   0  0  1  0  0  0  0  0  0  0  0  0
    4.3495   -2.9176    1.4594 C   0  0  0  0  0  0  0  0  0  0  0  0
    5.5521   -2.5191    0.8604 C   0  0  0  0  0  0  0  0  0  0  0  0
    6.2441   -1.4792    1.5055 C   0  0  0  0  0  0  0  0  0  0  0  0
    5.7204   -0.9194    2.7003 C   0  0  0  0  0  0  0  0  0  0  0  0
    4.5348   -1.4236    3.2863 C   0  0  0  0  0  0  0  0  0  0  0  0
    4.0758   -0.9185    4.4661 O   0  0  0  0  0  0  0  0  0  0  0  0
    3.8368   -2.4707    2.6605 C   0  0  0  0  0  0  0  0  0  0  0  0
    2.7322   -3.1519    3.0766 O   0  0  0  0  0  0  0  0  0  0  0  0
    2.6221   -4.3106    2.2279 C   0  0  2  0  0  0  0  0  0  0  0  0
    3.3046   -5.5162    2.9497 C   0  0  1  0  0  0  0  0  0  0  0  0
    2.5235   -6.0460    4.0760 N   0  0  0  0  0  0  0  0  0  0  0  0
    2.6478   -5.3356    5.3505 C   0  0  0  0  0  0  0  0  0  0  0  0
    1.3224   -6.7836    3.8976 C   0  0  0  0  0  0  0  0  0  0  0  0
    0.6542   -6.8873    2.6489 C   0  0  0  0  0  0  0  0  0  0  0  0
   -0.5195   -7.5334    2.4882 N   0  0  0  0  0  0  0  0  0  0  0  0
   -1.0072   -8.1627    3.5744 C   0  0  0  0  0  0  0  0  0  0  0  0
   -0.3515   -8.1024    4.8211 C   0  0  0  0  0  0  0  0  0  0  0  0
    0.7905   -7.3936    4.9902 N   0  0  0  0  0  0  0  0  0  0  0  0
    3.8326   -6.6092    1.9934 C   0  0  0  0  0  0  0  0  0  0  0  0
    4.7932   -6.0021    0.9568 C   0  0  0  0  0  0  0  0  0  0  0  0
    4.0468   -4.9869    0.0781 C   0  0  2  0  0  0  0  0  0  0  0  0
    4.9047   -4.2441   -0.9928 C   0  0  2  0  0  0  0  0  0  0  0  0
    5.9965   -3.3644   -0.3325 C   0  0  0  0  0  0  0  0  0  0  0  0
    5.3012   -1.9703   -2.7632 H   0  0  0  0  0  0  0  0  0  0  0  0
    3.9862   -2.4870   -3.8019 H   0  0  0  0  0  0  0  0  0  0  0  0
    5.3770   -3.5483   -3.5660 H   0  0  0  0  0  0  0  0  0  0  0  0
    3.6864   -1.6316   -0.8735 H   0  0  0  0  0  0  0  0  0  0  0  0
    2.4021   -2.1144   -1.9438 H   0  0  0  0  0  0  0  0  0  0  0  0
    1.8467   -2.4026    0.4917 H   0  0  0  0  0  0  0  0  0  0  0  0
    1.6753   -3.8692   -0.4656 H   0  0  0  0  0  0  0  0  0  0  0  0
    7.1942   -1.1333    1.1192 H   0  0  0  0  0  0  0  0  0  0  0  0
    6.2606   -0.1340    3.1947 H   0  0  0  0  0  0  0  0  0  0  0  0
    3.2656   -1.3227    4.7335 H   0  0  0  0  0  0  0  0  0  0  0  0
    1.5643   -4.4708    2.0383 H   0  0  0  0  0  0  0  0  0  0  0  0
    4.2195   -5.1216    3.3950 H   0  0  0  0  0  0  0  0  0  0  0  0
    2.6658   -6.0183    6.2013 H   0  0  0  0  0  0  0  0  0  0  0  0
    1.8251   -4.6322    5.4843 H   0  0  0  0  0  0  0  0  0  0  0  0
    3.5739   -4.7613    5.3959 H   0  0  0  0  0  0  0  0  0  0  0  0
    1.0211   -6.4447    1.7413 H   0  0  0  0  0  0  0  0  0  0  0  0
   -1.9250   -8.7167    3.4410 H   0  0  0  0  0  0  0  0  0  0  0  0
   -0.7603   -8.6151    5.6786 H   0  0  0  0  0  0  0  0  0  0  0  0
    4.3653   -7.3708    2.5661 H   0  0  0  0  0  0  0  0  0  0  0  0
    3.0357   -7.1362    1.4743 H   0  0  0  0  0  0  0  0  0  0  0  0
    5.6340   -5.5304    1.4690 H   0  0  0  0  0  0  0  0  0  0  0  0
    5.2105   -6.7955    0.3360 H   0  0  0  0  0  0  0  0  0  0  0  0
    3.2743   -5.5598   -0.4287 H   0  0  0  0  0  0  0  0  0  0  0  0
    5.3945   -4.9897   -1.6157 H   0  0  0  0  0  0  0  0  0  0  0  0
    6.4890   -2.7157   -1.0567 H   0  0  0  0  0  0  0  0  0  0  0  0
    6.7820   -4.0231    0.0292 H   0  0  0  0  0  0  0  0  0  0  0  0
    3.4057   -4.1633   -2.3206 H   0  0  0  0  0  0  0  0  0  0  0  0
  1  2  1  0
  1 29  1  0
  1 30  1  0
  1 31  1  0
  2 27  1  0
  2  3  1  0
  2 55  1  6
  3  4  1  0
  3 32  1  0
  3 33  1  0
  5  4  1  6
  4 34  1  0
  4 35  1  0
  5 14  1  0
  5 26  1  0
  5  6  1  0
  6 12  2  0
  6  7  1  0
  7 28  1  0
  7  8  2  0
  8  9  1  0
  8 36  1  0
  9 10  2  0
  9 37  1  0
 10 11  1  0
 10 12  1  0
 11 38  1  0
 12 13  1  0
 13 14  1  0
 14 15  1  0
 14 39  1  6
 15 16  1  0
 15 24  1  0
 15 40  1  1
 16 17  1  0
 16 18  1  0
 17 41  1  0
 17 42  1  0
 17 43  1  0
 18 23  1  0
 18 19  2  0
 19 20  1  0
 19 44  1  0
 20 21  2  0
 21 22  1  0
 21 45  1  0
 22 23  2  0
 22 46  1  0
 24 25  1  0
 24 47  1  0
 24 48  1  0
 25 26  1  0
 25 49  1  0
 25 50  1  0
 26 27  1  0
 26 51  1  6
 27 28  1  0
 27 52  1  6
 28 53  1  0
 28 54  1  0
M  CHG  1   2   1
M  END
>  <i_m_ct_stereo_status>  (226) 
1

>  <s_m_source_file>  (226) 
/var/tmp/pbs.5076255.sched01/tmpbnv9a_8s/88lo2bg1ru.sdf

>  <i_m_source_file_index>  (226) 
24

>  <i_lp_mmshare_version>  (226) 
48012

>  <i_f3d_flags>  (226) 
0

>  <s_epik_input>  (226) 
W0NIMl0xW0NIMl1OKFtDSDNdKVtDQEBIXShbQ0gyXTIpW0NASF0zW0NIMl1bQ0gyXVtDQEhdKE4oW0NIM10pYzRbY0hdbltjSF1bY0hdbjQpW0NASF01T2M2YyhbT0hdKVtjSF1bY0hdYzJjNltDQEBdMTM1

>  <s_epik_cmdline>  (226) 
J2VwaWtfcHl0aG9uJywgJy1waHQnLCAnMi4wJywgJy1waCcsICc3LjAnLCAnLXRuJywgJzgnLCAnLW1hJywgJzIwMCcsICctaW1hZScsICc8aW5maWxlLm1hZT4nLCAnLW9tYWUnLCAnPG91dGZpbGUubWFlPic=

>  <r_lp_tautomer_probability>  (226) 
1

>  <r_epik_Ionization_Penalty>  (226) 
0.0232714

>  <r_epik_Ionization_Penalty_Charging>  (226) 
0.0152772

>  <r_epik_Ionization_Penalty_Neutral>  (226) 
0.00799428

>  <r_epik_State_Penalty>  (226) 
0.01754

>  <r_epik_Charging_Adjusted_Penalty>  (226) 
0.0328171

>  <i_epik_Tot_Q>  (226) 
1

>  <i_epik_Tot_abs_Q>  (226) 
1

>  <s_lp_Force_Field>  (226) 
OPLS3e

>  <r_lp_Energy>  (226) 
80.8836

>  <b_lp_Chiralities_Consistent>  (226) 
1

>  <s_lp_Variant>  (226) 
78:0-1

>  <s_i_glide_gridfile>  (226) 
pfpi4k_grid

>  <i_i_glide_lignum>  (226) 
24

>  <i_i_glide_rotatable_bonds>  (226) 
3

>  <r_i_docking_score>  (226) 
-3.20759

>  <r_i_glide_ligand_efficiency>  (226) 
-0.114557

>  <r_i_glide_ligand_efficiency_sa>  (226) 
-0.347862

>  <r_i_glide_ligand_efficiency_ln>  (226) 
-0.740405

>  <r_i_glide_gscore>  (226) 
-3.20759

>  <r_i_glide_lipo>  (226) 
-0.697229

>  <r_i_glide_hbond>  (226) 
0

>  <r_i_glide_metal>  (226) 
-0

>  <r_i_glide_rewards>  (226) 
-0.821759

>  <r_i_glide_evdw>  (226) 
-23.8599

>  <r_i_glide_ecoul>  (226) 
-4.91766

>  <r_i_glide_erotb>  (226) 
0.269306

>  <r_i_glide_esite>  (226) 
-0.0272626

>  <r_i_glide_emodel>  (226) 
-34.2516

>  <r_i_glide_energy>  (226) 
-28.7775

>  <r_i_glide_einternal>  (226) 
0.736002

>  <r_i_glide_intrahb_reward>  (226) 
-0

>  <i_i_glide_confnum>  (226) 
3

>  <i_i_glide_posenum>  (226) 
33

>  <r_i_glide_eff_state_penalty>  (226) 
0

>  <ligand_id>  (226) 
78

>  <original_smiles>  (226) 
CN1CCC23c4c5ccc(O)c4OC2C(N(C)c2cnccn2)CCC3C1C5

>  <smiles>  (226) 
[H]Oc1c([H])c([H])c2c3c1OC1([H])C([H])(N(c4nc([H])c([H])nc4[H])C([H])([H])[H])C([H])([H])C([H])([H])C4([H])C31C([H])([H])C([H])([H])[N+]([H])(C([H])([H])[H])C4([H])C2([H])[H]

$$$$
78:0:1
     RDKit          3D

 55 60  0  0  1  0  0  0  0  0999 V2000
    5.2212   -3.0147   -2.7512 C   0  0  0  0  0  0  0  0  0  0  0  0
    4.3817   -3.6407   -1.6956 N   0  0  2  0  0  0  0  0  0  0  0  0
    3.3238   -2.7155   -1.2083 C   0  0  0  0  0  0  0  0  0  0  0  0
    2.4629   -3.3944   -0.1377 C   0  0  0  0  0  0  0  0  0  0  0  0
    3.3055   -4.0012    1.0080 C   0  0  1  0  0  0  0  0  0  0  0  0
    4.1196   -2.9293    1.6592 C   0  0  0  0  0  0  0  0  0  0  0  0
    5.3782   -2.4713    1.2481 C   0  0  0  0  0  0  0  0  0  0  0  0
    5.8927   -1.3637    1.9453 C   0  0  0  0  0  0  0  0  0  0  0  0
    5.1432   -0.7930    3.0074 C   0  0  0  0  0  0  0  0  0  0  0  0
    3.9053   -1.3519    3.4154 C   0  0  0  0  0  0  0  0  0  0  0  0
    3.2229   -0.8262    4.4720 O   0  0  0  0  0  0  0  0  0  0  0  0
    3.3892   -2.4705    2.7370 C   0  0  0  0  0  0  0  0  0  0  0  0
    2.2774   -3.2154    2.9980 O   0  0  0  0  0  0  0  0  0  0  0  0
    2.3972   -4.4130    2.2095 C   0  0  2  0  0  0  0  0  0  0  0  0
    3.0177   -5.5347    3.0976 C   0  0  1  0  0  0  0  0  0  0  0  0
    2.0895   -6.0672    4.1073 N   0  0  0  0  0  0  0  0  0  0  0  0
    1.9885   -5.3192    5.3626 C   0  0  0  0  0  0  0  0  0  0  0  0
    0.9616   -6.8666    3.7731 C   0  0  0  0  0  0  0  0  0  0  0  0
    0.5340   -7.0851    2.4375 C   0  0  0  0  0  0  0  0  0  0  0  0
   -0.5768   -7.7831    2.1223 N   0  0  0  0  0  0  0  0  0  0  0  0
   -1.2364   -8.3534    3.1462 C   0  0  0  0  0  0  0  0  0  0  0  0
   -0.8195   -8.1801    4.4812 C   0  0  0  0  0  0  0  0  0  0  0  0
    0.2542   -7.4172    4.7968 N   0  0  0  0  0  0  0  0  0  0  0  0
    3.7609   -6.6262    2.2966 C   0  0  0  0  0  0  0  0  0  0  0  0
    4.8352   -5.9959    1.3937 C   0  0  0  0  0  0  0  0  0  0  0  0
    4.1803   -5.0777    0.3490 C   0  0  2  0  0  0  0  0  0  0  0  0
    5.1539   -4.3138   -0.5958 C   0  0  2  0  0  0  0  0  0  0  0  0
    6.0615   -3.3290    0.1864 C   0  0  0  0  0  0  0  0  0  0  0  0
    5.6921   -2.0967   -2.3970 H   0  0  0  0  0  0  0  0  0  0  0  0
    4.6034   -2.7471   -3.6078 H   0  0  0  0  0  0  0  0  0  0  0  0
    6.0009   -3.6934   -3.0962 H   0  0  0  0  0  0  0  0  0  0  0  0
    3.7646   -1.8000   -0.8117 H   0  0  0  0  0  0  0  0  0  0  0  0
    2.6983   -2.4007   -2.0438 H   0  0  0  0  0  0  0  0  0  0  0  0
    1.7956   -2.6523    0.2736 H   0  0  0  0  0  0  0  0  0  0  0  0
    1.8388   -4.1539   -0.6112 H   0  0  0  0  0  0  0  0  0  0  0  0
    6.8682   -0.9698    1.6898 H   0  0  0  0  0  0  0  0  0  0  0  0
    5.5478    0.0558    3.5290 H   0  0  0  0  0  0  0  0  0  0  0  0
    3.6288   -0.0490    4.8173 H   0  0  0  0  0  0  0  0  0  0  0  0
    1.4150   -4.6734    1.8465 H   0  0  0  0  0  0  0  0  0  0  0  0
    3.8180   -5.0559    3.6639 H   0  0  0  0  0  0  0  0  0  0  0  0
    1.9059   -5.9802    6.2270 H   0  0  0  0  0  0  0  0  0  0  0  0
    1.1269   -4.6502    5.3497 H   0  0  0  0  0  0  0  0  0  0  0  0
    2.8724   -4.7028    5.5304 H   0  0  0  0  0  0  0  0  0  0  0  0
    1.0428   -6.6937    1.5763 H   0  0  0  0  0  0  0  0  0  0  0  0
   -2.0982   -8.9524    2.8914 H   0  0  0  0  0  0  0  0  0  0  0  0
   -1.3640   -8.6472    5.2873 H   0  0  0  0  0  0  0  0  0  0  0  0
    4.2390   -7.3218    2.9889 H   0  0  0  0  0  0  0  0  0  0  0  0
    3.0964   -7.2321    1.6856 H   0  0  0  0  0  0  0  0  0  0  0  0
    5.5447   -5.4408    2.0099 H   0  0  0  0  0  0  0  0  0  0  0  0
    5.4021   -6.7823    0.8956 H   0  0  0  0  0  0  0  0  0  0  0  0
    3.5540   -5.7235   -0.2691 H   0  0  0  0  0  0  0  0  0  0  0  0
    5.7899   -5.0423   -1.0906 H   0  0  0  0  0  0  0  0  0  0  0  0
    6.6260   -2.6792   -0.4825 H   0  0  0  0  0  0  0  0  0  0  0  0
    6.8155   -3.9178    0.7023 H   0  0  0  0  0  0  0  0  0  0  0  0
    3.8797   -4.4009   -2.1593 H   0  0  0  0  0  0  0  0  0  0  0  0
  1  2  1  0
  1 29  1  0
  1 30  1  0
  1 31  1  0
  2 27  1  0
  2  3  1  0
  2 55  1  6
  3  4  1  0
  3 32  1  0
  3 33  1  0
  5  4  1  6
  4 34  1  0
  4 35  1  0
  5 14  1  0
  5 26  1  0
  5  6  1  0
  6 12  2  0
  6  7  1  0
  7 28  1  0
  7  8  2  0
  8  9  1  0
  8 36  1  0
  9 10  2  0
  9 37  1  0
 10 11  1  0
 10 12  1  0
 11 38  1  0
 12 13  1  0
 13 14  1  0
 14 15  1  0
 14 39  1  6
 15 16  1  0
 15 24  1  0
 15 40  1  1
 16 17  1  0
 16 18  1  0
 17 41  1  0
 17 42  1  0
 17 43  1  0
 18 23  1  0
 18 19  2  0
 19 20  1  0
 19 44  1  0
 20 21  2  0
 21 22  1  0
 21 45  1  0
 22 23  2  0
 22 46  1  0
 24 25  1  0
 24 47  1  0
 24 48  1  0
 25 26  1  0
 25 49  1  0
 25 50  1  0
 26 27  1  0
 26 51  1  6
 27 28  1  0
 27 52  1  6
 28 53  1  0
 28 54  1  0
M  CHG  1   2   1
M  END
>  <i_m_ct_stereo_status>  (227) 
1

>  <s_m_source_file>  (227) 
/var/tmp/pbs.5076255.sched01/tmpbnv9a_8s/88lo2bg1ru.sdf

>  <i_m_source_file_index>  (227) 
24

>  <i_lp_mmshare_version>  (227) 
48012

>  <i_f3d_flags>  (227) 
0

>  <s_epik_input>  (227) 
W0NIMl0xW0NIMl1OKFtDSDNdKVtDQEBIXShbQ0gyXTIpW0NASF0zW0NIMl1bQ0gyXVtDQEhdKE4oW0NIM10pYzRbY0hdbltjSF1bY0hdbjQpW0NASF01T2M2YyhbT0hdKVtjSF1bY0hdYzJjNltDQEBdMTM1

>  <s_epik_cmdline>  (227) 
J2VwaWtfcHl0aG9uJywgJy1waHQnLCAnMi4wJywgJy1waCcsICc3LjAnLCAnLXRuJywgJzgnLCAnLW1hJywgJzIwMCcsICctaW1hZScsICc8aW5maWxlLm1hZT4nLCAnLW9tYWUnLCAnPG91dGZpbGUubWFlPic=

>  <r_lp_tautomer_probability>  (227) 
1

>  <r_epik_Ionization_Penalty>  (227) 
0.0232714

>  <r_epik_Ionization_Penalty_Charging>  (227) 
0.0152772

>  <r_epik_Ionization_Penalty_Neutral>  (227) 
0.00799428

>  <r_epik_State_Penalty>  (227) 
0.01754

>  <r_epik_Charging_Adjusted_Penalty>  (227) 
0.0328171

>  <i_epik_Tot_Q>  (227) 
1

>  <i_epik_Tot_abs_Q>  (227) 
1

>  <s_lp_Force_Field>  (227) 
OPLS3e

>  <r_lp_Energy>  (227) 
80.8836

>  <b_lp_Chiralities_Consistent>  (227) 
1

>  <s_lp_Variant>  (227) 
78:0-1

>  <s_i_glide_gridfile>  (227) 
pfpi4k_grid

>  <i_i_glide_lignum>  (227) 
24

>  <i_i_glide_rotatable_bonds>  (227) 
3

>  <r_i_docking_score>  (227) 
-3.17041

>  <r_i_glide_ligand_efficiency>  (227) 
-0.113229

>  <r_i_glide_ligand_efficiency_sa>  (227) 
-0.34383

>  <r_i_glide_ligand_efficiency_ln>  (227) 
-0.731823

>  <r_i_glide_gscore>  (227) 
-3.17041

>  <r_i_glide_lipo>  (227) 
-0.793201

>  <r_i_glide_hbond>  (227) 
0

>  <r_i_glide_metal>  (227) 
-0

>  <r_i_glide_rewards>  (227) 
-0.821759

>  <r_i_glide_evdw>  (227) 
-25.4801

>  <r_i_glide_ecoul>  (227) 
-3.514

>  <r_i_glide_erotb>  (227) 
0.269306

>  <r_i_glide_esite>  (227) 
-0.0236483

>  <r_i_glide_emodel>  (227) 
-34.4488

>  <r_i_glide_energy>  (227) 
-28.9941

>  <r_i_glide_einternal>  (227) 
0.656572

>  <r_i_glide_intrahb_reward>  (227) 
-0

>  <i_i_glide_confnum>  (227) 
3

>  <i_i_glide_posenum>  (227) 
28

>  <r_i_glide_eff_state_penalty>  (227) 
0

>  <ligand_id>  (227) 
78

>  <original_smiles>  (227) 
CN1CCC23c4c5ccc(O)c4OC2C(N(C)c2cnccn2)CCC3C1C5

>  <smiles>  (227) 
[H]Oc1c([H])c([H])c2c3c1OC1([H])C([H])(N(c4nc([H])c([H])nc4[H])C([H])([H])[H])C([H])([H])C([H])([H])C4([H])C31C([H])([H])C([H])([H])[N+]([H])(C([H])([H])[H])C4([H])C2([H])[H]

$$$$
78:0:2
     RDKit          3D

 55 60  0  0  1  0  0  0  0  0999 V2000
    8.4517   -6.2021    3.8109 C   0  0  0  0  0  0  0  0  0  0  0  0
    7.0349   -6.6525    3.8178 N   0  0  2  0  0  0  0  0  0  0  0  0
    6.6554   -7.2537    5.1237 C   0  0  0  0  0  0  0  0  0  0  0  0
    5.1813   -7.6958    5.1306 C   0  0  0  0  0  0  0  0  0  0  0  0
    4.8451   -8.6016    3.9145 C   0  0  1  0  0  0  0  0  0  0  0  0
    5.7112   -9.8219    3.9391 C   0  0  0  0  0  0  0  0  0  0  0  0
    7.0019   -9.9437    3.4065 C   0  0  0  0  0  0  0  0  0  0  0  0
    7.6704  -11.1556    3.6702 C   0  0  0  0  0  0  0  0  0  0  0  0
    7.0146  -12.1662    4.4196 C   0  0  0  0  0  0  0  0  0  0  0  0
    5.6790  -12.0002    4.8650 C   0  0  0  0  0  0  0  0  0  0  0  0
    5.0488  -12.9979    5.5450 O   0  0  0  0  0  0  0  0  0  0  0  0
    4.9947  -10.8000    4.5951 C   0  0  0  0  0  0  0  0  0  0  0  0
    3.7028  -10.4425    4.8622 O   0  0  0  0  0  0  0  0  0  0  0  0
    3.4373   -9.2503    4.0978 C   0  0  2  0  0  0  0  0  0  0  0  0
    2.7822   -9.6755    2.7468 C   0  0  1  0  0  0  0  0  0  0  0  0
    1.3860  -10.1170    2.8597 N   0  0  0  0  0  0  0  0  0  0  0  0
    1.1606  -11.4925    3.2953 C   0  0  0  0  0  0  0  0  0  0  0  0
    0.3256   -9.2246    3.1373 C   0  0  0  0  0  0  0  0  0  0  0  0
   -0.9797   -9.4539    2.6336 C   0  0  0  0  0  0  0  0  0  0  0  0
   -2.0136   -8.6154    2.8863 N   0  0  0  0  0  0  0  0  0  0  0  0
   -1.7564   -7.5713    3.6990 C   0  0  0  0  0  0  0  0  0  0  0  0
   -0.4658   -7.3308    4.2087 C   0  0  0  0  0  0  0  0  0  0  0  0
    0.5721   -8.1359    3.9050 N   0  0  0  0  0  0  0  0  0  0  0  0
    2.9935   -8.6569    1.6153 C   0  0  0  0  0  0  0  0  0  0  0  0
    4.4959   -8.3884    1.4006 C   0  0  0  0  0  0  0  0  0  0  0  0
    5.0997   -7.7434    2.6615 C   0  0  2  0  0  0  0  0  0  0  0  0
    6.6307   -7.4693    2.6276 C   0  0  2  0  0  0  0  0  0  0  0  0
    7.4409   -8.7828    2.5140 C   0  0  0  0  0  0  0  0  0  0  0  0
    9.1457   -7.0164    4.0316 H   0  0  0  0  0  0  0  0  0  0  0  0
    8.6042   -5.4453    4.5806 H   0  0  0  0  0  0  0  0  0  0  0  0
    8.7276   -5.7630    2.8510 H   0  0  0  0  0  0  0  0  0  0  0  0
    7.2999   -8.1020    5.3586 H   0  0  0  0  0  0  0  0  0  0  0  0
    6.8178   -6.5245    5.9172 H   0  0  0  0  0  0  0  0  0  0  0  0
    4.9670   -8.2107    6.0699 H   0  0  0  0  0  0  0  0  0  0  0  0
    4.5379   -6.8103    5.1231 H   0  0  0  0  0  0  0  0  0  0  0  0
    8.6663  -11.3167    3.2837 H   0  0  0  0  0  0  0  0  0  0  0  0
    7.5391  -13.0823    4.6253 H   0  0  0  0  0  0  0  0  0  0  0  0
    5.5710  -13.7750    5.6568 H   0  0  0  0  0  0  0  0  0  0  0  0
    2.8217   -8.5734    4.6834 H   0  0  0  0  0  0  0  0  0  0  0  0
    3.3279  -10.5533    2.3981 H   0  0  0  0  0  0  0  0  0  0  0  0
    0.3261  -11.9548    2.7683 H   0  0  0  0  0  0  0  0  0  0  0  0
    0.9830  -11.5508    4.3711 H   0  0  0  0  0  0  0  0  0  0  0  0
    2.0347  -12.1081    3.0807 H   0  0  0  0  0  0  0  0  0  0  0  0
   -1.2036  -10.2951    1.9994 H   0  0  0  0  0  0  0  0  0  0  0  0
   -2.5775   -6.9152    3.9498 H   0  0  0  0  0  0  0  0  0  0  0  0
   -0.2635   -6.4896    4.8547 H   0  0  0  0  0  0  0  0  0  0  0  0
    2.5780   -9.0706    0.6970 H   0  0  0  0  0  0  0  0  0  0  0  0
    2.4618   -7.7270    1.8145 H   0  0  0  0  0  0  0  0  0  0  0  0
    5.0017   -9.3279    1.1626 H   0  0  0  0  0  0  0  0  0  0  0  0
    4.6420   -7.7374    0.5381 H   0  0  0  0  0  0  0  0  0  0  0  0
    4.5909   -6.7860    2.7734 H   0  0  0  0  0  0  0  0  0  0  0  0
    6.8593   -6.8615    1.7548 H   0  0  0  0  0  0  0  0  0  0  0  0
    8.5059   -8.6129    2.6665 H   0  0  0  0  0  0  0  0  0  0  0  0
    7.3515   -9.1318    1.4869 H   0  0  0  0  0  0  0  0  0  0  0  0
    6.4872   -5.8055    3.7467 H   0  0  0  0  0  0  0  0  0  0  0  0
  1  2  1  0
  1 29  1  0
  1 30  1  0
  1 31  1  0
  2 27  1  0
  2  3  1  0
  2 55  1  6
  3  4  1  0
  3 32  1  0
  3 33  1  0
  5  4  1  1
  4 34  1  0
  4 35  1  0
  5 14  1  0
  5 26  1  0
  5  6  1  0
  6 12  2  0
  6  7  1  0
  7 28  1  0
  7  8  2  0
  8  9  1  0
  8 36  1  0
  9 10  2  0
  9 37  1  0
 10 11  1  0
 10 12  1  0
 11 38  1  0
 12 13  1  0
 13 14  1  0
 14 15  1  0
 14 39  1  1
 15 16  1  0
 15 24  1  0
 15 40  1  6
 16 17  1  0
 16 18  1  0
 17 41  1  0
 17 42  1  0
 17 43  1  0
 18 23  1  0
 18 19  2  0
 19 20  1  0
 19 44  1  0
 20 21  2  0
 21 22  1  0
 21 45  1  0
 22 23  2  0
 22 46  1  0
 24 25  1  0
 24 47  1  0
 24 48  1  0
 25 26  1  0
 25 49  1  0
 25 50  1  0
 26 27  1  0
 26 51  1  1
 27 28  1  0
 27 52  1  6
 28 53  1  0
 28 54  1  0
M  CHG  1   2   1
M  END
>  <i_m_ct_stereo_status>  (228) 
1

>  <s_m_source_file>  (228) 
/var/tmp/pbs.5076255.sched01/tmpbnv9a_8s/88lo2bg1ru.sdf

>  <i_m_source_file_index>  (228) 
24

>  <i_lp_mmshare_version>  (228) 
48012

>  <i_f3d_flags>  (228) 
0

>  <s_epik_input>  (228) 
W0NIMl0xW0NIMl1OKFtDSDNdKVtDQEBIXShbQ0gyXTIpW0NASF0zW0NIMl1bQ0gyXVtDQEhdKE4oW0NIM10pYzRbY0hdbltjSF1bY0hdbjQpW0NASF01T2M2YyhbT0hdKVtjSF1bY0hdYzJjNltDQEBdMTM1

>  <s_epik_cmdline>  (228) 
J2VwaWtfcHl0aG9uJywgJy1waHQnLCAnMi4wJywgJy1waCcsICc3LjAnLCAnLXRuJywgJzgnLCAnLW1hJywgJzIwMCcsICctaW1hZScsICc8aW5maWxlLm1hZT4nLCAnLW9tYWUnLCAnPG91dGZpbGUubWFlPic=

>  <r_lp_tautomer_probability>  (228) 
1

>  <r_epik_Ionization_Penalty>  (228) 
0.0232714

>  <r_epik_Ionization_Penalty_Charging>  (228) 
0.0152772

>  <r_epik_Ionization_Penalty_Neutral>  (228) 
0.00799428

>  <r_epik_State_Penalty>  (228) 
0.01754

>  <r_epik_Charging_Adjusted_Penalty>  (228) 
0.0328171

>  <i_epik_Tot_Q>  (228) 
1

>  <i_epik_Tot_abs_Q>  (228) 
1

>  <s_lp_Force_Field>  (228) 
OPLS3e

>  <r_lp_Energy>  (228) 
80.8836

>  <b_lp_Chiralities_Consistent>  (228) 
1

>  <s_lp_Variant>  (228) 
78:0-1

>  <s_i_glide_gridfile>  (228) 
pfpi4k_grid

>  <i_i_glide_lignum>  (228) 
24

>  <i_i_glide_rotatable_bonds>  (228) 
3

>  <r_i_docking_score>  (228) 
-2.28773

>  <r_i_glide_ligand_efficiency>  (228) 
-0.0817045

>  <r_i_glide_ligand_efficiency_sa>  (228) 
-0.248103

>  <r_i_glide_ligand_efficiency_ln>  (228) 
-0.528074

>  <r_i_glide_gscore>  (228) 
-2.28773

>  <r_i_glide_lipo>  (228) 
-0.393502

>  <r_i_glide_hbond>  (228) 
0

>  <r_i_glide_metal>  (228) 
-0

>  <r_i_glide_rewards>  (228) 
-0.821759

>  <r_i_glide_evdw>  (228) 
-25.5713

>  <r_i_glide_ecoul>  (228) 
-0.421365

>  <r_i_glide_erotb>  (228) 
0.269306

>  <r_i_glide_esite>  (228) 
0

>  <r_i_glide_emodel>  (228) 
-28.6745

>  <r_i_glide_energy>  (228) 
-25.9927

>  <r_i_glide_einternal>  (228) 
2.55797

>  <r_i_glide_intrahb_reward>  (228) 
-0

>  <i_i_glide_confnum>  (228) 
3

>  <i_i_glide_posenum>  (228) 
9

>  <r_i_glide_eff_state_penalty>  (228) 
0

>  <ligand_id>  (228) 
78

>  <original_smiles>  (228) 
CN1CCC23c4c5ccc(O)c4OC2C(N(C)c2cnccn2)CCC3C1C5

>  <smiles>  (228) 
[H]Oc1c([H])c([H])c2c3c1OC1([H])C([H])(N(c4nc([H])c([H])nc4[H])C([H])([H])[H])C([H])([H])C([H])([H])C4([H])C31C([H])([H])C([H])([H])[N+]([H])(C([H])([H])[H])C4([H])C2([H])[H]

$$$$
78:1:0
     RDKit          3D

 54 59  0  0  1  0  0  0  0  0999 V2000
    5.1907   -8.6542    2.6144 C   0  0  0  0  0  0  0  0  0  0  0  0
    4.7473   -7.4042    3.2184 N   0  0  0  0  0  0  0  0  0  0  0  0
    5.8675   -6.5845    3.6982 C   0  0  0  0  0  0  0  0  0  0  0  0
    6.4796   -5.7051    2.5976 C   0  0  0  0  0  0  0  0  0  0  0  0
    5.4050   -4.8827    1.8520 C   0  0  1  0  0  0  0  0  0  0  0  0
    4.6548   -3.9943    2.7940 C   0  0  0  0  0  0  0  0  0  0  0  0
    3.5381   -4.3506    3.5669 C   0  0  0  0  0  0  0  0  0  0  0  0
    3.0471   -3.3527    4.4304 C   0  0  0  0  0  0  0  0  0  0  0  0
    3.6876   -2.0885    4.4926 C   0  0  0  0  0  0  0  0  0  0  0  0
    4.7822   -1.7794    3.6386 C   0  0  0  0  0  0  0  0  0  0  0  0
    5.3657   -0.5469    3.6785 O   0  0  0  0  0  0  0  0  0  0  0  0
    5.2425   -2.7491    2.7370 C   0  0  0  0  0  0  0  0  0  0  0  0
    6.2123   -2.6495    1.7605 O   0  0  0  0  0  0  0  0  0  0  0  0
    6.0471   -3.8076    0.9135 C   0  0  2  0  0  0  0  0  0  0  0  0
    5.1212   -3.3565   -0.2655 C   0  0  1  0  0  0  0  0  0  0  0  0
    5.8156   -2.5263   -1.2778 N   0  0  0  0  0  0  0  0  0  0  0  0
    7.1157   -2.9419   -1.7949 C   0  0  0  0  0  0  0  0  0  0  0  0
    4.9837   -2.0173   -2.2947 C   0  0  0  0  0  0  0  0  0  0  0  0
    4.5249   -2.8346   -3.3598 C   0  0  0  0  0  0  0  0  0  0  0  0
    3.6871   -2.3740   -4.3150 N   0  0  0  0  0  0  0  0  0  0  0  0
    3.3589   -1.0677   -4.2640 C   0  0  0  0  0  0  0  0  0  0  0  0
    3.8455   -0.2326   -3.2482 C   0  0  0  0  0  0  0  0  0  0  0  0
    4.6454   -0.6981   -2.2528 N   0  0  0  0  0  0  0  0  0  0  0  0
    4.3722   -4.5654   -0.8574 C   0  0  0  0  0  0  0  0  0  0  0  0
    3.5650   -5.3205    0.1899 C   0  0  0  0  0  0  0  0  0  0  0  0
    4.4987   -5.9439    1.2179 C   0  0  2  0  0  0  0  0  0  0  0  0
    3.7797   -6.6842    2.3755 C   0  0  2  0  0  0  0  0  0  0  0  0
    2.9482   -5.7300    3.2703 C   0  0  0  0  0  0  0  0  0  0  0  0
    5.7931   -9.2137    3.3319 H   0  0  0  0  0  0  0  0  0  0  0  0
    5.7844   -8.4989    1.7107 H   0  0  0  0  0  0  0  0  0  0  0  0
    4.3271   -9.2761    2.3631 H   0  0  0  0  0  0  0  0  0  0  0  0
    5.5118   -5.9466    4.5064 H   0  0  0  0  0  0  0  0  0  0  0  0
    6.6251   -7.2266    4.1388 H   0  0  0  0  0  0  0  0  0  0  0  0
    7.2351   -5.0527    3.0412 H   0  0  0  0  0  0  0  0  0  0  0  0
    7.0262   -6.3255    1.8933 H   0  0  0  0  0  0  0  0  0  0  0  0
    2.1820   -3.5524    5.0414 H   0  0  0  0  0  0  0  0  0  0  0  0
    3.3247   -1.3488    5.1812 H   0  0  0  0  0  0  0  0  0  0  0  0
    4.9326    0.0368    4.2804 H   0  0  0  0  0  0  0  0  0  0  0  0
    7.0028   -4.2109    0.5660 H   0  0  0  0  0  0  0  0  0  0  0  0
    4.3358   -2.7152    0.1520 H   0  0  0  0  0  0  0  0  0  0  0  0
    7.5655   -2.1643   -2.4061 H   0  0  0  0  0  0  0  0  0  0  0  0
    7.0086   -3.8555   -2.3975 H   0  0  0  0  0  0  0  0  0  0  0  0
    7.8139   -3.1263   -0.9883 H   0  0  0  0  0  0  0  0  0  0  0  0
    4.8108   -3.8693   -3.4697 H   0  0  0  0  0  0  0  0  0  0  0  0
    2.7275   -0.6779   -5.0559 H   0  0  0  0  0  0  0  0  0  0  0  0
    3.6206    0.8281   -3.2690 H   0  0  0  0  0  0  0  0  0  0  0  0
    3.6149   -4.2319   -1.5587 H   0  0  0  0  0  0  0  0  0  0  0  0
    5.0660   -5.2380   -1.3635 H   0  0  0  0  0  0  0  0  0  0  0  0
    2.8623   -4.6277    0.6527 H   0  0  0  0  0  0  0  0  0  0  0  0
    2.9792   -6.0941   -0.3011 H   0  0  0  0  0  0  0  0  0  0  0  0
    5.1077   -6.6521    0.6556 H   0  0  0  0  0  0  0  0  0  0  0  0
    3.0915   -7.4219    1.9583 H   0  0  0  0  0  0  0  0  0  0  0  0
    2.7075   -6.2250    4.2100 H   0  0  0  0  0  0  0  0  0  0  0  0
    2.0064   -5.5450    2.7643 H   0  0  0  0  0  0  0  0  0  0  0  0
  1  2  1  0
  1 29  1  0
  1 30  1  0
  1 31  1  0
  2 27  1  0
  2  3  1  0
  3  4  1  0
  3 32  1  0
  3 33  1  0
  5  4  1  1
  4 34  1  0
  4 35  1  0
  5 14  1  0
  5 26  1  0
  5  6  1  0
  6 12  2  0
  6  7  1  0
  7 28  1  0
  7  8  2  0
  8  9  1  0
  8 36  1  0
  9 10  2  0
  9 37  1  0
 10 11  1  0
 10 12  1  0
 11 38  1  0
 12 13  1  0
 13 14  1  0
 14 15  1  0
 14 39  1  6
 15 16  1  0
 15 24  1  0
 15 40  1  1
 16 17  1  0
 16 18  1  0
 17 41  1  0
 17 42  1  0
 17 43  1  0
 18 23  1  0
 18 19  2  0
 19 20  1  0
 19 44  1  0
 20 21  2  0
 21 22  1  0
 21 45  1  0
 22 23  2  0
 22 46  1  0
 24 25  1  0
 24 47  1  0
 24 48  1  0
 25 26  1  0
 25 49  1  0
 25 50  1  0
 26 27  1  0
 26 51  1  6
 27 28  1  0
 27 52  1  6
 28 53  1  0
 28 54  1  0
M  END
>  <i_m_ct_stereo_status>  (229) 
1

>  <s_m_source_file>  (229) 
/var/tmp/pbs.5076255.sched01/tmpbnv9a_8s/88lo2bg1ru.sdf

>  <i_m_source_file_index>  (229) 
25

>  <i_lp_mmshare_version>  (229) 
48012

>  <i_f3d_flags>  (229) 
0

>  <s_epik_input>  (229) 
W0NIMl0xW0NIMl1OKFtDSDNdKVtDQEBIXShbQ0gyXTIpW0NASF0zW0NIMl1bQ0gyXVtDQEhdKE4oW0NIM10pYzRbY0hdbltjSF1bY0hdbjQpW0NASF01T2M2YyhbT0hdKVtjSF1bY0hdYzJjNltDQEBdMTM1

>  <s_epik_cmdline>  (229) 
J2VwaWtfcHl0aG9uJywgJy1waHQnLCAnMi4wJywgJy1waCcsICc3LjAnLCAnLXRuJywgJzgnLCAnLW1hJywgJzIwMCcsICctaW1hZScsICc8aW5maWxlLm1hZT4nLCAnLW9tYWUnLCAnPG91dGZpbGUubWFlPic=

>  <r_lp_tautomer_probability>  (229) 
1

>  <r_epik_Ionization_Penalty>  (229) 
2.17673

>  <r_epik_Ionization_Penalty_Charging>  (229) 
0

>  <r_epik_Ionization_Penalty_Neutral>  (229) 
2.17673

>  <r_epik_State_Penalty>  (229) 
2.32205

>  <r_epik_Charging_Adjusted_Penalty>  (229) 
2.32205

>  <i_epik_Tot_Q>  (229) 
0

>  <i_epik_Tot_abs_Q>  (229) 
0

>  <s_lp_Force_Field>  (229) 
OPLS3e

>  <r_lp_Energy>  (229) 
80.1535

>  <b_lp_Chiralities_Consistent>  (229) 
1

>  <s_lp_Variant>  (229) 
78:0-2

>  <s_i_glide_gridfile>  (229) 
pfpi4k_grid

>  <i_i_glide_lignum>  (229) 
25

>  <i_i_glide_rotatable_bonds>  (229) 
3

>  <r_i_docking_score>  (229) 
-3.31003

>  <r_i_glide_ligand_efficiency>  (229) 
-0.118215

>  <r_i_glide_ligand_efficiency_sa>  (229) 
-0.358971

>  <r_i_glide_ligand_efficiency_ln>  (229) 
-0.764052

>  <r_i_glide_gscore>  (229) 
-3.31003

>  <r_i_glide_lipo>  (229) 
-0.747595

>  <r_i_glide_hbond>  (229) 
-0.32

>  <r_i_glide_metal>  (229) 
-0

>  <r_i_glide_rewards>  (229) 
-0.828631

>  <r_i_glide_evdw>  (229) 
-24.8562

>  <r_i_glide_ecoul>  (229) 
-2.8102

>  <r_i_glide_erotb>  (229) 
0.270592

>  <r_i_glide_esite>  (229) 
-0.0200546

>  <r_i_glide_emodel>  (229) 
-29.7252

>  <r_i_glide_energy>  (229) 
-27.6664

>  <r_i_glide_einternal>  (229) 
6.81939

>  <r_i_glide_intrahb_reward>  (229) 
-0

>  <i_i_glide_confnum>  (229) 
4

>  <i_i_glide_posenum>  (229) 
2

>  <r_i_glide_eff_state_penalty>  (229) 
0

>  <ligand_id>  (229) 
78

>  <original_smiles>  (229) 
CN1CCC23c4c5ccc(O)c4OC2C(N(C)c2cnccn2)CCC3C1C5

>  <smiles>  (229) 
[H]Oc1c([H])c([H])c2c3c1OC1([H])C([H])(N(c4nc([H])c([H])nc4[H])C([H])([H])[H])C([H])([H])C([H])([H])C4([H])C([H])(N(C([H])([H])[H])C([H])([H])C([H])([H])C314)C2([H])[H]

$$$$
78:1:1
     RDKit          3D

 54 59  0  0  1  0  0  0  0  0999 V2000
    2.5559   -3.3286    7.3092 C   0  0  0  0  0  0  0  0  0  0  0  0
    1.8292   -2.2963    6.5846 N   0  0  0  0  0  0  0  0  0  0  0  0
    2.5884   -1.0420    6.4846 C   0  0  0  0  0  0  0  0  0  0  0  0
    3.5755   -1.0132    5.2960 C   0  0  0  0  0  0  0  0  0  0  0  0
    2.8863   -1.4330    3.9723 C   0  0  1  0  0  0  0  0  0  0  0  0
    1.7460   -0.5062    3.6618 C   0  0  0  0  0  0  0  0  0  0  0  0
    0.4222   -0.6104    4.1302 C   0  0  0  0  0  0  0  0  0  0  0  0
   -0.4567    0.4260    3.7497 C   0  0  0  0  0  0  0  0  0  0  0  0
    0.0246    1.5018    2.9660 C   0  0  0  0  0  0  0  0  0  0  0  0
    1.3661    1.5266    2.5215 C   0  0  0  0  0  0  0  0  0  0  0  0
    1.8146    2.5856    1.8179 O   0  0  0  0  0  0  0  0  0  0  0  0
    2.2512    0.4606    2.8208 C   0  0  0  0  0  0  0  0  0  0  0  0
    3.5230    0.2150    2.4014 O   0  0  0  0  0  0  0  0  0  0  0  0
    3.8126   -1.1648    2.7276 C   0  0  2  0  0  0  0  0  0  0  0  0
    3.4307   -2.0502    1.4866 C   0  0  1  0  0  0  0  0  0  0  0  0
    4.4232   -1.9991    0.3961 N   0  0  0  0  0  0  0  0  0  0  0  0
    5.7650   -2.5188    0.6464 C   0  0  0  0  0  0  0  0  0  0  0  0
    3.9660   -2.2507   -0.9212 C   0  0  0  0  0  0  0  0  0  0  0  0
    4.6427   -1.7144   -2.0585 C   0  0  0  0  0  0  0  0  0  0  0  0
    4.2377   -1.9575   -3.3271 N   0  0  0  0  0  0  0  0  0  0  0  0
    3.1439   -2.7296   -3.4762 C   0  0  0  0  0  0  0  0  0  0  0  0
    2.4608   -3.2600   -2.3580 C   0  0  0  0  0  0  0  0  0  0  0  0
    2.8820   -3.0387   -1.1018 N   0  0  0  0  0  0  0  0  0  0  0  0
    3.1205   -3.5056    1.9240 C   0  0  0  0  0  0  0  0  0  0  0  0
    1.9604   -3.5359    2.9211 C   0  0  0  0  0  0  0  0  0  0  0  0
    2.3979   -2.8626    4.2223 C   0  0  2  0  0  0  0  0  0  0  0  0
    1.2856   -2.7845    5.3038 C   0  0  2  0  0  0  0  0  0  0  0  0
    0.1025   -1.8812    4.8940 C   0  0  0  0  0  0  0  0  0  0  0  0
    2.8229   -2.9670    8.3028 H   0  0  0  0  0  0  0  0  0  0  0  0
    3.4690   -3.6344    6.7965 H   0  0  0  0  0  0  0  0  0  0  0  0
    1.9214   -4.2080    7.4454 H   0  0  0  0  0  0  0  0  0  0  0  0
    1.8877   -0.2148    6.3804 H   0  0  0  0  0  0  0  0  0  0  0  0
    3.1163   -0.8614    7.4200 H   0  0  0  0  0  0  0  0  0  0  0  0
    4.0109   -0.0164    5.2155 H   0  0  0  0  0  0  0  0  0  0  0  0
    4.4098   -1.6849    5.5040 H   0  0  0  0  0  0  0  0  0  0  0  0
   -1.4906    0.4136    4.0591 H   0  0  0  0  0  0  0  0  0  0  0  0
   -0.6245    2.3128    2.6980 H   0  0  0  0  0  0  0  0  0  0  0  0
    1.1338    3.1671    1.4430 H   0  0  0  0  0  0  0  0  0  0  0  0
    4.8560   -1.2901    3.0171 H   0  0  0  0  0  0  0  0  0  0  0  0
    2.5064   -1.6277    1.0871 H   0  0  0  0  0  0  0  0  0  0  0  0
    6.4731   -2.2441   -0.1341 H   0  0  0  0  0  0  0  0  0  0  0  0
    5.7313   -3.6081    0.7131 H   0  0  0  0  0  0  0  0  0  0  0  0
    6.1703   -2.1469    1.5873 H   0  0  0  0  0  0  0  0  0  0  0  0
    5.5067   -1.0780   -1.9477 H   0  0  0  0  0  0  0  0  0  0  0  0
    2.8084   -2.9600   -4.4784 H   0  0  0  0  0  0  0  0  0  0  0  0
    1.6014   -3.8998   -2.4685 H   0  0  0  0  0  0  0  0  0  0  0  0
    2.8349   -4.1496    1.0945 H   0  0  0  0  0  0  0  0  0  0  0  0
    4.0107   -3.9654    2.3550 H   0  0  0  0  0  0  0  0  0  0  0  0
    1.0949   -3.0236    2.4988 H   0  0  0  0  0  0  0  0  0  0  0  0
    1.6717   -4.5705    3.1040 H   0  0  0  0  0  0  0  0  0  0  0  0
    3.2262   -3.4670    4.5918 H   0  0  0  0  0  0  0  0  0  0  0  0
    0.8853   -3.7824    5.4791 H   0  0  0  0  0  0  0  0  0  0  0  0
   -0.5002   -1.6260    5.7681 H   0  0  0  0  0  0  0  0  0  0  0  0
   -0.5487   -2.4605    4.2375 H   0  0  0  0  0  0  0  0  0  0  0  0
  1  2  1  0
  1 29  1  0
  1 30  1  0
  1 31  1  0
  2 27  1  0
  2  3  1  0
  3  4  1  0
  3 32  1  0
  3 33  1  0
  5  4  1  1
  4 34  1  0
  4 35  1  0
  5 14  1  0
  5 26  1  0
  5  6  1  0
  6 12  2  0
  6  7  1  0
  7 28  1  0
  7  8  2  0
  8  9  1  0
  8 36  1  0
  9 10  2  0
  9 37  1  0
 10 11  1  0
 10 12  1  0
 11 38  1  0
 12 13  1  0
 13 14  1  0
 14 15  1  0
 14 39  1  1
 15 16  1  0
 15 24  1  0
 15 40  1  6
 16 17  1  0
 16 18  1  0
 17 41  1  0
 17 42  1  0
 17 43  1  0
 18 23  1  0
 18 19  2  0
 19 20  1  0
 19 44  1  0
 20 21  2  0
 21 22  1  0
 21 45  1  0
 22 23  2  0
 22 46  1  0
 24 25  1  0
 24 47  1  0
 24 48  1  0
 25 26  1  0
 25 49  1  0
 25 50  1  0
 26 27  1  0
 26 51  1  1
 27 28  1  0
 27 52  1  1
 28 53  1  0
 28 54  1  0
M  END
>  <i_m_ct_stereo_status>  (230) 
1

>  <s_m_source_file>  (230) 
/var/tmp/pbs.5076255.sched01/tmpbnv9a_8s/88lo2bg1ru.sdf

>  <i_m_source_file_index>  (230) 
25

>  <i_lp_mmshare_version>  (230) 
48012

>  <i_f3d_flags>  (230) 
0

>  <s_epik_input>  (230) 
W0NIMl0xW0NIMl1OKFtDSDNdKVtDQEBIXShbQ0gyXTIpW0NASF0zW0NIMl1bQ0gyXVtDQEhdKE4oW0NIM10pYzRbY0hdbltjSF1bY0hdbjQpW0NASF01T2M2YyhbT0hdKVtjSF1bY0hdYzJjNltDQEBdMTM1

>  <s_epik_cmdline>  (230) 
J2VwaWtfcHl0aG9uJywgJy1waHQnLCAnMi4wJywgJy1waCcsICc3LjAnLCAnLXRuJywgJzgnLCAnLW1hJywgJzIwMCcsICctaW1hZScsICc8aW5maWxlLm1hZT4nLCAnLW9tYWUnLCAnPG91dGZpbGUubWFlPic=

>  <r_lp_tautomer_probability>  (230) 
1

>  <r_epik_Ionization_Penalty>  (230) 
2.17673

>  <r_epik_Ionization_Penalty_Charging>  (230) 
0

>  <r_epik_Ionization_Penalty_Neutral>  (230) 
2.17673

>  <r_epik_State_Penalty>  (230) 
2.32205

>  <r_epik_Charging_Adjusted_Penalty>  (230) 
2.32205

>  <i_epik_Tot_Q>  (230) 
0

>  <i_epik_Tot_abs_Q>  (230) 
0

>  <s_lp_Force_Field>  (230) 
OPLS3e

>  <r_lp_Energy>  (230) 
80.1535

>  <b_lp_Chiralities_Consistent>  (230) 
1

>  <s_lp_Variant>  (230) 
78:0-2

>  <s_i_glide_gridfile>  (230) 
pfpi4k_grid

>  <i_i_glide_lignum>  (230) 
25

>  <i_i_glide_rotatable_bonds>  (230) 
3

>  <r_i_docking_score>  (230) 
-3.00237

>  <r_i_glide_ligand_efficiency>  (230) 
-0.107227

>  <r_i_glide_ligand_efficiency_sa>  (230) 
-0.325606

>  <r_i_glide_ligand_efficiency_ln>  (230) 
-0.693035

>  <r_i_glide_gscore>  (230) 
-3.00237

>  <r_i_glide_lipo>  (230) 
-0.376146

>  <r_i_glide_hbond>  (230) 
0

>  <r_i_glide_metal>  (230) 
-0

>  <r_i_glide_rewards>  (230) 
-0.828631

>  <r_i_glide_evdw>  (230) 
-24.2202

>  <r_i_glide_ecoul>  (230) 
-5.67006

>  <r_i_glide_erotb>  (230) 
0.270592

>  <r_i_glide_esite>  (230) 
-0.00666259

>  <r_i_glide_emodel>  (230) 
-34.1033

>  <r_i_glide_energy>  (230) 
-29.8903

>  <r_i_glide_einternal>  (230) 
1.81411

>  <r_i_glide_intrahb_reward>  (230) 
-0

>  <i_i_glide_confnum>  (230) 
2

>  <i_i_glide_posenum>  (230) 
24

>  <r_i_glide_eff_state_penalty>  (230) 
0

>  <ligand_id>  (230) 
78

>  <original_smiles>  (230) 
CN1CCC23c4c5ccc(O)c4OC2C(N(C)c2cnccn2)CCC3C1C5

>  <smiles>  (230) 
[H]Oc1c([H])c([H])c2c3c1OC1([H])C([H])(N(c4nc([H])c([H])nc4[H])C([H])([H])[H])C([H])([H])C([H])([H])C4([H])C([H])(N(C([H])([H])[H])C([H])([H])C([H])([H])C314)C2([H])[H]

$$$$
78:1:2
     RDKit          3D

 54 59  0  0  1  0  0  0  0  0999 V2000
    2.0769   -6.9303    6.6261 C   0  0  0  0  0  0  0  0  0  0  0  0
    1.9851   -5.4916    6.4158 N   0  0  0  0  0  0  0  0  0  0  0  0
    3.2749   -4.8151    6.6204 C   0  0  0  0  0  0  0  0  0  0  0  0
    4.1727   -4.8170    5.3634 C   0  0  0  0  0  0  0  0  0  0  0  0
    3.4040   -4.3270    4.1117 C   0  0  1  0  0  0  0  0  0  0  0  0
    2.8978   -2.9328    4.3245 C   0  0  0  0  0  0  0  0  0  0  0  0
    1.6913   -2.5601    4.9387 C   0  0  0  0  0  0  0  0  0  0  0  0
    1.4693   -1.1769    5.0796 C   0  0  0  0  0  0  0  0  0  0  0  0
    2.4467   -0.2556    4.6162 C   0  0  0  0  0  0  0  0  0  0  0  0
    3.6183   -0.7037    3.9562 C   0  0  0  0  0  0  0  0  0  0  0  0
    4.5252    0.1914    3.4740 O   0  0  0  0  0  0  0  0  0  0  0  0
    3.8381   -2.0856    3.7744 C   0  0  0  0  0  0  0  0  0  0  0  0
    4.8289   -2.7378    3.0883 O   0  0  0  0  0  0  0  0  0  0  0  0
    4.3684   -4.0948    2.8960 C   0  0  2  0  0  0  0  0  0  0  0  0
    3.6249   -4.1555    1.5163 C   0  0  1  0  0  0  0  0  0  0  0  0
    4.5274   -4.1792    0.3490 N   0  0  0  0  0  0  0  0  0  0  0  0
    5.4322   -5.3207    0.2181 C   0  0  0  0  0  0  0  0  0  0  0  0
    4.0402   -3.6865   -0.8918 C   0  0  0  0  0  0  0  0  0  0  0  0
    4.8957   -3.4600   -2.0087 C   0  0  0  0  0  0  0  0  0  0  0  0
    4.4397   -3.0350   -3.2132 N   0  0  0  0  0  0  0  0  0  0  0  0
    3.1098   -2.8402   -3.3170 C   0  0  0  0  0  0  0  0  0  0  0  0
    2.2451   -3.0584   -2.2263 C   0  0  0  0  0  0  0  0  0  0  0  0
    2.7079   -3.4595   -1.0198 N   0  0  0  0  0  0  0  0  0  0  0  0
    2.6120   -5.3240    1.4686 C   0  0  0  0  0  0  0  0  0  0  0  0
    1.5696   -5.1773    2.5800 C   0  0  0  0  0  0  0  0  0  0  0  0
    2.2517   -5.3295    3.9403 C   0  0  2  0  0  0  0  0  0  0  0  0
    1.3040   -5.1456    5.1571 C   0  0  2  0  0  0  0  0  0  0  0  0
    0.7417   -3.7089    5.2754 C   0  0  0  0  0  0  0  0  0  0  0  0
    2.4646   -7.1383    7.6240 H   0  0  0  0  0  0  0  0  0  0  0  0
    2.7256   -7.4170    5.8971 H   0  0  0  0  0  0  0  0  0  0  0  0
    1.0845   -7.3819    6.5655 H   0  0  0  0  0  0  0  0  0  0  0  0
    3.0859   -3.7831    6.9166 H   0  0  0  0  0  0  0  0  0  0  0  0
    3.7981   -5.2685    7.4606 H   0  0  0  0  0  0  0  0  0  0  0  0
    5.0526   -4.1977    5.5488 H   0  0  0  0  0  0  0  0  0  0  0  0
    4.5518   -5.8262    5.1921 H   0  0  0  0  0  0  0  0  0  0  0  0
    0.5588   -0.8188    5.5342 H   0  0  0  0  0  0  0  0  0  0  0  0
    2.2739    0.7990    4.7563 H   0  0  0  0  0  0  0  0  0  0  0  0
    4.2188    1.0855    3.5218 H   0  0  0  0  0  0  0  0  0  0  0  0
    5.2008   -4.7965    2.9513 H   0  0  0  0  0  0  0  0  0  0  0  0
    3.0486   -3.2300    1.4591 H   0  0  0  0  0  0  0  0  0  0  0  0
    6.2093   -5.1397   -0.5185 H   0  0  0  0  0  0  0  0  0  0  0  0
    4.8808   -6.2134   -0.0828 H   0  0  0  0  0  0  0  0  0  0  0  0
    5.9542   -5.5438    1.1478 H   0  0  0  0  0  0  0  0  0  0  0  0
    5.9615   -3.6177   -1.9577 H   0  0  0  0  0  0  0  0  0  0  0  0
    2.7179   -2.5102   -4.2686 H   0  0  0  0  0  0  0  0  0  0  0  0
    1.1830   -2.9100   -2.3129 H   0  0  0  0  0  0  0  0  0  0  0  0
    2.0899   -5.3689    0.5140 H   0  0  0  0  0  0  0  0  0  0  0  0
    3.1318   -6.2780    1.5604 H   0  0  0  0  0  0  0  0  0  0  0  0
    1.0879   -4.2015    2.5045 H   0  0  0  0  0  0  0  0  0  0  0  0
    0.7968   -5.9345    2.4567 H   0  0  0  0  0  0  0  0  0  0  0  0
    2.6546   -6.3434    3.9450 H   0  0  0  0  0  0  0  0  0  0  0  0
    0.4523   -5.8176    5.0569 H   0  0  0  0  0  0  0  0  0  0  0  0
    0.3325   -3.5468    6.2722 H   0  0  0  0  0  0  0  0  0  0  0  0
   -0.0944   -3.6173    4.5882 H   0  0  0  0  0  0  0  0  0  0  0  0
  1  2  1  0
  1 29  1  0
  1 30  1  0
  1 31  1  0
  2 27  1  0
  2  3  1  0
  3  4  1  0
  3 32  1  0
  3 33  1  0
  5  4  1  1
  4 34  1  0
  4 35  1  0
  5 14  1  0
  5 26  1  0
  5  6  1  0
  6 12  2  0
  6  7  1  0
  7 28  1  0
  7  8  2  0
  8  9  1  0
  8 36  1  0
  9 10  2  0
  9 37  1  0
 10 11  1  0
 10 12  1  0
 11 38  1  0
 12 13  1  0
 13 14  1  0
 14 15  1  0
 14 39  1  6
 15 16  1  0
 15 24  1  0
 15 40  1  6
 16 17  1  0
 16 18  1  0
 17 41  1  0
 17 42  1  0
 17 43  1  0
 18 23  1  0
 18 19  2  0
 19 20  1  0
 19 44  1  0
 20 21  2  0
 21 22  1  0
 21 45  1  0
 22 23  2  0
 22 46  1  0
 24 25  1  0
 24 47  1  0
 24 48  1  0
 25 26  1  0
 25 49  1  0
 25 50  1  0
 26 27  1  0
 26 51  1  6
 27 28  1  0
 27 52  1  6
 28 53  1  0
 28 54  1  0
M  END
>  <i_m_ct_stereo_status>  (231) 
1

>  <s_m_source_file>  (231) 
/var/tmp/pbs.5076255.sched01/tmpbnv9a_8s/88lo2bg1ru.sdf

>  <i_m_source_file_index>  (231) 
25

>  <i_lp_mmshare_version>  (231) 
48012

>  <i_f3d_flags>  (231) 
0

>  <s_epik_input>  (231) 
W0NIMl0xW0NIMl1OKFtDSDNdKVtDQEBIXShbQ0gyXTIpW0NASF0zW0NIMl1bQ0gyXVtDQEhdKE4oW0NIM10pYzRbY0hdbltjSF1bY0hdbjQpW0NASF01T2M2YyhbT0hdKVtjSF1bY0hdYzJjNltDQEBdMTM1

>  <s_epik_cmdline>  (231) 
J2VwaWtfcHl0aG9uJywgJy1waHQnLCAnMi4wJywgJy1waCcsICc3LjAnLCAnLXRuJywgJzgnLCAnLW1hJywgJzIwMCcsICctaW1hZScsICc8aW5maWxlLm1hZT4nLCAnLW9tYWUnLCAnPG91dGZpbGUubWFlPic=

>  <r_lp_tautomer_probability>  (231) 
1

>  <r_epik_Ionization_Penalty>  (231) 
2.17673

>  <r_epik_Ionization_Penalty_Charging>  (231) 
0

>  <r_epik_Ionization_Penalty_Neutral>  (231) 
2.17673

>  <r_epik_State_Penalty>  (231) 
2.32205

>  <r_epik_Charging_Adjusted_Penalty>  (231) 
2.32205

>  <i_epik_Tot_Q>  (231) 
0

>  <i_epik_Tot_abs_Q>  (231) 
0

>  <s_lp_Force_Field>  (231) 
OPLS3e

>  <r_lp_Energy>  (231) 
80.1535

>  <b_lp_Chiralities_Consistent>  (231) 
1

>  <s_lp_Variant>  (231) 
78:0-2

>  <s_i_glide_gridfile>  (231) 
pfpi4k_grid

>  <i_i_glide_lignum>  (231) 
25

>  <i_i_glide_rotatable_bonds>  (231) 
3

>  <r_i_docking_score>  (231) 
-2.35363

>  <r_i_glide_ligand_efficiency>  (231) 
-0.0840582

>  <r_i_glide_ligand_efficiency_sa>  (231) 
-0.25525

>  <r_i_glide_ligand_efficiency_ln>  (231) 
-0.543287

>  <r_i_glide_gscore>  (231) 
-2.35363

>  <r_i_glide_lipo>  (231) 
-0.364812

>  <r_i_glide_hbond>  (231) 
0

>  <r_i_glide_metal>  (231) 
-0

>  <r_i_glide_rewards>  (231) 
-0.828631

>  <r_i_glide_evdw>  (231) 
-21.9051

>  <r_i_glide_ecoul>  (231) 
-2.23685

>  <r_i_glide_erotb>  (231) 
0.270592

>  <r_i_glide_esite>  (231) 
0

>  <r_i_glide_emodel>  (231) 
-27.9872

>  <r_i_glide_energy>  (231) 
-24.1419

>  <r_i_glide_einternal>  (231) 
1.01446

>  <r_i_glide_intrahb_reward>  (231) 
-0

>  <i_i_glide_confnum>  (231) 
2

>  <i_i_glide_posenum>  (231) 
14

>  <r_i_glide_eff_state_penalty>  (231) 
0

>  <ligand_id>  (231) 
78

>  <original_smiles>  (231) 
CN1CCC23c4c5ccc(O)c4OC2C(N(C)c2cnccn2)CCC3C1C5

>  <smiles>  (231) 
[H]Oc1c([H])c([H])c2c3c1OC1([H])C([H])(N(c4nc([H])c([H])nc4[H])C([H])([H])[H])C([H])([H])C([H])([H])C4([H])C([H])(N(C([H])([H])[H])C([H])([H])C([H])([H])C314)C2([H])[H]

$$$$
79:0:0
     RDKit          3D

 81 88  0  0  1  0  0  0  0  0999 V2000
   -1.9391    4.0085    8.4355 C   0  0  0  0  0  0  0  0  0  0  0  0
   -0.4457    3.6426    8.3257 C   0  0  0  0  0  0  0  0  0  0  0  0
   -0.1991    2.3680    7.5979 N   0  0  2  0  0  0  0  0  0  0  0  0
    1.1692    1.5438    8.2332 C   0  0  0  0  0  0  0  0  0  0  0  0
    2.2615    0.4092    7.2340 C   0  0  2  0  0  0  0  0  0  0  0  0
    3.1895   -0.2296    8.2894 C   0  0  0  0  0  0  0  0  0  0  0  0
    3.2866    0.8202    5.8929 C   0  0  2  0  0  0  0  0  0  0  0  0
    3.7493    2.1868    6.2634 C   0  0  0  0  0  0  0  0  0  0  0  0
    2.4320    2.8924    6.3780 C   0  0  0  0  0  0  0  0  0  0  0  0
    1.1276    2.0219    5.7593 C   0  0  1  0  0  0  0  0  0  0  0  0
    0.4235    0.3153    6.3196 C   0  0  1  0  0  0  0  0  0  0  0  0
   -0.9340   -0.3369    5.9437 C   0  0  1  0  0  0  0  0  0  0  0  0
   -2.1725    0.2083    6.4377 O   0  0  0  0  0  0  0  0  0  0  0  0
   -0.8257   -0.2326    4.5254 C   0  0  1  0  0  0  0  0  0  0  0  0
    0.1834   -1.4373    4.2681 C   0  0  0  0  0  0  0  0  0  0  0  0
    1.4623   -1.6379    5.2529 C   0  0  1  0  0  0  0  0  0  0  0  0
    1.3526   -3.0019    5.7370 O   0  0  0  0  0  0  0  0  0  0  0  0
    1.1737   -4.1529    4.8776 C   0  0  0  0  0  0  0  0  0  0  0  0
    2.8432   -1.6420    4.5600 C   0  0  0  0  0  0  0  0  0  0  0  0
    3.0583   -0.5446    3.5981 N   0  0  2  0  0  0  0  0  0  0  0  0
    4.2706   -0.7953    2.7484 C   0  0  0  0  0  0  0  0  0  0  0  0
    5.6067   -0.6551    3.4929 C   0  0  0  0  0  0  0  0  0  0  0  0
    2.9500    0.8248    4.1651 C   0  0  1  0  0  0  0  0  0  0  0  0
    1.7397    1.7399    3.2629 C   0  0  2  0  0  0  0  0  0  0  0  0
    2.2665    1.8438    1.8380 C   0  0  0  0  0  0  0  0  0  0  0  0
    1.7596    3.1072    3.9029 C   0  0  0  0  0  0  0  0  0  0  0  0
    0.5243    3.2637    4.9832 C   0  0  2  0  0  0  0  0  0  0  0  0
   -0.3385    3.2413    3.6874 C   0  0  0  0  0  0  0  0  0  0  0  0
    0.0362    1.8387    3.2575 C   0  0  1  0  0  0  0  0  0  0  0  0
   -0.6015    1.4152    1.9241 C   0  0  0  0  0  0  0  0  0  0  0  0
   -0.8767    1.3695    4.4976 C   0  0  2  0  0  0  0  0  0  0  0  0
   -0.5198    2.5038    5.8690 C   0  0  1  0  0  0  0  0  0  0  0  0
    1.3971   -0.7323    6.5979 C   0  0  1  0  0  0  0  0  0  0  0  0
   -2.0369    4.8490    9.1197 H   0  0  0  0  0  0  0  0  0  0  0  0
   -2.5434    3.1960    8.8455 H   0  0  0  0  0  0  0  0  0  0  0  0
   -2.3634    4.3238    7.4824 H   0  0  0  0  0  0  0  0  0  0  0  0
    0.1238    4.4653    7.8829 H   0  0  0  0  0  0  0  0  0  0  0  0
   -0.0737    3.5210    9.3457 H   0  0  0  0  0  0  0  0  0  0  0  0
    1.7758    2.2081    8.8501 H   0  0  0  0  0  0  0  0  0  0  0  0
    0.7391    0.9337    9.0398 H   0  0  0  0  0  0  0  0  0  0  0  0
    3.7811   -1.0334    7.8627 H   0  0  0  0  0  0  0  0  0  0  0  0
    2.6251   -0.6521    9.1178 H   0  0  0  0  0  0  0  0  0  0  0  0
    3.8802    0.4958    8.7140 H   0  0  0  0  0  0  0  0  0  0  0  0
    4.1708    0.2010    5.9882 H   0  0  0  0  0  0  0  0  0  0  0  0
    4.2709    2.1911    7.2163 H   0  0  0  0  0  0  0  0  0  0  0  0
    4.4093    2.6226    5.5153 H   0  0  0  0  0  0  0  0  0  0  0  0
    2.3228    3.3395    7.3515 H   0  0  0  0  0  0  0  0  0  0  0  0
    2.5559    3.9073    5.9951 H   0  0  0  0  0  0  0  0  0  0  0  0
    1.1974    1.1452    5.2405 H   0  0  0  0  0  0  0  0  0  0  0  0
   -0.1174    0.1499    7.2533 H   0  0  0  0  0  0  0  0  0  0  0  0
   -0.9829   -1.3739    6.2954 H   0  0  0  0  0  0  0  0  0  0  0  0
   -2.3588    1.0128    5.9931 H   0  0  0  0  0  0  0  0  0  0  0  0
    0.1275   -0.0482    4.1047 H   0  0  0  0  0  0  0  0  0  0  0  0
   -0.5237   -2.2452    4.4385 H   0  0  0  0  0  0  0  0  0  0  0  0
    0.4720   -1.6256    3.2249 H   0  0  0  0  0  0  0  0  0  0  0  0
    1.1787   -5.0642    5.4802 H   0  0  0  0  0  0  0  0  0  0  0  0
    1.9480   -4.2907    4.1266 H   0  0  0  0  0  0  0  0  0  0  0  0
    0.2231   -4.1863    4.3501 H   0  0  0  0  0  0  0  0  0  0  0  0
    3.6258   -1.7593    5.3119 H   0  0  0  0  0  0  0  0  0  0  0  0
    2.9594   -2.4982    3.9054 H   0  0  0  0  0  0  0  0  0  0  0  0
    4.1897   -1.7944    2.3188 H   0  0  0  0  0  0  0  0  0  0  0  0
    4.2584   -0.1390    1.8825 H   0  0  0  0  0  0  0  0  0  0  0  0
    6.4028   -0.9975    2.8290 H   0  0  0  0  0  0  0  0  0  0  0  0
    5.6492   -1.2534    4.4062 H   0  0  0  0  0  0  0  0  0  0  0  0
    5.8192    0.3823    3.7548 H   0  0  0  0  0  0  0  0  0  0  0  0
    3.8389    1.3454    3.8024 H   0  0  0  0  0  0  0  0  0  0  0  0
    1.7998    2.6775    1.3188 H   0  0  0  0  0  0  0  0  0  0  0  0
    2.1318    0.9277    1.2569 H   0  0  0  0  0  0  0  0  0  0  0  0
    3.3305    2.0518    1.8775 H   0  0  0  0  0  0  0  0  0  0  0  0
    2.7922    3.3279    4.1372 H   0  0  0  0  0  0  0  0  0  0  0  0
    1.7681    3.9055    3.1588 H   0  0  0  0  0  0  0  0  0  0  0  0
   -1.4058    3.4410    3.8200 H   0  0  0  0  0  0  0  0  0  0  0  0
   -0.1521    3.9903    2.9220 H   0  0  0  0  0  0  0  0  0  0  0  0
   -1.6896    1.4460    1.9478 H   0  0  0  0  0  0  0  0  0  0  0  0
   -0.2977    0.4176    1.6162 H   0  0  0  0  0  0  0  0  0  0  0  0
   -0.2844    2.0903    1.1408 H   0  0  0  0  0  0  0  0  0  0  0  0
   -1.9352    1.5209    4.2656 H   0  0  0  0  0  0  0  0  0  0  0  0
   -1.4281    3.0984    5.9085 H   0  0  0  0  0  0  0  0  0  0  0  0
    1.0732   -1.3897    7.4092 H   0  0  0  0  0  0  0  0  0  0  0  0
   -0.9548    1.7783    7.8997 H   0  0  0  0  0  0  0  0  0  0  0  0
    2.2953   -0.6138    2.9505 H   0  0  0  0  0  0  0  0  0  0  0  0
  1  2  1  0
  1 34  1  0
  1 35  1  0
  1 36  1  0
  2  3  1  0
  2 37  1  0
  2 38  1  0
  3 32  1  0
  3  4  1  0
  3 80  1  1
  4  5  1  0
  4 39  1  0
  4 40  1  0
  5 33  1  0
  5  6  1  1
  5  7  1  0
  6 41  1  0
  6 42  1  0
  6 43  1  0
  7 23  1  0
  7  8  1  0
  7 44  1  6
  8  9  1  0
  8 45  1  0
  8 46  1  0
  9 10  1  0
  9 47  1  0
  9 48  1  0
 10 27  1  0
 10 11  1  0
 10 49  1  6
 11 33  1  0
 11 12  1  0
 11 50  1  1
 12 13  1  0
 12 14  1  0
 12 51  1  6
 13 52  1  0
 14 31  1  0
 14 15  1  0
 14 53  1  6
 15 16  1  0
 15 54  1  0
 15 55  1  0
 16 17  1  1
 16 19  1  0
 16 33  1  0
 17 18  1  0
 18 56  1  0
 18 57  1  0
 18 58  1  0
 19 20  1  0
 19 59  1  0
 19 60  1  0
 20 21  1  0
 20 23  1  0
 20 81  1  6
 21 22  1  0
 21 61  1  0
 21 62  1  0
 22 63  1  0
 22 64  1  0
 22 65  1  0
 23 24  1  0
 23 66  1  6
 24 29  1  0
 24 25  1  6
 24 26  1  0
 25 67  1  0
 25 68  1  0
 25 69  1  0
 27 26  1  6
 26 70  1  0
 26 71  1  0
 27 32  1  0
 27 28  1  0
 28 29  1  0
 28 72  1  0
 28 73  1  0
 29 30  1  6
 29 31  1  0
 30 74  1  0
 30 75  1  0
 30 76  1  0
 31 32  1  0
 31 77  1  6
 32 78  1  1
 33 79  1  1
M  CHG  2   3   1  20   1
M  END
>  <i_m_ct_stereo_status>  (232) 
1

>  <s_m_source_file>  (232) 
/var/tmp/pbs.5076255.sched01/tmpbnv9a_8s/88lo2bg1ru.sdf

>  <i_m_source_file_index>  (232) 
26

>  <i_lp_mmshare_version>  (232) 
48012

>  <i_f3d_flags>  (232) 
0

>  <s_epik_input>  (232) 
W0NIM11bQ0gyXU4xW0NIMl1bQ0BdMihPW0NIM10pW0NIMl1bQ0BIXShbQ0BASF0zW09IXSlbQ0BASF0oW0NASF00TihbQ0gyXTUpW0NIMl1bQ0gzXSlbQ0BdKFtDSDJdNikoW0NIM10pW0NAQF0oW0NIM10pKFtDSDJdNylbQ0BIXTFbQ0BASF0oW0NIMl1bQ0gyXTgpW0NAXTUoW0NIM10pW0NASF0yW0NIXTNbQ0BASF04QzQ2Nw==

>  <s_epik_cmdline>  (232) 
J2VwaWtfcHl0aG9uJywgJy1waHQnLCAnMi4wJywgJy1waCcsICc3LjAnLCAnLXRuJywgJzgnLCAnLW1hJywgJzIwMCcsICctaW1hZScsICc8aW5maWxlLm1hZT4nLCAnLW9tYWUnLCAnPG91dGZpbGUubWFlPic=

>  <r_epik_Ionization_Penalty>  (232) 
0.0307433

>  <r_epik_Ionization_Penalty_Charging>  (232) 
0.0307432

>  <r_epik_Ionization_Penalty_Neutral>  (232) 
4.53471e-08

>  <r_epik_State_Penalty>  (232) 
0.022299

>  <r_epik_Charging_Adjusted_Penalty>  (232) 
0.0530422

>  <i_epik_Tot_Q>  (232) 
2

>  <i_epik_Tot_abs_Q>  (232) 
2

>  <s_lp_Force_Field>  (232) 
OPLS3e

>  <r_lp_Energy>  (232) 
956.619

>  <b_lp_Chiralities_Consistent>  (232) 
1

>  <s_lp_Variant>  (232) 
79:0-1

>  <s_i_glide_gridfile>  (232) 
pfpi4k_grid

>  <i_i_glide_lignum>  (232) 
26

>  <i_i_glide_rotatable_bonds>  (232) 
4

>  <r_i_docking_score>  (232) 
-2.61943

>  <r_i_glide_ligand_efficiency>  (232) 
-0.0793768

>  <r_i_glide_ligand_efficiency_sa>  (232) 
-0.254604

>  <r_i_glide_ligand_efficiency_ln>  (232) 
-0.582549

>  <r_i_glide_gscore>  (232) 
-2.61943

>  <r_i_glide_lipo>  (232) 
-0.165483

>  <r_i_glide_hbond>  (232) 
-0.16

>  <r_i_glide_metal>  (232) 
-0

>  <r_i_glide_rewards>  (232) 
-0.295203

>  <r_i_glide_evdw>  (232) 
-14.5929

>  <r_i_glide_ecoul>  (232) 
-8.44603

>  <r_i_glide_erotb>  (232) 
0

>  <r_i_glide_esite>  (232) 
-0.00219712

>  <r_i_glide_emodel>  (232) 
-20.1817

>  <r_i_glide_energy>  (232) 
-23.039

>  <r_i_glide_einternal>  (232) 
11.1266

>  <r_i_glide_intrahb_reward>  (232) 
-0

>  <i_i_glide_confnum>  (232) 
2

>  <i_i_glide_posenum>  (232) 
16

>  <r_i_glide_eff_state_penalty>  (232) 
0

>  <ligand_id>  (232) 
79

>  <original_smiles>  (232) 
CCN1CC2(C)C3CCC4C5C(O)C6CC(OC)(CN(CC)C3C3(C)CC47CC3(C)C6C17)C52

>  <smiles>  (232) 
[H]OC1([H])C2([H])C([H])([H])C3(OC([H])([H])[H])C4([H])C1([H])C1([H])C([H])([H])C([H])([H])C5([H])C4(C([H])([H])[H])C([H])([H])[N+]([H])(C([H])([H])C([H])([H])[H])C4([H])C2([H])C2(C([H])([H])[H])C([H])([H])C14C([H])([H])C2(C([H])([H])[H])C5([H])[N+]([H])(C([H])([H])C([H])([H])[H])C3([H])[H]

$$$$
79:0:1
     RDKit          3D

 81 88  0  0  1  0  0  0  0  0999 V2000
    1.3780    4.3092    9.2928 C   0  0  0  0  0  0  0  0  0  0  0  0
    2.4641    3.4257    8.6412 C   0  0  0  0  0  0  0  0  0  0  0  0
    1.9287    2.2266    7.9451 N   0  0  2  0  0  0  0  0  0  0  0  0
    3.0713    0.9431    8.0108 C   0  0  0  0  0  0  0  0  0  0  0  0
    3.1976   -0.3953    6.7087 C   0  0  2  0  0  0  0  0  0  0  0  0
    4.1899   -1.4215    7.3070 C   0  0  0  0  0  0  0  0  0  0  0  0
    3.6298   -0.2425    5.0280 C   0  0  2  0  0  0  0  0  0  0  0  0
    4.6449    0.8513    5.0935 C   0  0  0  0  0  0  0  0  0  0  0  0
    3.8259    1.9507    5.7087 C   0  0  0  0  0  0  0  0  0  0  0  0
    2.1707    1.6308    5.7414 C   0  0  1  0  0  0  0  0  0  0  0  0
    1.2236    0.2145    6.6508 C   0  0  1  0  0  0  0  0  0  0  0  0
   -0.3032    0.0895    6.9286 C   0  0  1  0  0  0  0  0  0  0  0  0
   -0.9530    0.9291    7.8989 O   0  0  0  0  0  0  0  0  0  0  0  0
   -0.7662    0.2505    5.5801 C   0  0  1  0  0  0  0  0  0  0  0  0
   -0.3915   -1.2180    5.0277 C   0  0  0  0  0  0  0  0  0  0  0  0
    1.0438   -1.8664    5.4153 C   0  0  1  0  0  0  0  0  0  0  0  0
    0.6020   -3.1096    5.9998 O   0  0  0  0  0  0  0  0  0  0  0  0
    1.5446   -4.1127    6.3987 C   0  0  0  0  0  0  0  0  0  0  0  0
    1.8312   -2.2883    4.1538 C   0  0  0  0  0  0  0  0  0  0  0  0
    2.0007   -1.2358    3.1225 N   0  0  2  0  0  0  0  0  0  0  0  0
    2.5861   -1.7906    1.8636 C   0  0  0  0  0  0  0  0  0  0  0  0
    4.0609   -2.2371    1.9908 C   0  0  0  0  0  0  0  0  0  0  0  0
    2.6221    0.0315    3.5979 C   0  0  1  0  0  0  0  0  0  0  0  0
    1.5639    1.4028    3.2231 C   0  0  2  0  0  0  0  0  0  0  0  0
    1.4721    1.4671    1.6837 C   0  0  0  0  0  0  0  0  0  0  0  0
    2.3112    2.6202    3.7296 C   0  0  0  0  0  0  0  0  0  0  0  0
    1.7603    3.0694    5.2253 C   0  0  2  0  0  0  0  0  0  0  0  0
    0.4948    3.4662    4.4041 C   0  0  0  0  0  0  0  0  0  0  0  0
    0.1489    2.0567    3.9426 C   0  0  1  0  0  0  0  0  0  0  0  0
   -1.0922    2.0316    3.0157 C   0  0  0  0  0  0  0  0  0  0  0  0
   -0.2714    1.7877    5.4841 C   0  0  2  0  0  0  0  0  0  0  0  0
    0.9815    2.6150    6.5174 C   0  0  1  0  0  0  0  0  0  0  0  0
    1.8271   -1.1036    6.5910 C   0  0  1  0  0  0  0  0  0  0  0  0
    1.8490    5.0691    9.9201 H   0  0  0  0  0  0  0  0  0  0  0  0
    0.7079    3.7350    9.9422 H   0  0  0  0  0  0  0  0  0  0  0  0
    0.7754    4.8487    8.5583 H   0  0  0  0  0  0  0  0  0  0  0  0
    3.0818    4.0215    7.9638 H   0  0  0  0  0  0  0  0  0  0  0  0
    3.1207    3.0921    9.4486 H   0  0  0  0  0  0  0  0  0  0  0  0
    4.0652    1.3030    8.2779 H   0  0  0  0  0  0  0  0  0  0  0  0
    2.8298    0.4315    8.9468 H   0  0  0  0  0  0  0  0  0  0  0  0
    4.2356   -2.3373    6.7133 H   0  0  0  0  0  0  0  0  0  0  0  0
    3.9072   -1.7154    8.3195 H   0  0  0  0  0  0  0  0  0  0  0  0
    5.2024   -1.0204    7.3617 H   0  0  0  0  0  0  0  0  0  0  0  0
    4.2095   -1.1295    4.7765 H   0  0  0  0  0  0  0  0  0  0  0  0
    5.4888    0.5954    5.7337 H   0  0  0  0  0  0  0  0  0  0  0  0
    5.0422    1.1126    4.1126 H   0  0  0  0  0  0  0  0  0  0  0  0
    4.2935    2.3165    6.6113 H   0  0  0  0  0  0  0  0  0  0  0  0
    4.1295    2.8925    5.2473 H   0  0  0  0  0  0  0  0  0  0  0  0
    1.7237    0.8524    5.2785 H   0  0  0  0  0  0  0  0  0  0  0  0
    1.0963    0.1700    7.7312 H   0  0  0  0  0  0  0  0  0  0  0  0
   -0.5578   -0.9024    7.3193 H   0  0  0  0  0  0  0  0  0  0  0  0
   -0.8121    1.8393    7.6880 H   0  0  0  0  0  0  0  0  0  0  0  0
   -0.0669    0.1677    4.7848 H   0  0  0  0  0  0  0  0  0  0  0  0
   -1.1587   -1.8697    5.4554 H   0  0  0  0  0  0  0  0  0  0  0  0
   -0.6146   -1.3822    3.9612 H   0  0  0  0  0  0  0  0  0  0  0  0
    1.0037   -4.9430    6.8523 H   0  0  0  0  0  0  0  0  0  0  0  0
    2.2510   -3.7579    7.1465 H   0  0  0  0  0  0  0  0  0  0  0  0
    2.1043   -4.5439    5.5676 H   0  0  0  0  0  0  0  0  0  0  0  0
    2.7798   -2.7310    4.4458 H   0  0  0  0  0  0  0  0  0  0  0  0
    1.2732   -3.0929    3.6684 H   0  0  0  0  0  0  0  0  0  0  0  0
    1.9809   -2.6399    1.5378 H   0  0  0  0  0  0  0  0  0  0  0  0
    2.4985   -1.0658    1.0527 H   0  0  0  0  0  0  0  0  0  0  0  0
    4.3725   -2.7674    1.0894 H   0  0  0  0  0  0  0  0  0  0  0  0
    4.2267   -2.9194    2.8290 H   0  0  0  0  0  0  0  0  0  0  0  0
    4.7347   -1.3837    2.1155 H   0  0  0  0  0  0  0  0  0  0  0  0
    3.4080    0.2295    2.8720 H   0  0  0  0  0  0  0  0  0  0  0  0
    1.0879    2.4215    1.3290 H   0  0  0  0  0  0  0  0  0  0  0  0
    0.8226    0.6875    1.2878 H   0  0  0  0  0  0  0  0  0  0  0  0
    2.4542    1.3443    1.2308 H   0  0  0  0  0  0  0  0  0  0  0  0
    3.3581    2.4597    3.5010 H   0  0  0  0  0  0  0  0  0  0  0  0
    2.2920    3.4388    3.0044 H   0  0  0  0  0  0  0  0  0  0  0  0
   -0.2766    4.0069    4.9649 H   0  0  0  0  0  0  0  0  0  0  0  0
    0.6008    4.1905    3.5911 H   0  0  0  0  0  0  0  0  0  0  0  0
   -1.9866    2.4096    3.5113 H   0  0  0  0  0  0  0  0  0  0  0  0
   -1.3123    1.0222    2.6683 H   0  0  0  0  0  0  0  0  0  0  0  0
   -0.9572    2.6554    2.1333 H   0  0  0  0  0  0  0  0  0  0  0  0
   -1.2058    2.3127    5.7030 H   0  0  0  0  0  0  0  0  0  0  0  0
    0.4386    3.4809    6.8929 H   0  0  0  0  0  0  0  0  0  0  0  0
    1.6450   -1.6570    7.5166 H   0  0  0  0  0  0  0  0  0  0  0  0
    1.2224    1.8918    8.5902 H   0  0  0  0  0  0  0  0  0  0  0  0
    1.0646   -0.9676    2.8476 H   0  0  0  0  0  0  0  0  0  0  0  0
  1  2  1  0
  1 34  1  0
  1 35  1  0
  1 36  1  0
  2  3  1  0
  2 37  1  0
  2 38  1  0
  3 32  1  0
  3  4  1  0
  3 80  1  1
  4  5  1  0
  4 39  1  0
  4 40  1  0
  5 33  1  0
  5  6  1  1
  5  7  1  0
  6 41  1  0
  6 42  1  0
  6 43  1  0
  7 23  1  0
  7  8  1  0
  7 44  1  6
  8  9  1  0
  8 45  1  0
  8 46  1  0
  9 10  1  0
  9 47  1  0
  9 48  1  0
 10 27  1  0
 10 11  1  0
 10 49  1  6
 11 33  1  0
 11 12  1  0
 11 50  1  1
 12 13  1  0
 12 14  1  0
 12 51  1  1
 13 52  1  0
 14 31  1  0
 14 15  1  0
 14 53  1  1
 15 16  1  0
 15 54  1  0
 15 55  1  0
 16 17  1  1
 16 19  1  0
 16 33  1  0
 17 18  1  0
 18 56  1  0
 18 57  1  0
 18 58  1  0
 19 20  1  0
 19 59  1  0
 19 60  1  0
 20 21  1  0
 20 23  1  0
 20 81  1  6
 21 22  1  0
 21 61  1  0
 21 62  1  0
 22 63  1  0
 22 64  1  0
 22 65  1  0
 23 24  1  0
 23 66  1  6
 24 29  1  0
 24 25  1  6
 24 26  1  0
 25 67  1  0
 25 68  1  0
 25 69  1  0
 27 26  1  6
 26 70  1  0
 26 71  1  0
 27 32  1  0
 27 28  1  0
 28 29  1  0
 28 72  1  0
 28 73  1  0
 29 30  1  6
 29 31  1  0
 30 74  1  0
 30 75  1  0
 30 76  1  0
 31 32  1  0
 31 77  1  6
 32 78  1  1
 33 79  1  1
M  CHG  2   3   1  20   1
M  END
>  <i_m_ct_stereo_status>  (233) 
1

>  <s_m_source_file>  (233) 
/var/tmp/pbs.5076255.sched01/tmpbnv9a_8s/88lo2bg1ru.sdf

>  <i_m_source_file_index>  (233) 
26

>  <i_lp_mmshare_version>  (233) 
48012

>  <i_f3d_flags>  (233) 
0

>  <s_epik_input>  (233) 
W0NIM11bQ0gyXU4xW0NIMl1bQ0BdMihPW0NIM10pW0NIMl1bQ0BIXShbQ0BASF0zW09IXSlbQ0BASF0oW0NASF00TihbQ0gyXTUpW0NIMl1bQ0gzXSlbQ0BdKFtDSDJdNikoW0NIM10pW0NAQF0oW0NIM10pKFtDSDJdNylbQ0BIXTFbQ0BASF0oW0NIMl1bQ0gyXTgpW0NAXTUoW0NIM10pW0NASF0yW0NIXTNbQ0BASF04QzQ2Nw==

>  <s_epik_cmdline>  (233) 
J2VwaWtfcHl0aG9uJywgJy1waHQnLCAnMi4wJywgJy1waCcsICc3LjAnLCAnLXRuJywgJzgnLCAnLW1hJywgJzIwMCcsICctaW1hZScsICc8aW5maWxlLm1hZT4nLCAnLW9tYWUnLCAnPG91dGZpbGUubWFlPic=

>  <r_epik_Ionization_Penalty>  (233) 
0.0307433

>  <r_epik_Ionization_Penalty_Charging>  (233) 
0.0307432

>  <r_epik_Ionization_Penalty_Neutral>  (233) 
4.53471e-08

>  <r_epik_State_Penalty>  (233) 
0.022299

>  <r_epik_Charging_Adjusted_Penalty>  (233) 
0.0530422

>  <i_epik_Tot_Q>  (233) 
2

>  <i_epik_Tot_abs_Q>  (233) 
2

>  <s_lp_Force_Field>  (233) 
OPLS3e

>  <r_lp_Energy>  (233) 
956.619

>  <b_lp_Chiralities_Consistent>  (233) 
1

>  <s_lp_Variant>  (233) 
79:0-1

>  <s_i_glide_gridfile>  (233) 
pfpi4k_grid

>  <i_i_glide_lignum>  (233) 
26

>  <i_i_glide_rotatable_bonds>  (233) 
4

>  <r_i_docking_score>  (233) 
-2.02185

>  <r_i_glide_ligand_efficiency>  (233) 
-0.0612683

>  <r_i_glide_ligand_efficiency_sa>  (233) 
-0.19652

>  <r_i_glide_ligand_efficiency_ln>  (233) 
-0.44965

>  <r_i_glide_gscore>  (233) 
-2.02185

>  <r_i_glide_lipo>  (233) 
-0.0317477

>  <r_i_glide_hbond>  (233) 
-0.0463641

>  <r_i_glide_metal>  (233) 
-0

>  <r_i_glide_rewards>  (233) 
-0.295203

>  <r_i_glide_evdw>  (233) 
-15.5959

>  <r_i_glide_ecoul>  (233) 
-5.74119

>  <r_i_glide_erotb>  (233) 
0

>  <r_i_glide_esite>  (233) 
-0.00756531

>  <r_i_glide_emodel>  (233) 
-23.4341

>  <r_i_glide_energy>  (233) 
-21.3371

>  <r_i_glide_einternal>  (233) 
1.35732

>  <r_i_glide_intrahb_reward>  (233) 
-0

>  <i_i_glide_confnum>  (233) 
2

>  <i_i_glide_posenum>  (233) 
14

>  <r_i_glide_eff_state_penalty>  (233) 
0

>  <ligand_id>  (233) 
79

>  <original_smiles>  (233) 
CCN1CC2(C)C3CCC4C5C(O)C6CC(OC)(CN(CC)C3C3(C)CC47CC3(C)C6C17)C52

>  <smiles>  (233) 
[H]OC1([H])C2([H])C([H])([H])C3(OC([H])([H])[H])C4([H])C1([H])C1([H])C([H])([H])C([H])([H])C5([H])C4(C([H])([H])[H])C([H])([H])[N+]([H])(C([H])([H])C([H])([H])[H])C4([H])C2([H])C2(C([H])([H])[H])C([H])([H])C14C([H])([H])C2(C([H])([H])[H])C5([H])[N+]([H])(C([H])([H])C([H])([H])[H])C3([H])[H]

$$$$
79:0:2
     RDKit          3D

 81 88  0  0  1  0  0  0  0  0999 V2000
   -3.1100    2.9590    2.8586 C   0  0  0  0  0  0  0  0  0  0  0  0
   -2.0667    4.0097    3.3160 C   0  0  0  0  0  0  0  0  0  0  0  0
   -0.7778    3.4266    3.7431 N   0  0  2  0  0  0  0  0  0  0  0  0
   -1.0272    2.2511    4.9797 C   0  0  0  0  0  0  0  0  0  0  0  0
    0.2354    1.8655    6.2933 C   0  0  2  0  0  0  0  0  0  0  0  0
   -0.3455    0.6236    7.0029 C   0  0  0  0  0  0  0  0  0  0  0  0
    0.8681    2.8812    7.5540 C   0  0  2  0  0  0  0  0  0  0  0  0
   -0.3435    3.6958    7.8833 C   0  0  0  0  0  0  0  0  0  0  0  0
   -0.6366    4.3234    6.5468 C   0  0  0  0  0  0  0  0  0  0  0  0
    0.6110    4.1451    5.4318 C   0  0  1  0  0  0  0  0  0  0  0  0
    1.3548    2.5321    4.6794 C   0  0  1  0  0  0  0  0  0  0  0  0
    2.2639    2.3930    3.4178 C   0  0  1  0  0  0  0  0  0  0  0  0
    1.7481    2.5477    2.0795 O   0  0  0  0  0  0  0  0  0  0  0  0
    3.3118    3.2853    3.8315 C   0  0  1  0  0  0  0  0  0  0  0  0
    4.0402    2.3528    4.9318 C   0  0  0  0  0  0  0  0  0  0  0  0
    3.1075    1.4582    5.9245 C   0  0  1  0  0  0  0  0  0  0  0  0
    3.5638    0.0840    5.8046 O   0  0  0  0  0  0  0  0  0  0  0  0
    3.5254   -0.6821    4.5822 C   0  0  0  0  0  0  0  0  0  0  0  0
    3.4765    1.7409    7.4076 C   0  0  0  0  0  0  0  0  0  0  0  0
    3.5406    3.1832    7.7995 N   0  0  2  0  0  0  0  0  0  0  0  0
    4.1039    3.3902    9.1750 C   0  0  0  0  0  0  0  0  0  0  0  0
    5.5953    3.0164    9.3021 C   0  0  0  0  0  0  0  0  0  0  0  0
    2.2774    3.9465    7.5697 C   0  0  1  0  0  0  0  0  0  0  0  0
    2.6119    5.3637    6.5658 C   0  0  2  0  0  0  0  0  0  0  0  0
    3.5448    6.2811    7.3882 C   0  0  0  0  0  0  0  0  0  0  0  0
    1.2726    6.0479    6.3987 C   0  0  0  0  0  0  0  0  0  0  0  0
    0.5652    5.6448    4.9594 C   0  0  2  0  0  0  0  0  0  0  0  0
    1.7376    6.4977    4.3797 C   0  0  0  0  0  0  0  0  0  0  0  0
    2.8608    5.6055    4.8842 C   0  0  1  0  0  0  0  0  0  0  0  0
    4.2618    6.1608    4.5348 C   0  0  0  0  0  0  0  0  0  0  0  0
    2.3489    4.5727    3.7396 C   0  0  2  0  0  0  0  0  0  0  0  0
    0.5254    4.6108    3.7755 C   0  0  1  0  0  0  0  0  0  0  0  0
    1.5334    1.4201    5.5874 C   0  0  1  0  0  0  0  0  0  0  0  0
   -4.0810    3.4521    2.7179 H   0  0  0  0  0  0  0  0  0  0  0  0
   -3.2815    2.1570    3.5886 H   0  0  0  0  0  0  0  0  0  0  0  0
   -2.8441    2.4881    1.9017 H   0  0  0  0  0  0  0  0  0  0  0  0
   -1.9058    4.7023    2.4840 H   0  0  0  0  0  0  0  0  0  0  0  0
   -2.4833    4.5776    4.1495 H   0  0  0  0  0  0  0  0  0  0  0  0
   -2.0078    2.3400    5.4435 H   0  0  0  0  0  0  0  0  0  0  0  0
   -1.1607    1.3190    4.4226 H   0  0  0  0  0  0  0  0  0  0  0  0
    0.3805    0.1771    7.6928 H   0  0  0  0  0  0  0  0  0  0  0  0
   -0.6173   -0.1541    6.2816 H   0  0  0  0  0  0  0  0  0  0  0  0
   -1.2455    0.8720    7.5697 H   0  0  0  0  0  0  0  0  0  0  0  0
    1.0071    2.2391    8.4264 H   0  0  0  0  0  0  0  0  0  0  0  0
   -1.1847    3.0707    8.1949 H   0  0  0  0  0  0  0  0  0  0  0  0
   -0.1629    4.4309    8.6730 H   0  0  0  0  0  0  0  0  0  0  0  0
   -1.6411    4.0899    6.2346 H   0  0  0  0  0  0  0  0  0  0  0  0
   -0.9873    5.3447    6.7176 H   0  0  0  0  0  0  0  0  0  0  0  0
    1.5275    3.7752    5.6417 H   0  0  0  0  0  0  0  0  0  0  0  0
    0.8284    1.9094    3.9660 H   0  0  0  0  0  0  0  0  0  0  0  0
    2.6477    1.3767    3.3200 H   0  0  0  0  0  0  0  0  0  0  0  0
    1.3789    3.4077    1.8948 H   0  0  0  0  0  0  0  0  0  0  0  0
    3.3385    3.6023    4.8456 H   0  0  0  0  0  0  0  0  0  0  0  0
    4.6627    1.6764    4.3434 H   0  0  0  0  0  0  0  0  0  0  0  0
    4.8510    2.8416    5.5003 H   0  0  0  0  0  0  0  0  0  0  0  0
    4.1090   -1.5970    4.7183 H   0  0  0  0  0  0  0  0  0  0  0  0
    3.9732   -0.1971    3.7157 H   0  0  0  0  0  0  0  0  0  0  0  0
    2.5156   -0.9962    4.3227 H   0  0  0  0  0  0  0  0  0  0  0  0
    2.8611    1.1540    8.0890 H   0  0  0  0  0  0  0  0  0  0  0  0
    4.4787    1.3468    7.5489 H   0  0  0  0  0  0  0  0  0  0  0  0
    4.0392    4.4437    9.4508 H   0  0  0  0  0  0  0  0  0  0  0  0
    3.5214    2.8447    9.9235 H   0  0  0  0  0  0  0  0  0  0  0  0
    5.9688    3.3571   10.2743 H   0  0  0  0  0  0  0  0  0  0  0  0
    6.2159    3.4925    8.5318 H   0  0  0  0  0  0  0  0  0  0  0  0
    5.7603    1.9327    9.2708 H   0  0  0  0  0  0  0  0  0  0  0  0
    2.0713    4.4327    8.5220 H   0  0  0  0  0  0  0  0  0  0  0  0
    3.6038    7.2924    6.9818 H   0  0  0  0  0  0  0  0  0  0  0  0
    4.5578    5.8800    7.4214 H   0  0  0  0  0  0  0  0  0  0  0  0
    3.1911    6.3884    8.4131 H   0  0  0  0  0  0  0  0  0  0  0  0
    0.7665    5.9720    7.3517 H   0  0  0  0  0  0  0  0  0  0  0  0
    1.3510    7.1301    6.5298 H   0  0  0  0  0  0  0  0  0  0  0  0
    1.6994    6.6778    3.2956 H   0  0  0  0  0  0  0  0  0  0  0  0
    1.8245    7.5403    4.6842 H   0  0  0  0  0  0  0  0  0  0  0  0
    4.4044    6.2526    3.4565 H   0  0  0  0  0  0  0  0  0  0  0  0
    5.0520    5.5181    4.9223 H   0  0  0  0  0  0  0  0  0  0  0  0
    4.4063    7.1592    4.9447 H   0  0  0  0  0  0  0  0  0  0  0  0
    2.6215    4.9359    2.7455 H   0  0  0  0  0  0  0  0  0  0  0  0
    0.2642    5.1851    2.8892 H   0  0  0  0  0  0  0  0  0  0  0  0
    1.2848    0.4469    5.1523 H   0  0  0  0  0  0  0  0  0  0  0  0
   -0.4992    2.8801    2.9383 H   0  0  0  0  0  0  0  0  0  0  0  0
    4.2164    3.6140    7.1805 H   0  0  0  0  0  0  0  0  0  0  0  0
  1  2  1  0
  1 34  1  0
  1 35  1  0
  1 36  1  0
  2  3  1  0
  2 37  1  0
  2 38  1  0
  3 32  1  0
  3  4  1  0
  3 80  1  6
  4  5  1  0
  4 39  1  0
  4 40  1  0
  5 33  1  0
  5  6  1  1
  5  7  1  0
  6 41  1  0
  6 42  1  0
  6 43  1  0
  7 23  1  0
  7  8  1  0
  7 44  1  1
  8  9  1  0
  8 45  1  0
  8 46  1  0
  9 10  1  0
  9 47  1  0
  9 48  1  0
 10 27  1  0
 10 11  1  0
 10 49  1  1
 11 33  1  0
 11 12  1  0
 11 50  1  6
 12 13  1  0
 12 14  1  0
 12 51  1  6
 13 52  1  0
 14 31  1  0
 14 15  1  0
 14 53  1  6
 15 16  1  0
 15 54  1  0
 15 55  1  0
 16 17  1  6
 16 19  1  0
 16 33  1  0
 17 18  1  0
 18 56  1  0
 18 57  1  0
 18 58  1  0
 19 20  1  0
 19 59  1  0
 19 60  1  0
 20 21  1  0
 20 23  1  0
 20 81  1  6
 21 22  1  0
 21 61  1  0
 21 62  1  0
 22 63  1  0
 22 64  1  0
 22 65  1  0
 23 24  1  0
 23 66  1  1
 24 29  1  0
 24 25  1  1
 24 26  1  0
 25 67  1  0
 25 68  1  0
 25 69  1  0
 27 26  1  6
 26 70  1  0
 26 71  1  0
 27 32  1  0
 27 28  1  0
 28 29  1  0
 28 72  1  0
 28 73  1  0
 29 30  1  1
 29 31  1  0
 30 74  1  0
 30 75  1  0
 30 76  1  0
 31 32  1  0
 31 77  1  6
 32 78  1  6
 33 79  1  6
M  CHG  2   3   1  20   1
M  END
>  <i_m_ct_stereo_status>  (234) 
1

>  <s_m_source_file>  (234) 
/var/tmp/pbs.5076255.sched01/tmpbnv9a_8s/88lo2bg1ru.sdf

>  <i_m_source_file_index>  (234) 
26

>  <i_lp_mmshare_version>  (234) 
48012

>  <i_f3d_flags>  (234) 
0

>  <s_epik_input>  (234) 
W0NIM11bQ0gyXU4xW0NIMl1bQ0BdMihPW0NIM10pW0NIMl1bQ0BIXShbQ0BASF0zW09IXSlbQ0BASF0oW0NASF00TihbQ0gyXTUpW0NIMl1bQ0gzXSlbQ0BdKFtDSDJdNikoW0NIM10pW0NAQF0oW0NIM10pKFtDSDJdNylbQ0BIXTFbQ0BASF0oW0NIMl1bQ0gyXTgpW0NAXTUoW0NIM10pW0NASF0yW0NIXTNbQ0BASF04QzQ2Nw==

>  <s_epik_cmdline>  (234) 
J2VwaWtfcHl0aG9uJywgJy1waHQnLCAnMi4wJywgJy1waCcsICc3LjAnLCAnLXRuJywgJzgnLCAnLW1hJywgJzIwMCcsICctaW1hZScsICc8aW5maWxlLm1hZT4nLCAnLW9tYWUnLCAnPG91dGZpbGUubWFlPic=

>  <r_epik_Ionization_Penalty>  (234) 
0.0307433

>  <r_epik_Ionization_Penalty_Charging>  (234) 
0.0307432

>  <r_epik_Ionization_Penalty_Neutral>  (234) 
4.53471e-08

>  <r_epik_State_Penalty>  (234) 
0.022299

>  <r_epik_Charging_Adjusted_Penalty>  (234) 
0.0530422

>  <i_epik_Tot_Q>  (234) 
2

>  <i_epik_Tot_abs_Q>  (234) 
2

>  <s_lp_Force_Field>  (234) 
OPLS3e

>  <r_lp_Energy>  (234) 
956.619

>  <b_lp_Chiralities_Consistent>  (234) 
1

>  <s_lp_Variant>  (234) 
79:0-1

>  <s_i_glide_gridfile>  (234) 
pfpi4k_grid

>  <i_i_glide_lignum>  (234) 
26

>  <i_i_glide_rotatable_bonds>  (234) 
4

>  <r_i_docking_score>  (234) 
-1.99199

>  <r_i_glide_ligand_efficiency>  (234) 
-0.0603633

>  <r_i_glide_ligand_efficiency_sa>  (234) 
-0.193617

>  <r_i_glide_ligand_efficiency_ln>  (234) 
-0.443008

>  <r_i_glide_gscore>  (234) 
-1.99199

>  <r_i_glide_lipo>  (234) 
-0.0117113

>  <r_i_glide_hbond>  (234) 
-0.136274

>  <r_i_glide_metal>  (234) 
-0

>  <r_i_glide_rewards>  (234) 
-0.295203

>  <r_i_glide_evdw>  (234) 
-17.1431

>  <r_i_glide_ecoul>  (234) 
-4.11415

>  <r_i_glide_erotb>  (234) 
0

>  <r_i_glide_esite>  (234) 
-0.074524

>  <r_i_glide_emodel>  (234) 
-21.0443

>  <r_i_glide_energy>  (234) 
-21.2572

>  <r_i_glide_einternal>  (234) 
4.70966

>  <r_i_glide_intrahb_reward>  (234) 
-0

>  <i_i_glide_confnum>  (234) 
2

>  <i_i_glide_posenum>  (234) 
4

>  <r_i_glide_eff_state_penalty>  (234) 
0

>  <ligand_id>  (234) 
79

>  <original_smiles>  (234) 
CCN1CC2(C)C3CCC4C5C(O)C6CC(OC)(CN(CC)C3C3(C)CC47CC3(C)C6C17)C52

>  <smiles>  (234) 
[H]OC1([H])C2([H])C([H])([H])C3(OC([H])([H])[H])C4([H])C1([H])C1([H])C([H])([H])C([H])([H])C5([H])C4(C([H])([H])[H])C([H])([H])[N+]([H])(C([H])([H])C([H])([H])[H])C4([H])C2([H])C2(C([H])([H])[H])C([H])([H])C14C([H])([H])C2(C([H])([H])[H])C5([H])[N+]([H])(C([H])([H])C([H])([H])[H])C3([H])[H]

$$$$
79:1:0
     RDKit          3D

 80 87  0  0  1  0  0  0  0  0999 V2000
   -3.0914    3.5400    2.4995 C   0  0  0  0  0  0  0  0  0  0  0  0
   -2.6893    3.2883    3.9647 C   0  0  0  0  0  0  0  0  0  0  0  0
   -1.2978    2.8784    4.1537 N   0  0  2  0  0  0  0  0  0  0  0  0
   -1.1723    1.7930    5.4805 C   0  0  0  0  0  0  0  0  0  0  0  0
    0.3445    1.6500    6.5624 C   0  0  2  0  0  0  0  0  0  0  0  0
    0.0446    0.4220    7.4541 C   0  0  0  0  0  0  0  0  0  0  0  0
    1.0412    2.8465    7.6288 C   0  0  2  0  0  0  0  0  0  0  0  0
   -0.1819    3.5355    8.1345 C   0  0  0  0  0  0  0  0  0  0  0  0
   -0.7783    3.9978    6.8380 C   0  0  0  0  0  0  0  0  0  0  0  0
    0.2736    3.8717    5.5268 C   0  0  1  0  0  0  0  0  0  0  0  0
    1.0635    2.2774    4.7514 C   0  0  1  0  0  0  0  0  0  0  0  0
    1.7351    2.1232    3.3657 C   0  0  1  0  0  0  0  0  0  0  0  0
    0.9423    2.1381    2.1610 O   0  0  0  0  0  0  0  0  0  0  0  0
    2.6905    3.1854    3.5051 C   0  0  1  0  0  0  0  0  0  0  0  0
    3.7129    2.4449    4.4832 C   0  0  0  0  0  0  0  0  0  0  0  0
    3.1679    1.5820    5.7419 C   0  0  1  0  0  0  0  0  0  0  0  0
    3.7881    0.2727    5.6264 O   0  0  0  0  0  0  0  0  0  0  0  0
    5.2265    0.0998    5.4417 C   0  0  0  0  0  0  0  0  0  0  0  0
    3.6689    2.0803    7.1132 C   0  0  0  0  0  0  0  0  0  0  0  0
    3.6418    3.5186    7.2751 N   0  0  0  0  0  0  0  0  0  0  0  0
    4.5384    3.9530    8.3543 C   0  0  0  0  0  0  0  0  0  0  0  0
    6.0371    3.8925    7.9783 C   0  0  0  0  0  0  0  0  0  0  0  0
    2.2893    4.0715    7.3211 C   0  0  1  0  0  0  0  0  0  0  0  0
    2.2298    5.4265    6.1918 C   0  0  2  0  0  0  0  0  0  0  0  0
    3.1676    6.5195    6.7607 C   0  0  0  0  0  0  0  0  0  0  0  0
    0.8072    5.9270    6.2278 C   0  0  0  0  0  0  0  0  0  0  0  0
   -0.0684    5.3101    4.9662 C   0  0  2  0  0  0  0  0  0  0  0  0
    0.8700    6.2454    4.1403 C   0  0  0  0  0  0  0  0  0  0  0  0
    2.1621    5.5288    4.4811 C   0  0  1  0  0  0  0  0  0  0  0  0
    3.4054    6.2065    3.8524 C   0  0  0  0  0  0  0  0  0  0  0  0
    1.5977    4.3473    3.5213 C   0  0  2  0  0  0  0  0  0  0  0  0
   -0.1606    4.1858    3.8770 C   0  0  1  0  0  0  0  0  0  0  0  0
    1.5814    1.2889    5.6811 C   0  0  1  0  0  0  0  0  0  0  0  0
   -4.1783    3.6364    2.4255 H   0  0  0  0  0  0  0  0  0  0  0  0
   -2.8290    2.6875    1.8655 H   0  0  0  0  0  0  0  0  0  0  0  0
   -2.6542    4.4593    2.0989 H   0  0  0  0  0  0  0  0  0  0  0  0
   -2.9239    4.1423    4.5968 H   0  0  0  0  0  0  0  0  0  0  0  0
   -3.3642    2.5044    4.2884 H   0  0  0  0  0  0  0  0  0  0  0  0
   -2.0653    1.8092    6.0982 H   0  0  0  0  0  0  0  0  0  0  0  0
   -1.3140    0.8111    5.0245 H   0  0  0  0  0  0  0  0  0  0  0  0
    0.9210    0.1279    8.0383 H   0  0  0  0  0  0  0  0  0  0  0  0
   -0.2382   -0.4514    6.8613 H   0  0  0  0  0  0  0  0  0  0  0  0
   -0.7640    0.6127    8.1625 H   0  0  0  0  0  0  0  0  0  0  0  0
    1.4045    2.3040    8.4988 H   0  0  0  0  0  0  0  0  0  0  0  0
   -0.8637    2.8596    8.6512 H   0  0  0  0  0  0  0  0  0  0  0  0
    0.0525    4.3497    8.8194 H   0  0  0  0  0  0  0  0  0  0  0  0
   -1.7891    3.6387    6.7331 H   0  0  0  0  0  0  0  0  0  0  0  0
   -1.2190    4.9797    7.0107 H   0  0  0  0  0  0  0  0  0  0  0  0
    1.2488    3.6306    5.5793 H   0  0  0  0  0  0  0  0  0  0  0  0
    0.5054    1.5258    4.1945 H   0  0  0  0  0  0  0  0  0  0  0  0
    2.2209    1.1435    3.2799 H   0  0  0  0  0  0  0  0  0  0  0  0
    0.8109    3.0269    1.8268 H   0  0  0  0  0  0  0  0  0  0  0  0
    2.8740    3.5979    4.4685 H   0  0  0  0  0  0  0  0  0  0  0  0
    4.1607    1.7737    3.7567 H   0  0  0  0  0  0  0  0  0  0  0  0
    4.5780    3.0340    4.8113 H   0  0  0  0  0  0  0  0  0  0  0  0
    5.4671   -0.9667    5.4468 H   0  0  0  0  0  0  0  0  0  0  0  0
    5.8720    0.5330    6.2064 H   0  0  0  0  0  0  0  0  0  0  0  0
    5.6245    0.4657    4.4941 H   0  0  0  0  0  0  0  0  0  0  0  0
    3.2135    1.5404    7.9475 H   0  0  0  0  0  0  0  0  0  0  0  0
    4.6983    1.7992    7.2197 H   0  0  0  0  0  0  0  0  0  0  0  0
    4.3423    4.9853    8.6394 H   0  0  0  0  0  0  0  0  0  0  0  0
    4.3472    3.3539    9.2459 H   0  0  0  0  0  0  0  0  0  0  0  0
    6.6687    4.2383    8.7973 H   0  0  0  0  0  0  0  0  0  0  0  0
    6.2272    4.5278    7.1114 H   0  0  0  0  0  0  0  0  0  0  0  0
    6.3987    2.8971    7.7253 H   0  0  0  0  0  0  0  0  0  0  0  0
    2.2251    4.5926    8.2758 H   0  0  0  0  0  0  0  0  0  0  0  0
    2.9969    7.5013    6.3180 H   0  0  0  0  0  0  0  0  0  0  0  0
    4.2122    6.2578    6.5919 H   0  0  0  0  0  0  0  0  0  0  0  0
    3.0328    6.6389    7.8345 H   0  0  0  0  0  0  0  0  0  0  0  0
    0.5052    5.8646    7.2649 H   0  0  0  0  0  0  0  0  0  0  0  0
    0.7680    7.0165    6.2790 H   0  0  0  0  0  0  0  0  0  0  0  0
    0.6303    6.3306    3.0740 H   0  0  0  0  0  0  0  0  0  0  0  0
    0.8919    7.3130    4.3649 H   0  0  0  0  0  0  0  0  0  0  0  0
    3.3528    6.2236    2.7643 H   0  0  0  0  0  0  0  0  0  0  0  0
    4.3265    5.6882    4.1204 H   0  0  0  0  0  0  0  0  0  0  0  0
    3.5088    7.2438    4.1707 H   0  0  0  0  0  0  0  0  0  0  0  0
    1.6575    4.6666    2.4820 H   0  0  0  0  0  0  0  0  0  0  0  0
   -0.6139    4.6174    2.9869 H   0  0  0  0  0  0  0  0  0  0  0  0
    1.4528    0.2679    5.3102 H   0  0  0  0  0  0  0  0  0  0  0  0
   -1.0866    2.2830    3.3720 H   0  0  0  0  0  0  0  0  0  0  0  0
  1  2  1  0
  1 34  1  0
  1 35  1  0
  1 36  1  0
  2  3  1  0
  2 37  1  0
  2 38  1  0
  3 32  1  0
  3  4  1  0
  3 80  1  6
  4  5  1  0
  4 39  1  0
  4 40  1  0
  5 33  1  0
  5  6  1  1
  5  7  1  0
  6 41  1  0
  6 42  1  0
  6 43  1  0
  7 23  1  0
  7  8  1  0
  7 44  1  1
  8  9  1  0
  8 45  1  0
  8 46  1  0
  9 10  1  0
  9 47  1  0
  9 48  1  0
 10 27  1  0
 10 11  1  0
 10 49  1  1
 11 33  1  0
 11 12  1  0
 11 50  1  6
 12 13  1  0
 12 14  1  0
 12 51  1  1
 13 52  1  0
 14 31  1  0
 14 15  1  0
 14 53  1  6
 15 16  1  0
 15 54  1  0
 15 55  1  0
 16 17  1  6
 16 19  1  0
 16 33  1  0
 17 18  1  0
 18 56  1  0
 18 57  1  0
 18 58  1  0
 19 20  1  0
 19 59  1  0
 19 60  1  0
 20 21  1  0
 20 23  1  0
 21 22  1  0
 21 61  1  0
 21 62  1  0
 22 63  1  0
 22 64  1  0
 22 65  1  0
 23 24  1  0
 23 66  1  1
 24 29  1  0
 24 25  1  1
 24 26  1  0
 25 67  1  0
 25 68  1  0
 25 69  1  0
 27 26  1  6
 26 70  1  0
 26 71  1  0
 27 32  1  0
 27 28  1  0
 28 29  1  0
 28 72  1  0
 28 73  1  0
 29 30  1  6
 29 31  1  0
 30 74  1  0
 30 75  1  0
 30 76  1  0
 31 32  1  0
 31 77  1  6
 32 78  1  6
 33 79  1  6
M  CHG  1   3   1
M  END
>  <i_m_ct_stereo_status>  (235) 
1

>  <s_m_source_file>  (235) 
/var/tmp/pbs.5076255.sched01/tmpbnv9a_8s/88lo2bg1ru.sdf

>  <i_m_source_file_index>  (235) 
27

>  <i_lp_mmshare_version>  (235) 
48012

>  <i_f3d_flags>  (235) 
0

>  <s_epik_input>  (235) 
W0NIM11bQ0gyXU4xW0NIMl1bQ0BdMihPW0NIM10pW0NIMl1bQ0BIXShbQ0BASF0zW09IXSlbQ0BASF0oW0NASF00TihbQ0gyXTUpW0NIMl1bQ0gzXSlbQ0BdKFtDSDJdNikoW0NIM10pW0NAQF0oW0NIM10pKFtDSDJdNylbQ0BIXTFbQ0BASF0oW0NIMl1bQ0gyXTgpW0NAXTUoW0NIM10pW0NASF0yW0NIXTNbQ0BASF04QzQ2Nw==

>  <s_epik_cmdline>  (235) 
J2VwaWtfcHl0aG9uJywgJy1waHQnLCAnMi4wJywgJy1waCcsICc3LjAnLCAnLXRuJywgJzgnLCAnLW1hJywgJzIwMCcsICctaW1hZScsICc8aW5maWxlLm1hZT4nLCAnLW9tYWUnLCAnPG91dGZpbGUubWFlPic=

>  <r_epik_Ionization_Penalty>  (235) 
1.83814

>  <r_epik_Ionization_Penalty_Charging>  (235) 
0.00029959

>  <r_epik_Ionization_Penalty_Neutral>  (235) 
1.83784

>  <r_epik_State_Penalty>  (235) 
1.95434

>  <r_epik_Charging_Adjusted_Penalty>  (235) 
1.95464

>  <i_epik_Tot_Q>  (235) 
1

>  <i_epik_Tot_abs_Q>  (235) 
1

>  <s_lp_Force_Field>  (235) 
OPLS3e

>  <r_lp_Energy>  (235) 
947.108

>  <b_lp_Chiralities_Consistent>  (235) 
1

>  <s_lp_Variant>  (235) 
79:0-2

>  <s_i_glide_gridfile>  (235) 
pfpi4k_grid

>  <i_i_glide_lignum>  (235) 
27

>  <i_i_glide_rotatable_bonds>  (235) 
4

>  <r_i_docking_score>  (235) 
-2.4622

>  <r_i_glide_ligand_efficiency>  (235) 
-0.074612

>  <r_i_glide_ligand_efficiency_sa>  (235) 
-0.239321

>  <r_i_glide_ligand_efficiency_ln>  (235) 
-0.54758

>  <r_i_glide_gscore>  (235) 
-2.4622

>  <r_i_glide_lipo>  (235) 
-0.0911453

>  <r_i_glide_hbond>  (235) 
-0.16

>  <r_i_glide_metal>  (235) 
-0

>  <r_i_glide_rewards>  (235) 
-0.802075

>  <r_i_glide_evdw>  (235) 
-16.7168

>  <r_i_glide_ecoul>  (235) 
-3.59455

>  <r_i_glide_erotb>  (235) 
0

>  <r_i_glide_esite>  (235) 
-0.0339547

>  <r_i_glide_emodel>  (235) 
-23.8173

>  <r_i_glide_energy>  (235) 
-20.3113

>  <r_i_glide_einternal>  (235) 
7.58752

>  <r_i_glide_intrahb_reward>  (235) 
-0.5

>  <i_i_glide_confnum>  (235) 
1

>  <i_i_glide_posenum>  (235) 
15

>  <r_i_glide_eff_state_penalty>  (235) 
0

>  <ligand_id>  (235) 
79

>  <original_smiles>  (235) 
CCN1CC2(C)C3CCC4C5C(O)C6CC(OC)(CN(CC)C3C3(C)CC47CC3(C)C6C17)C52

>  <smiles>  (235) 
[H]OC1([H])C2([H])C([H])([H])C3(OC([H])([H])[H])C([H])([H])N(C([H])([H])C([H])([H])[H])C4([H])C5([H])C([H])([H])C([H])([H])C6([H])C1([H])C3([H])C5(C([H])([H])[H])C([H])([H])[N+]([H])(C([H])([H])C([H])([H])[H])C1([H])C2([H])C2(C([H])([H])[H])C([H])([H])C61C([H])([H])C42C([H])([H])[H]

$$$$
79:1:1
     RDKit          3D

 80 87  0  0  1  0  0  0  0  0999 V2000
   -1.7519    5.7747    2.4898 C   0  0  0  0  0  0  0  0  0  0  0  0
   -0.4208    5.5546    3.2529 C   0  0  0  0  0  0  0  0  0  0  0  0
   -0.2846    4.1632    3.7616 N   0  0  2  0  0  0  0  0  0  0  0  0
   -1.3997    3.9311    5.0481 C   0  0  0  0  0  0  0  0  0  0  0  0
   -1.0753    2.7687    6.4767 C   0  0  2  0  0  0  0  0  0  0  0  0
   -2.4140    2.7463    7.2601 C   0  0  0  0  0  0  0  0  0  0  0  0
    0.1747    2.8081    7.6941 C   0  0  2  0  0  0  0  0  0  0  0  0
    0.3188    4.2818    7.8988 C   0  0  0  0  0  0  0  0  0  0  0  0
    0.6524    4.7206    6.4986 C   0  0  0  0  0  0  0  0  0  0  0  0
    1.0511    3.4488    5.4676 C   0  0  1  0  0  0  0  0  0  0  0  0
   -0.0273    1.9591    4.8877 C   0  0  1  0  0  0  0  0  0  0  0  0
    0.2400    0.9787    3.7046 C   0  0  1  0  0  0  0  0  0  0  0  0
    0.1585    1.4333    2.3482 O   0  0  0  0  0  0  0  0  0  0  0  0
    1.5355    0.5289    4.0957 C   0  0  1  0  0  0  0  0  0  0  0  0
    1.1110   -0.4635    5.2887 C   0  0  0  0  0  0  0  0  0  0  0  0
   -0.0603    0.0346    6.3078 C   0  0  1  0  0  0  0  0  0  0  0  0
   -1.0350   -1.0223    6.3901 O   0  0  0  0  0  0  0  0  0  0  0  0
   -1.8139   -1.4651    5.2672 C   0  0  0  0  0  0  0  0  0  0  0  0
    0.4621   -0.0142    7.7610 C   0  0  0  0  0  0  0  0  0  0  0  0
    1.7432    0.6418    8.0026 N   0  0  0  0  0  0  0  0  0  0  0  0
    2.3839    0.2518    9.2699 C   0  0  0  0  0  0  0  0  0  0  0  0
    1.6539    0.6490   10.5608 C   0  0  0  0  0  0  0  0  0  0  0  0
    1.7895    2.0726    7.6954 C   0  0  1  0  0  0  0  0  0  0  0  0
    3.1445    2.4076    6.6149 C   0  0  2  0  0  0  0  0  0  0  0  0
    4.4427    2.1210    7.4038 C   0  0  0  0  0  0  0  0  0  0  0  0
    3.0744    3.8844    6.3212 C   0  0  0  0  0  0  0  0  0  0  0  0
    2.3195    4.1697    4.8778 C   0  0  2  0  0  0  0  0  0  0  0  0
    3.6025    3.5075    4.3171 C   0  0  0  0  0  0  0  0  0  0  0  0
    3.3932    2.1410    4.9410 C   0  0  1  0  0  0  0  0  0  0  0  0
    4.5354    1.1337    4.6429 C   0  0  0  0  0  0  0  0  0  0  0  0
    2.1979    1.9861    3.8532 C   0  0  2  0  0  0  0  0  0  0  0  0
    1.3518    3.5973    3.7695 C   0  0  1  0  0  0  0  0  0  0  0  0
   -0.8764    1.3570    5.8907 C   0  0  1  0  0  0  0  0  0  0  0  0
   -1.8555    6.8509    2.2710 H   0  0  0  0  0  0  0  0  0  0  0  0
   -2.6672    5.3308    2.9220 H   0  0  0  0  0  0  0  0  0  0  0  0
   -1.7417    5.3457    1.5145 H   0  0  0  0  0  0  0  0  0  0  0  0
    0.3947    5.8004    2.5691 H   0  0  0  0  0  0  0  0  0  0  0  0
   -0.3186    6.2759    4.0726 H   0  0  0  0  0  0  0  0  0  0  0  0
   -1.7720    4.8777    5.4117 H   0  0  0  0  0  0  0  0  0  0  0  0
   -2.3081    3.5524    4.5775 H   0  0  0  0  0  0  0  0  0  0  0  0
   -2.4214    1.9636    8.0314 H   0  0  0  0  0  0  0  0  0  0  0  0
   -3.2642    2.5472    6.5982 H   0  0  0  0  0  0  0  0  0  0  0  0
   -2.6179    3.7036    7.7509 H   0  0  0  0  0  0  0  0  0  0  0  0
   -0.2762    2.4525    8.6224 H   0  0  0  0  0  0  0  0  0  0  0  0
   -0.6170    4.7444    8.2231 H   0  0  0  0  0  0  0  0  0  0  0  0
    1.0873    4.5353    8.6319 H   0  0  0  0  0  0  0  0  0  0  0  0
   -0.0590    5.4566    6.1620 H   0  0  0  0  0  0  0  0  0  0  0  0
    1.3775    5.5338    6.5609 H   0  0  0  0  0  0  0  0  0  0  0  0
    1.1889    2.4878    5.7534 H   0  0  0  0  0  0  0  0  0  0  0  0
   -0.8463    2.0585    4.1782 H   0  0  0  0  0  0  0  0  0  0  0  0
   -0.4801    0.1642    3.6832 H   0  0  0  0  0  0  0  0  0  0  0  0
    0.3764    0.7104    1.7775 H   0  0  0  0  0  0  0  0  0  0  0  0
    1.8767    0.7474    5.0811 H   0  0  0  0  0  0  0  0  0  0  0  0
    0.7923   -1.3808    4.7901 H   0  0  0  0  0  0  0  0  0  0  0  0
    1.9492   -0.8928    5.8550 H   0  0  0  0  0  0  0  0  0  0  0  0
   -2.2918   -2.3972    5.5696 H   0  0  0  0  0  0  0  0  0  0  0  0
   -1.2556   -1.7169    4.3628 H   0  0  0  0  0  0  0  0  0  0  0  0
   -2.6236   -0.7814    4.9983 H   0  0  0  0  0  0  0  0  0  0  0  0
   -0.2894    0.3370    8.4625 H   0  0  0  0  0  0  0  0  0  0  0  0
    0.5893   -1.0659    8.0205 H   0  0  0  0  0  0  0  0  0  0  0  0
    2.5194   -0.8301    9.2752 H   0  0  0  0  0  0  0  0  0  0  0  0
    3.3942    0.6587    9.3123 H   0  0  0  0  0  0  0  0  0  0  0  0
    2.2313    0.3164   11.4219 H   0  0  0  0  0  0  0  0  0  0  0  0
    0.6754    0.1792   10.6299 H   0  0  0  0  0  0  0  0  0  0  0  0
    1.5314    1.7269   10.6492 H   0  0  0  0  0  0  0  0  0  0  0  0
    2.1684    2.5456    8.5995 H   0  0  0  0  0  0  0  0  0  0  0  0
    5.3266    2.5633    6.9436 H   0  0  0  0  0  0  0  0  0  0  0  0
    4.6157    1.0463    7.4731 H   0  0  0  0  0  0  0  0  0  0  0  0
    4.3865    2.5168    8.4167 H   0  0  0  0  0  0  0  0  0  0  0  0
    2.8012    4.3627    7.2516 H   0  0  0  0  0  0  0  0  0  0  0  0
    4.0544    4.3633    6.3859 H   0  0  0  0  0  0  0  0  0  0  0  0
    3.6882    3.5473    3.2267 H   0  0  0  0  0  0  0  0  0  0  0  0
    4.5639    3.9676    4.5522 H   0  0  0  0  0  0  0  0  0  0  0  0
    4.6495    0.9448    3.5721 H   0  0  0  0  0  0  0  0  0  0  0  0
    4.3552    0.1678    5.1193 H   0  0  0  0  0  0  0  0  0  0  0  0
    5.4961    1.4982    5.0053 H   0  0  0  0  0  0  0  0  0  0  0  0
    2.6185    1.8390    2.8578 H   0  0  0  0  0  0  0  0  0  0  0  0
    1.6639    3.9702    2.7906 H   0  0  0  0  0  0  0  0  0  0  0  0
   -1.8645    1.0957    5.5117 H   0  0  0  0  0  0  0  0  0  0  0  0
   -0.6324    3.6041    2.9896 H   0  0  0  0  0  0  0  0  0  0  0  0
  1  2  1  0
  1 34  1  0
  1 35  1  0
  1 36  1  0
  2  3  1  0
  2 37  1  0
  2 38  1  0
  3 32  1  0
  3  4  1  0
  3 80  1  6
  4  5  1  0
  4 39  1  0
  4 40  1  0
  5 33  1  0
  5  6  1  1
  5  7  1  0
  6 41  1  0
  6 42  1  0
  6 43  1  0
  7 23  1  0
  7  8  1  0
  7 44  1  1
  8  9  1  0
  8 45  1  0
  8 46  1  0
  9 10  1  0
  9 47  1  0
  9 48  1  0
 10 27  1  0
 10 11  1  0
 10 49  1  1
 11 33  1  0
 11 12  1  0
 11 50  1  6
 12 13  1  0
 12 14  1  0
 12 51  1  6
 13 52  1  0
 14 31  1  0
 14 15  1  0
 14 53  1  6
 15 16  1  0
 15 54  1  0
 15 55  1  0
 16 17  1  1
 16 19  1  0
 16 33  1  0
 17 18  1  0
 18 56  1  0
 18 57  1  0
 18 58  1  0
 19 20  1  0
 19 59  1  0
 19 60  1  0
 20 21  1  0
 20 23  1  0
 21 22  1  0
 21 61  1  0
 21 62  1  0
 22 63  1  0
 22 64  1  0
 22 65  1  0
 23 24  1  0
 23 66  1  1
 24 29  1  0
 24 25  1  1
 24 26  1  0
 25 67  1  0
 25 68  1  0
 25 69  1  0
 27 26  1  1
 26 70  1  0
 26 71  1  0
 27 32  1  0
 27 28  1  0
 28 29  1  0
 28 72  1  0
 28 73  1  0
 29 30  1  1
 29 31  1  0
 30 74  1  0
 30 75  1  0
 30 76  1  0
 31 32  1  0
 31 77  1  6
 32 78  1  6
 33 79  1  6
M  CHG  1   3   1
M  END
>  <i_m_ct_stereo_status>  (236) 
1

>  <s_m_source_file>  (236) 
/var/tmp/pbs.5076255.sched01/tmpbnv9a_8s/88lo2bg1ru.sdf

>  <i_m_source_file_index>  (236) 
27

>  <i_lp_mmshare_version>  (236) 
48012

>  <i_f3d_flags>  (236) 
0

>  <s_epik_input>  (236) 
W0NIM11bQ0gyXU4xW0NIMl1bQ0BdMihPW0NIM10pW0NIMl1bQ0BIXShbQ0BASF0zW09IXSlbQ0BASF0oW0NASF00TihbQ0gyXTUpW0NIMl1bQ0gzXSlbQ0BdKFtDSDJdNikoW0NIM10pW0NAQF0oW0NIM10pKFtDSDJdNylbQ0BIXTFbQ0BASF0oW0NIMl1bQ0gyXTgpW0NAXTUoW0NIM10pW0NASF0yW0NIXTNbQ0BASF04QzQ2Nw==

>  <s_epik_cmdline>  (236) 
J2VwaWtfcHl0aG9uJywgJy1waHQnLCAnMi4wJywgJy1waCcsICc3LjAnLCAnLXRuJywgJzgnLCAnLW1hJywgJzIwMCcsICctaW1hZScsICc8aW5maWxlLm1hZT4nLCAnLW9tYWUnLCAnPG91dGZpbGUubWFlPic=

>  <r_epik_Ionization_Penalty>  (236) 
1.83814

>  <r_epik_Ionization_Penalty_Charging>  (236) 
0.00029959

>  <r_epik_Ionization_Penalty_Neutral>  (236) 
1.83784

>  <r_epik_State_Penalty>  (236) 
1.95434

>  <r_epik_Charging_Adjusted_Penalty>  (236) 
1.95464

>  <i_epik_Tot_Q>  (236) 
1

>  <i_epik_Tot_abs_Q>  (236) 
1

>  <s_lp_Force_Field>  (236) 
OPLS3e

>  <r_lp_Energy>  (236) 
947.108

>  <b_lp_Chiralities_Consistent>  (236) 
1

>  <s_lp_Variant>  (236) 
79:0-2

>  <s_i_glide_gridfile>  (236) 
pfpi4k_grid

>  <i_i_glide_lignum>  (236) 
27

>  <i_i_glide_rotatable_bonds>  (236) 
4

>  <r_i_docking_score>  (236) 
-2.16354

>  <r_i_glide_ligand_efficiency>  (236) 
-0.0655618

>  <r_i_glide_ligand_efficiency_sa>  (236) 
-0.210292

>  <r_i_glide_ligand_efficiency_ln>  (236) 
-0.48116

>  <r_i_glide_gscore>  (236) 
-2.16354

>  <r_i_glide_lipo>  (236) 
-0.148765

>  <r_i_glide_hbond>  (236) 
-0.0440564

>  <r_i_glide_metal>  (236) 
-0

>  <r_i_glide_rewards>  (236) 
-0.802075

>  <r_i_glide_evdw>  (236) 
-13.1984

>  <r_i_glide_ecoul>  (236) 
-2.72483

>  <r_i_glide_erotb>  (236) 
0

>  <r_i_glide_esite>  (236) 
-0.1

>  <r_i_glide_emodel>  (236) 
-20.4293

>  <r_i_glide_energy>  (236) 
-15.9232

>  <r_i_glide_einternal>  (236) 
5.99611

>  <r_i_glide_intrahb_reward>  (236) 
-0.5

>  <i_i_glide_confnum>  (236) 
2

>  <i_i_glide_posenum>  (236) 
25

>  <r_i_glide_eff_state_penalty>  (236) 
0

>  <ligand_id>  (236) 
79

>  <original_smiles>  (236) 
CCN1CC2(C)C3CCC4C5C(O)C6CC(OC)(CN(CC)C3C3(C)CC47CC3(C)C6C17)C52

>  <smiles>  (236) 
[H]OC1([H])C2([H])C([H])([H])C3(OC([H])([H])[H])C([H])([H])N(C([H])([H])C([H])([H])[H])C4([H])C5([H])C([H])([H])C([H])([H])C6([H])C1([H])C3([H])C5(C([H])([H])[H])C([H])([H])[N+]([H])(C([H])([H])C([H])([H])[H])C1([H])C2([H])C2(C([H])([H])[H])C([H])([H])C61C([H])([H])C42C([H])([H])[H]

$$$$
79:1:2
     RDKit          3D

 80 87  0  0  1  0  0  0  0  0999 V2000
    2.4785    3.6435   10.0075 C   0  0  0  0  0  0  0  0  0  0  0  0
    2.2094    3.7218    8.4839 C   0  0  0  0  0  0  0  0  0  0  0  0
    1.7351    2.4331    7.9102 N   0  0  2  0  0  0  0  0  0  0  0  0
    2.9610    1.2340    8.0448 C   0  0  0  0  0  0  0  0  0  0  0  0
    3.1583   -0.1774    6.8392 C   0  0  2  0  0  0  0  0  0  0  0  0
    4.2299   -1.0775    7.4968 C   0  0  0  0  0  0  0  0  0  0  0  0
    3.5544   -0.1177    5.1396 C   0  0  2  0  0  0  0  0  0  0  0  0
    4.4934    1.0456    5.1052 C   0  0  0  0  0  0  0  0  0  0  0  0
    3.6140    2.1252    5.6646 C   0  0  0  0  0  0  0  0  0  0  0  0
    1.9844    1.6981    5.7477 C   0  0  1  0  0  0  0  0  0  0  0  0
    1.1503    0.2882    6.7714 C   0  0  1  0  0  0  0  0  0  0  0  0
   -0.3582    0.0850    7.0854 C   0  0  1  0  0  0  0  0  0  0  0  0
   -1.0456    0.9422    8.0094 O   0  0  0  0  0  0  0  0  0  0  0  0
   -0.8551    0.1104    5.7425 C   0  0  1  0  0  0  0  0  0  0  0  0
   -0.3880   -1.3753    5.3113 C   0  0  0  0  0  0  0  0  0  0  0  0
    1.1025   -1.8840    5.7063 C   0  0  1  0  0  0  0  0  0  0  0  0
    0.7860   -3.1222    6.3720 O   0  0  0  0  0  0  0  0  0  0  0  0
    1.8338   -4.0090    6.7765 C   0  0  0  0  0  0  0  0  0  0  0  0
    1.8862   -2.3017    4.4458 C   0  0  0  0  0  0  0  0  0  0  0  0
    1.9035   -1.3236    3.3754 N   0  0  0  0  0  0  0  0  0  0  0  0
    2.3260   -1.8972    2.0909 C   0  0  0  0  0  0  0  0  0  0  0  0
    3.7751   -2.3962    2.0137 C   0  0  0  0  0  0  0  0  0  0  0  0
    2.4945   -0.0274    3.7153 C   0  0  1  0  0  0  0  0  0  0  0  0
    1.3701    1.2614    3.2581 C   0  0  2  0  0  0  0  0  0  0  0  0
    1.2567    1.2367    1.7150 C   0  0  0  0  0  0  0  0  0  0  0  0
    2.0410    2.5522    3.6705 C   0  0  0  0  0  0  0  0  0  0  0  0
    1.4684    3.0647    5.1371 C   0  0  2  0  0  0  0  0  0  0  0  0
    0.1688    3.3111    4.3068 C   0  0  0  0  0  0  0  0  0  0  0  0
   -0.0795    1.8531    3.9579 C   0  0  1  0  0  0  0  0  0  0  0  0
   -1.3204    1.6684    3.0505 C   0  0  0  0  0  0  0  0  0  0  0  0
   -0.4650    1.6681    5.5243 C   0  0  2  0  0  0  0  0  0  0  0  0
    0.7444    2.6531    6.4771 C   0  0  1  0  0  0  0  0  0  0  0  0
    1.8426   -0.9859    6.8044 C   0  0  1  0  0  0  0  0  0  0  0  0
    3.0077    4.5428   10.3263 H   0  0  0  0  0  0  0  0  0  0  0  0
    3.1075    2.7942   10.2954 H   0  0  0  0  0  0  0  0  0  0  0  0
    1.5545    3.5896   10.5915 H   0  0  0  0  0  0  0  0  0  0  0  0
    1.4708    4.5095    8.3201 H   0  0  0  0  0  0  0  0  0  0  0  0
    3.1149    4.0431    7.9701 H   0  0  0  0  0  0  0  0  0  0  0  0
    3.9281    1.6805    8.2734 H   0  0  0  0  0  0  0  0  0  0  0  0
    2.7567    0.7691    9.0152 H   0  0  0  0  0  0  0  0  0  0  0  0
    4.3377   -2.0236    6.9641 H   0  0  0  0  0  0  0  0  0  0  0  0
    3.9705   -1.3197    8.5294 H   0  0  0  0  0  0  0  0  0  0  0  0
    5.2053   -0.5922    7.5158 H   0  0  0  0  0  0  0  0  0  0  0  0
    4.1915   -0.9776    4.9426 H   0  0  0  0  0  0  0  0  0  0  0  0
    5.3633    0.8966    5.7441 H   0  0  0  0  0  0  0  0  0  0  0  0
    4.8543    1.2629    4.0999 H   0  0  0  0  0  0  0  0  0  0  0  0
    4.0765    2.5735    6.5303 H   0  0  0  0  0  0  0  0  0  0  0  0
    3.8419    3.0567    5.1395 H   0  0  0  0  0  0  0  0  0  0  0  0
    1.5823    0.8626    5.3486 H   0  0  0  0  0  0  0  0  0  0  0  0
    1.0384    0.3182    7.8513 H   0  0  0  0  0  0  0  0  0  0  0  0
   -0.5378   -0.8889    7.5567 H   0  0  0  0  0  0  0  0  0  0  0  0
   -0.9695    1.8439    7.7227 H   0  0  0  0  0  0  0  0  0  0  0  0
   -0.1716    0.0157    4.9320 H   0  0  0  0  0  0  0  0  0  0  0  0
   -1.0927   -2.0454    5.8095 H   0  0  0  0  0  0  0  0  0  0  0  0
   -0.6213   -1.6390    4.2661 H   0  0  0  0  0  0  0  0  0  0  0  0
    1.3863   -4.8751    7.2647 H   0  0  0  0  0  0  0  0  0  0  0  0
    2.5036   -3.5501    7.5008 H   0  0  0  0  0  0  0  0  0  0  0  0
    2.4246   -4.4027    5.9495 H   0  0  0  0  0  0  0  0  0  0  0  0
    2.8962   -2.6200    4.6949 H   0  0  0  0  0  0  0  0  0  0  0  0
    1.3992   -3.1970    4.0631 H   0  0  0  0  0  0  0  0  0  0  0  0
    1.6711   -2.7355    1.8578 H   0  0  0  0  0  0  0  0  0  0  0  0
    2.1596   -1.1823    1.2864 H   0  0  0  0  0  0  0  0  0  0  0  0
    3.9746   -2.7932    1.0185 H   0  0  0  0  0  0  0  0  0  0  0  0
    3.9666   -3.2011    2.7241 H   0  0  0  0  0  0  0  0  0  0  0  0
    4.4943   -1.5984    2.1955 H   0  0  0  0  0  0  0  0  0  0  0  0
    3.2648    0.1359    2.9646 H   0  0  0  0  0  0  0  0  0  0  0  0
    0.8365    2.1495    1.3014 H   0  0  0  0  0  0  0  0  0  0  0  0
    0.6182    0.4208    1.3806 H   0  0  0  0  0  0  0  0  0  0  0  0
    2.2343    1.1064    1.2502 H   0  0  0  0  0  0  0  0  0  0  0  0
    3.0923    2.4361    3.4363 H   0  0  0  0  0  0  0  0  0  0  0  0
    1.9657    3.3201    2.8948 H   0  0  0  0  0  0  0  0  0  0  0  0
   -0.6350    3.8335    4.8371 H   0  0  0  0  0  0  0  0  0  0  0  0
    0.2159    3.9712    3.4369 H   0  0  0  0  0  0  0  0  0  0  0  0
   -2.2336    2.0273    3.5259 H   0  0  0  0  0  0  0  0  0  0  0  0
   -1.4709    0.6186    2.7957 H   0  0  0  0  0  0  0  0  0  0  0  0
   -1.2278    2.2204    2.1157 H   0  0  0  0  0  0  0  0  0  0  0  0
   -1.4311    2.1427    5.7150 H   0  0  0  0  0  0  0  0  0  0  0  0
    0.1501    3.5081    6.8068 H   0  0  0  0  0  0  0  0  0  0  0  0
    1.7084   -1.4760    7.7742 H   0  0  0  0  0  0  0  0  0  0  0  0
    1.0470    2.1156    8.5790 H   0  0  0  0  0  0  0  0  0  0  0  0
  1  2  1  0
  1 34  1  0
  1 35  1  0
  1 36  1  0
  2  3  1  0
  2 37  1  0
  2 38  1  0
  3 32  1  0
  3  4  1  0
  3 80  1  1
  4  5  1  0
  4 39  1  0
  4 40  1  0
  5 33  1  0
  5  6  1  1
  5  7  1  0
  6 41  1  0
  6 42  1  0
  6 43  1  0
  7 23  1  0
  7  8  1  0
  7 44  1  6
  8  9  1  0
  8 45  1  0
  8 46  1  0
  9 10  1  0
  9 47  1  0
  9 48  1  0
 10 27  1  0
 10 11  1  0
 10 49  1  6
 11 33  1  0
 11 12  1  0
 11 50  1  1
 12 13  1  0
 12 14  1  0
 12 51  1  1
 13 52  1  0
 14 31  1  0
 14 15  1  0
 14 53  1  1
 15 16  1  0
 15 54  1  0
 15 55  1  0
 16 17  1  1
 16 19  1  0
 16 33  1  0
 17 18  1  0
 18 56  1  0
 18 57  1  0
 18 58  1  0
 19 20  1  0
 19 59  1  0
 19 60  1  0
 20 21  1  0
 20 23  1  0
 21 22  1  0
 21 61  1  0
 21 62  1  0
 22 63  1  0
 22 64  1  0
 22 65  1  0
 23 24  1  0
 23 66  1  6
 24 29  1  0
 24 25  1  6
 24 26  1  0
 25 67  1  0
 25 68  1  0
 25 69  1  0
 27 26  1  6
 26 70  1  0
 26 71  1  0
 27 32  1  0
 27 28  1  0
 28 29  1  0
 28 72  1  0
 28 73  1  0
 29 30  1  6
 29 31  1  0
 30 74  1  0
 30 75  1  0
 30 76  1  0
 31 32  1  0
 31 77  1  6
 32 78  1  1
 33 79  1  1
M  CHG  1   3   1
M  END
>  <i_m_ct_stereo_status>  (237) 
1

>  <s_m_source_file>  (237) 
/var/tmp/pbs.5076255.sched01/tmpbnv9a_8s/88lo2bg1ru.sdf

>  <i_m_source_file_index>  (237) 
27

>  <i_lp_mmshare_version>  (237) 
48012

>  <i_f3d_flags>  (237) 
0

>  <s_epik_input>  (237) 
W0NIM11bQ0gyXU4xW0NIMl1bQ0BdMihPW0NIM10pW0NIMl1bQ0BIXShbQ0BASF0zW09IXSlbQ0BASF0oW0NASF00TihbQ0gyXTUpW0NIMl1bQ0gzXSlbQ0BdKFtDSDJdNikoW0NIM10pW0NAQF0oW0NIM10pKFtDSDJdNylbQ0BIXTFbQ0BASF0oW0NIMl1bQ0gyXTgpW0NAXTUoW0NIM10pW0NASF0yW0NIXTNbQ0BASF04QzQ2Nw==

>  <s_epik_cmdline>  (237) 
J2VwaWtfcHl0aG9uJywgJy1waHQnLCAnMi4wJywgJy1waCcsICc3LjAnLCAnLXRuJywgJzgnLCAnLW1hJywgJzIwMCcsICctaW1hZScsICc8aW5maWxlLm1hZT4nLCAnLW9tYWUnLCAnPG91dGZpbGUubWFlPic=

>  <r_epik_Ionization_Penalty>  (237) 
1.83814

>  <r_epik_Ionization_Penalty_Charging>  (237) 
0.00029959

>  <r_epik_Ionization_Penalty_Neutral>  (237) 
1.83784

>  <r_epik_State_Penalty>  (237) 
1.95434

>  <r_epik_Charging_Adjusted_Penalty>  (237) 
1.95464

>  <i_epik_Tot_Q>  (237) 
1

>  <i_epik_Tot_abs_Q>  (237) 
1

>  <s_lp_Force_Field>  (237) 
OPLS3e

>  <r_lp_Energy>  (237) 
947.108

>  <b_lp_Chiralities_Consistent>  (237) 
1

>  <s_lp_Variant>  (237) 
79:0-2

>  <s_i_glide_gridfile>  (237) 
pfpi4k_grid

>  <i_i_glide_lignum>  (237) 
27

>  <i_i_glide_rotatable_bonds>  (237) 
4

>  <r_i_docking_score>  (237) 
-1.56842

>  <r_i_glide_ligand_efficiency>  (237) 
-0.047528

>  <r_i_glide_ligand_efficiency_sa>  (237) 
-0.152448

>  <r_i_glide_ligand_efficiency_ln>  (237) 
-0.348809

>  <r_i_glide_gscore>  (237) 
-1.56842

>  <r_i_glide_lipo>  (237) 
-0.0123811

>  <r_i_glide_hbond>  (237) 
-0.0553917

>  <r_i_glide_metal>  (237) 
-0

>  <r_i_glide_rewards>  (237) 
-0.302075

>  <r_i_glide_evdw>  (237) 
-16.0745

>  <r_i_glide_ecoul>  (237) 
-2.63235

>  <r_i_glide_erotb>  (237) 
0

>  <r_i_glide_esite>  (237) 
0

>  <r_i_glide_emodel>  (237) 
-20.0383

>  <r_i_glide_energy>  (237) 
-18.7068

>  <r_i_glide_einternal>  (237) 
1.47096

>  <r_i_glide_intrahb_reward>  (237) 
-0

>  <i_i_glide_confnum>  (237) 
2

>  <i_i_glide_posenum>  (237) 
10

>  <r_i_glide_eff_state_penalty>  (237) 
0

>  <ligand_id>  (237) 
79

>  <original_smiles>  (237) 
CCN1CC2(C)C3CCC4C5C(O)C6CC(OC)(CN(CC)C3C3(C)CC47CC3(C)C6C17)C52

>  <smiles>  (237) 
[H]OC1([H])C2([H])C([H])([H])C3(OC([H])([H])[H])C([H])([H])N(C([H])([H])C([H])([H])[H])C4([H])C5([H])C([H])([H])C([H])([H])C6([H])C1([H])C3([H])C5(C([H])([H])[H])C([H])([H])[N+]([H])(C([H])([H])C([H])([H])[H])C1([H])C2([H])C2(C([H])([H])[H])C([H])([H])C61C([H])([H])C42C([H])([H])[H]

$$$$
80:0:0
     RDKit          3D

 29 31  0  0  1  0  0  0  0  0999 V2000
    6.2012   -5.5178    0.8157 C   0  0  0  0  0  0  0  0  0  0  0  0
    5.6613   -4.1087    0.7160 C   0  0  0  0  0  0  0  0  0  0  0  0
    5.5429   -3.3927    1.7690 N   0  0  0  0  0  0  0  0  0  0  0  0
    5.0146   -2.1368    1.7224 C   0  0  0  0  0  0  0  0  0  0  0  0
    5.0059   -1.2134    2.6770 N   0  0  0  0  0  0  0  0  0  0  0  0
    4.2680   -0.2378    2.0718 C   0  0  0  0  0  0  0  0  0  0  0  0
    3.8517   -0.4990    0.8355 N   0  0  0  0  0  0  0  0  0  0  0  0
    4.3743   -1.7229    0.6063 N   0  0  0  0  0  0  0  0  0  0  0  0
    4.1180   -2.5402   -0.5818 C   0  0  1  0  0  0  0  0  0  0  0  0
    3.8412   -1.8075   -1.8796 C   0  0  0  0  0  0  0  0  0  0  0  0
    4.3070   -0.5914   -2.2961 C   0  0  0  0  0  0  0  0  0  0  0  0
    3.8236   -0.1897   -3.5707 C   0  0  0  0  0  0  0  0  0  0  0  0
    3.0287   -1.1286   -4.1504 C   0  0  0  0  0  0  0  0  0  0  0  0
    2.8407   -2.5272   -3.1248 S   0  0  0  0  0  0  0  0  0  0  0  0
    5.2441   -3.6148   -0.6866 C   0  0  1  0  0  0  0  0  0  0  0  0
    6.4886   -3.0446   -1.4228 C   0  0  0  0  0  0  0  0  0  0  0  0
    6.6185   -3.3517   -2.7129 N   0  0  0  0  0  0  0  0  0  0  0  0
    7.3063   -2.3121   -0.8633 O   0  0  0  0  0  0  0  0  0  0  0  0
    5.4632   -6.2576    0.4970 H   0  0  0  0  0  0  0  0  0  0  0  0
    6.4548   -5.7278    1.8555 H   0  0  0  0  0  0  0  0  0  0  0  0
    7.1131   -5.6258    0.2276 H   0  0  0  0  0  0  0  0  0  0  0  0
    4.0389    0.7095    2.5473 H   0  0  0  0  0  0  0  0  0  0  0  0
    3.2068   -3.0781   -0.3490 H   0  0  0  0  0  0  0  0  0  0  0  0
    4.9447    0.0547   -1.7153 H   0  0  0  0  0  0  0  0  0  0  0  0
    4.0687    0.7693   -4.0054 H   0  0  0  0  0  0  0  0  0  0  0  0
    2.5358   -1.0569   -5.1092 H   0  0  0  0  0  0  0  0  0  0  0  0
    4.8533   -4.4585   -1.2600 H   0  0  0  0  0  0  0  0  0  0  0  0
    5.8974   -3.9120   -3.1495 H   0  0  0  0  0  0  0  0  0  0  0  0
    7.4531   -3.0781   -3.2392 H   0  0  0  0  0  0  0  0  0  0  0  0
  1  2  1  0
  1 19  1  0
  1 20  1  0
  1 21  1  0
  2 15  1  0
  2  3  2  0
  3  4  1  0
  4  8  1  0
  4  5  2  0
  5  6  1  0
  6  7  2  0
  6 22  1  0
  7  8  1  0
  8  9  1  0
  9 10  1  0
  9 15  1  0
  9 23  1  1
 10 14  1  0
 10 11  2  0
 11 12  1  0
 11 24  1  0
 12 13  2  0
 12 25  1  0
 13 14  1  0
 13 26  1  0
 15 16  1  0
 15 27  1  6
 16 17  1  0
 16 18  2  0
 17 28  1  0
 17 29  1  0
M  END
>  <i_m_ct_stereo_status>  (238) 
1

>  <s_m_source_file>  (238) 
/var/tmp/pbs.5076255.sched01/tmpbnv9a_8s/88lo2bg1ru.sdf

>  <i_m_source_file_index>  (238) 
28

>  <i_lp_mmshare_version>  (238) 
48012

>  <i_f3d_flags>  (238) 
0

>  <s_epik_input>  (238) 
bjFbY0hdbm4oYzEyKVtDQEhdKFtDQEhdKEMoPU4yKVtDSDNdKUMoPU8pW05IMl0pYzNbY0hdW2NIXVtjSF1zMw==

>  <s_epik_cmdline>  (238) 
J2VwaWtfcHl0aG9uJywgJy1waHQnLCAnMi4wJywgJy1waCcsICc3LjAnLCAnLXRuJywgJzgnLCAnLW1hJywgJzIwMCcsICctaW1hZScsICc8aW5maWxlLm1hZT4nLCAnLW9tYWUnLCAnPG91dGZpbGUubWFlPic=

>  <r_lp_tautomer_probability>  (238) 
1

>  <r_epik_Ionization_Penalty>  (238) 
1.85788e-05

>  <r_epik_Ionization_Penalty_Charging>  (238) 
0

>  <r_epik_Ionization_Penalty_Neutral>  (238) 
1.85788e-05

>  <r_epik_State_Penalty>  (238) 
-0

>  <r_epik_Charging_Adjusted_Penalty>  (238) 
0

>  <i_epik_Tot_Q>  (238) 
0

>  <i_epik_Tot_abs_Q>  (238) 
0

>  <s_epik_Chemistry_Notes>  (238) 
This compound has an imine and may undergo hydrolysis.

>  <s_lp_Force_Field>  (238) 
OPLS3e

>  <r_lp_Energy>  (238) 
15.1853

>  <b_lp_Chiralities_Consistent>  (238) 
1

>  <s_lp_Variant>  (238) 
80:0-1

>  <s_i_glide_gridfile>  (238) 
pfpi4k_grid

>  <i_i_glide_lignum>  (238) 
28

>  <i_i_glide_rotatable_bonds>  (238) 
2

>  <r_i_docking_score>  (238) 
-5.00366

>  <r_i_glide_ligand_efficiency>  (238) 
-0.277981

>  <r_i_glide_ligand_efficiency_sa>  (238) 
-0.728517

>  <r_i_glide_ligand_efficiency_ln>  (238) 
-1.28617

>  <r_i_glide_gscore>  (238) 
-5.00366

>  <r_i_glide_lipo>  (238) 
-0.484312

>  <r_i_glide_hbond>  (238) 
-0.48

>  <r_i_glide_metal>  (238) 
-0

>  <r_i_glide_rewards>  (238) 
-1.95565

>  <r_i_glide_evdw>  (238) 
-22.2631

>  <r_i_glide_ecoul>  (238) 
-8.14916

>  <r_i_glide_erotb>  (238) 
0.259506

>  <r_i_glide_esite>  (238) 
-0.00767861

>  <r_i_glide_emodel>  (238) 
-39.937

>  <r_i_glide_energy>  (238) 
-30.4123

>  <r_i_glide_einternal>  (238) 
1.35859

>  <r_i_glide_intrahb_reward>  (238) 
-0

>  <i_i_glide_confnum>  (238) 
1

>  <i_i_glide_posenum>  (238) 
8

>  <r_i_glide_eff_state_penalty>  (238) 
0

>  <ligand_id>  (238) 
80

>  <original_smiles>  (238) 
CC1=Nc2ncnn2C(c2cccs2)C1C(N)=O

>  <smiles>  (238) 
[H]c1nc2n(n1)C([H])(c1sc([H])c([H])c1[H])C([H])(C(=O)N([H])[H])C(C([H])([H])[H])=N2

$$$$
80:0:1
     RDKit          3D

 29 31  0  0  1  0  0  0  0  0999 V2000
    3.2589   -1.3622   -2.3458 C   0  0  0  0  0  0  0  0  0  0  0  0
    4.3227   -2.0790   -1.5334 C   0  0  0  0  0  0  0  0  0  0  0  0
    5.5521   -1.9139   -1.8414 N   0  0  0  0  0  0  0  0  0  0  0  0
    6.5465   -2.5682   -1.1685 C   0  0  0  0  0  0  0  0  0  0  0  0
    7.8459   -2.3338   -1.2187 N   0  0  0  0  0  0  0  0  0  0  0  0
    8.3175   -3.3427   -0.4289 C   0  0  0  0  0  0  0  0  0  0  0  0
    7.3998   -4.1401    0.1100 N   0  0  0  0  0  0  0  0  0  0  0  0
    6.2501   -3.5972   -0.3509 N   0  0  0  0  0  0  0  0  0  0  0  0
    4.9102   -4.1431   -0.1348 C   0  0  1  0  0  0  0  0  0  0  0  0
    4.7226   -4.9530    1.1366 C   0  0  0  0  0  0  0  0  0  0  0  0
    5.3643   -4.8387    2.3513 C   0  0  0  0  0  0  0  0  0  0  0  0
    4.8740   -5.7326    3.3458 C   0  0  0  0  0  0  0  0  0  0  0  0
    3.8710   -6.5419    2.8841 C   0  0  0  0  0  0  0  0  0  0  0  0
    3.5070   -6.2089    1.2167 S   0  0  0  0  0  0  0  0  0  0  0  0
    3.8660   -2.9841   -0.3621 C   0  0  1  0  0  0  0  0  0  0  0  0
    3.6582   -2.0664    0.8684 C   0  0  0  0  0  0  0  0  0  0  0  0
    2.6166   -1.2476    0.8812 N   0  0  0  0  0  0  0  0  0  0  0  0
    4.4162   -2.0467    1.8322 O   0  0  0  0  0  0  0  0  0  0  0  0
    2.5878   -2.0668   -2.8308 H   0  0  0  0  0  0  0  0  0  0  0  0
    3.7341   -0.7497   -3.1091 H   0  0  0  0  0  0  0  0  0  0  0  0
    2.6818   -0.6711   -1.7355 H   0  0  0  0  0  0  0  0  0  0  0  0
    9.3751   -3.4893   -0.2479 H   0  0  0  0  0  0  0  0  0  0  0  0
    4.7512   -4.8490   -0.9545 H   0  0  0  0  0  0  0  0  0  0  0  0
    6.1446   -4.1241    2.5700 H   0  0  0  0  0  0  0  0  0  0  0  0
    5.2548   -5.7335    4.3547 H   0  0  0  0  0  0  0  0  0  0  0  0
    3.3260   -7.3026    3.4298 H   0  0  0  0  0  0  0  0  0  0  0  0
    2.9084   -3.4435   -0.6325 H   0  0  0  0  0  0  0  0  0  0  0  0
    1.9331   -1.1694    0.1009 H   0  0  0  0  0  0  0  0  0  0  0  0
    2.4577   -0.7031    1.7162 H   0  0  0  0  0  0  0  0  0  0  0  0
  1  2  1  0
  1 19  1  0
  1 20  1  0
  1 21  1  0
  2 15  1  0
  2  3  2  0
  3  4  1  0
  4  8  1  0
  4  5  2  0
  5  6  1  0
  6  7  2  0
  6 22  1  0
  7  8  1  0
  8  9  1  0
  9 10  1  0
  9 15  1  0
  9 23  1  6
 10 14  1  0
 10 11  2  0
 11 12  1  0
 11 24  1  0
 12 13  2  0
 12 25  1  0
 13 14  1  0
 13 26  1  0
 15 16  1  0
 15 27  1  6
 16 17  1  0
 16 18  2  0
 17 28  1  0
 17 29  1  0
M  END
>  <i_m_ct_stereo_status>  (239) 
1

>  <s_m_source_file>  (239) 
/var/tmp/pbs.5076255.sched01/tmpbnv9a_8s/88lo2bg1ru.sdf

>  <i_m_source_file_index>  (239) 
28

>  <i_lp_mmshare_version>  (239) 
48012

>  <i_f3d_flags>  (239) 
0

>  <s_epik_input>  (239) 
bjFbY0hdbm4oYzEyKVtDQEhdKFtDQEhdKEMoPU4yKVtDSDNdKUMoPU8pW05IMl0pYzNbY0hdW2NIXVtjSF1zMw==

>  <s_epik_cmdline>  (239) 
J2VwaWtfcHl0aG9uJywgJy1waHQnLCAnMi4wJywgJy1waCcsICc3LjAnLCAnLXRuJywgJzgnLCAnLW1hJywgJzIwMCcsICctaW1hZScsICc8aW5maWxlLm1hZT4nLCAnLW9tYWUnLCAnPG91dGZpbGUubWFlPic=

>  <r_lp_tautomer_probability>  (239) 
1

>  <r_epik_Ionization_Penalty>  (239) 
1.85788e-05

>  <r_epik_Ionization_Penalty_Charging>  (239) 
0

>  <r_epik_Ionization_Penalty_Neutral>  (239) 
1.85788e-05

>  <r_epik_State_Penalty>  (239) 
-0

>  <r_epik_Charging_Adjusted_Penalty>  (239) 
0

>  <i_epik_Tot_Q>  (239) 
0

>  <i_epik_Tot_abs_Q>  (239) 
0

>  <s_epik_Chemistry_Notes>  (239) 
This compound has an imine and may undergo hydrolysis.

>  <s_lp_Force_Field>  (239) 
OPLS3e

>  <r_lp_Energy>  (239) 
15.1853

>  <b_lp_Chiralities_Consistent>  (239) 
1

>  <s_lp_Variant>  (239) 
80:0-1

>  <s_i_glide_gridfile>  (239) 
pfpi4k_grid

>  <i_i_glide_lignum>  (239) 
28

>  <i_i_glide_rotatable_bonds>  (239) 
2

>  <r_i_docking_score>  (239) 
-4.73824

>  <r_i_glide_ligand_efficiency>  (239) 
-0.263236

>  <r_i_glide_ligand_efficiency_sa>  (239) 
-0.689873

>  <r_i_glide_ligand_efficiency_ln>  (239) 
-1.21794

>  <r_i_glide_gscore>  (239) 
-4.73824

>  <r_i_glide_lipo>  (239) 
-0.147561

>  <r_i_glide_hbond>  (239) 
-0.31352

>  <r_i_glide_metal>  (239) 
-0

>  <r_i_glide_rewards>  (239) 
-1.932

>  <r_i_glide_evdw>  (239) 
-17.9682

>  <r_i_glide_ecoul>  (239) 
-10.402

>  <r_i_glide_erotb>  (239) 
0.259506

>  <r_i_glide_esite>  (239) 
-0.145962

>  <r_i_glide_emodel>  (239) 
-37.245

>  <r_i_glide_energy>  (239) 
-28.3701

>  <r_i_glide_einternal>  (239) 
0.912443

>  <r_i_glide_intrahb_reward>  (239) 
-0

>  <i_i_glide_confnum>  (239) 
6

>  <i_i_glide_posenum>  (239) 
30

>  <r_i_glide_eff_state_penalty>  (239) 
0

>  <ligand_id>  (239) 
80

>  <original_smiles>  (239) 
CC1=Nc2ncnn2C(c2cccs2)C1C(N)=O

>  <smiles>  (239) 
[H]c1nc2n(n1)C([H])(c1sc([H])c([H])c1[H])C([H])(C(=O)N([H])[H])C(C([H])([H])[H])=N2

$$$$
80:0:2
     RDKit          3D

 29 31  0  0  1  0  0  0  0  0999 V2000
    8.3039   -5.3783    1.0525 C   0  0  0  0  0  0  0  0  0  0  0  0
    6.8366   -5.0337    0.8941 C   0  0  0  0  0  0  0  0  0  0  0  0
    5.9618   -5.5520    1.6682 N   0  0  0  0  0  0  0  0  0  0  0  0
    4.6323   -5.2895    1.5188 C   0  0  0  0  0  0  0  0  0  0  0  0
    3.6419   -5.5545    2.3630 N   0  0  0  0  0  0  0  0  0  0  0  0
    2.5704   -5.1183    1.6393 C   0  0  0  0  0  0  0  0  0  0  0  0
    2.8399   -4.6048    0.4411 N   0  0  0  0  0  0  0  0  0  0  0  0
    4.1910   -4.6878    0.3933 N   0  0  0  0  0  0  0  0  0  0  0  0
    5.0110   -4.3209   -0.7561 C   0  0  1  0  0  0  0  0  0  0  0  0
    4.4482   -3.2600   -1.6845 C   0  0  0  0  0  0  0  0  0  0  0  0
    3.7946   -2.0919   -1.3785 C   0  0  0  0  0  0  0  0  0  0  0  0
    3.4337   -1.3248   -2.5251 C   0  0  0  0  0  0  0  0  0  0  0  0
    3.8116   -1.9068   -3.6986 C   0  0  0  0  0  0  0  0  0  0  0  0
    4.6195   -3.4260   -3.4194 S   0  0  0  0  0  0  0  0  0  0  0  0
    6.4645   -4.0478   -0.2394 C   0  0  1  0  0  0  0  0  0  0  0  0
    6.6708   -2.6009    0.2563 C   0  0  0  0  0  0  0  0  0  0  0  0
    5.9517   -2.1673    1.2937 N   0  0  0  0  0  0  0  0  0  0  0  0
    7.4648   -1.8567   -0.3178 O   0  0  0  0  0  0  0  0  0  0  0  0
    8.6988   -5.8883    0.1703 H   0  0  0  0  0  0  0  0  0  0  0  0
    8.4177   -6.0589    1.9001 H   0  0  0  0  0  0  0  0  0  0  0  0
    8.8977   -4.4879    1.2690 H   0  0  0  0  0  0  0  0  0  0  0  0
    1.5525   -5.1803    2.0011 H   0  0  0  0  0  0  0  0  0  0  0  0
    5.0611   -5.2277   -1.3502 H   0  0  0  0  0  0  0  0  0  0  0  0
    3.5443   -1.7581   -0.3817 H   0  0  0  0  0  0  0  0  0  0  0  0
    2.8963   -0.3930   -2.4543 H   0  0  0  0  0  0  0  0  0  0  0  0
    3.6286   -1.5265   -4.6968 H   0  0  0  0  0  0  0  0  0  0  0  0
    7.1638   -4.1561   -1.0628 H   0  0  0  0  0  0  0  0  0  0  0  0
    5.2697   -2.7700    1.7316 H   0  0  0  0  0  0  0  0  0  0  0  0
    6.0585   -1.2113    1.5999 H   0  0  0  0  0  0  0  0  0  0  0  0
  1  2  1  0
  1 19  1  0
  1 20  1  0
  1 21  1  0
  2 15  1  0
  2  3  2  0
  3  4  1  0
  4  8  1  0
  4  5  2  0
  5  6  1  0
  6  7  2  0
  6 22  1  0
  7  8  1  0
  8  9  1  0
  9 10  1  0
  9 15  1  0
  9 23  1  6
 10 14  1  0
 10 11  2  0
 11 12  1  0
 11 24  1  0
 12 13  2  0
 12 25  1  0
 13 14  1  0
 13 26  1  0
 15 16  1  0
 15 27  1  6
 16 17  1  0
 16 18  2  0
 17 28  1  0
 17 29  1  0
M  END
>  <i_m_ct_stereo_status>  (240) 
1

>  <s_m_source_file>  (240) 
/var/tmp/pbs.5076255.sched01/tmpbnv9a_8s/88lo2bg1ru.sdf

>  <i_m_source_file_index>  (240) 
28

>  <i_lp_mmshare_version>  (240) 
48012

>  <i_f3d_flags>  (240) 
0

>  <s_epik_input>  (240) 
bjFbY0hdbm4oYzEyKVtDQEhdKFtDQEhdKEMoPU4yKVtDSDNdKUMoPU8pW05IMl0pYzNbY0hdW2NIXVtjSF1zMw==

>  <s_epik_cmdline>  (240) 
J2VwaWtfcHl0aG9uJywgJy1waHQnLCAnMi4wJywgJy1waCcsICc3LjAnLCAnLXRuJywgJzgnLCAnLW1hJywgJzIwMCcsICctaW1hZScsICc8aW5maWxlLm1hZT4nLCAnLW9tYWUnLCAnPG91dGZpbGUubWFlPic=

>  <r_lp_tautomer_probability>  (240) 
1

>  <r_epik_Ionization_Penalty>  (240) 
1.85788e-05

>  <r_epik_Ionization_Penalty_Charging>  (240) 
0

>  <r_epik_Ionization_Penalty_Neutral>  (240) 
1.85788e-05

>  <r_epik_State_Penalty>  (240) 
-0

>  <r_epik_Charging_Adjusted_Penalty>  (240) 
0

>  <i_epik_Tot_Q>  (240) 
0

>  <i_epik_Tot_abs_Q>  (240) 
0

>  <s_epik_Chemistry_Notes>  (240) 
This compound has an imine and may undergo hydrolysis.

>  <s_lp_Force_Field>  (240) 
OPLS3e

>  <r_lp_Energy>  (240) 
15.1853

>  <b_lp_Chiralities_Consistent>  (240) 
1

>  <s_lp_Variant>  (240) 
80:0-1

>  <s_i_glide_gridfile>  (240) 
pfpi4k_grid

>  <i_i_glide_lignum>  (240) 
28

>  <i_i_glide_rotatable_bonds>  (240) 
2

>  <r_i_docking_score>  (240) 
-3.88268

>  <r_i_glide_ligand_efficiency>  (240) 
-0.215705

>  <r_i_glide_ligand_efficiency_sa>  (240) 
-0.565306

>  <r_i_glide_ligand_efficiency_ln>  (240) 
-0.998024

>  <r_i_glide_gscore>  (240) 
-3.88268

>  <r_i_glide_lipo>  (240) 
-0.534229

>  <r_i_glide_hbond>  (240) 
-0.147997

>  <r_i_glide_metal>  (240) 
-0

>  <r_i_glide_rewards>  (240) 
-1.97685

>  <r_i_glide_evdw>  (240) 
-25.8162

>  <r_i_glide_ecoul>  (240) 
-1.16186

>  <r_i_glide_erotb>  (240) 
0.259506

>  <r_i_glide_esite>  (240) 
-0.0180276

>  <r_i_glide_emodel>  (240) 
-33.5048

>  <r_i_glide_energy>  (240) 
-26.978

>  <r_i_glide_einternal>  (240) 
2.79988

>  <r_i_glide_intrahb_reward>  (240) 
-0

>  <i_i_glide_confnum>  (240) 
2

>  <i_i_glide_posenum>  (240) 
1

>  <r_i_glide_eff_state_penalty>  (240) 
0

>  <ligand_id>  (240) 
80

>  <original_smiles>  (240) 
CC1=Nc2ncnn2C(c2cccs2)C1C(N)=O

>  <smiles>  (240) 
[H]c1nc2n(n1)C([H])(c1sc([H])c([H])c1[H])C([H])(C(=O)N([H])[H])C(C([H])([H])[H])=N2

$$$$
81:0:0
     RDKit          3D

 74 79  0  0  1  0  0  0  0  0999 V2000
    3.3475   -2.3114   -1.1692 C   0  0  0  0  0  0  0  0  0  0  0  0
    4.5026   -3.0987   -0.5022 C   0  0  0  0  0  0  0  0  0  0  0  0
    5.1101   -3.8319   -1.7240 C   0  0  0  0  0  0  0  0  0  0  0  0
    5.4877   -2.1374   -0.1489 O   0  0  0  0  0  0  0  0  0  0  0  0
    6.6768   -2.3405    0.4956 C   0  0  0  0  0  0  0  0  0  0  0  0
    7.5133   -1.4459    0.4651 O   0  0  0  0  0  0  0  0  0  0  0  0
    6.9612   -3.5929    1.2644 C   0  0  0  0  0  0  0  0  0  0  0  0
    6.2479   -4.6989    1.5903 C   0  0  0  0  0  0  0  0  0  0  0  0
    4.8193   -5.1381    1.2890 C   0  0  1  0  0  0  0  0  0  0  0  0
    4.9614   -6.1212    0.0834 C   0  0  0  0  0  0  0  0  0  0  0  0
    4.2517   -6.1822    2.4362 C   0  0  2  0  0  0  0  0  0  0  0  0
    2.6682   -6.4489    2.1824 C   0  0  0  0  0  0  0  0  0  0  0  0
    1.4359   -5.5224    2.7105 C   0  0  1  0  0  0  0  0  0  0  0  0
    0.2243   -6.2559    2.6062 O   0  0  0  0  0  0  0  0  0  0  0  0
    1.4885   -4.6873    4.1195 C   0  0  2  0  0  0  0  0  0  0  0  0
    2.4336   -3.2341    4.1648 C   0  0  1  0  0  0  0  0  0  0  0  0
    2.4091   -2.4862    2.7718 C   0  0  0  0  0  0  0  0  0  0  0  0
    3.6905   -2.5951    1.8439 C   0  0  0  0  0  0  0  0  0  0  0  0
    3.9556   -3.8238    0.8162 C   0  0  1  0  0  0  0  0  0  0  0  0
    3.7289   -2.6100    5.1030 C   0  0  0  0  0  0  0  0  0  0  0  0
    5.1217   -3.5746    5.4712 C   0  0  0  0  0  0  0  0  0  0  0  0
    4.7292   -5.2230    5.3318 C   0  0  2  0  0  0  0  0  0  0  0  0
    5.5249   -5.8928    6.4939 C   0  0  0  0  0  0  0  0  0  0  0  0
    4.8863   -6.2167    3.9865 C   0  0  1  0  0  0  0  0  0  0  0  0
    4.6336   -7.5380    4.4504 O   0  0  0  0  0  0  0  0  0  0  0  0
    3.4942   -8.0530    5.0140 C   0  0  0  0  0  0  0  0  0  0  0  0
    3.5462   -9.1854    5.4939 O   0  0  0  0  0  0  0  0  0  0  0  0
    2.1036   -7.3264    4.9692 C   0  0  1  0  0  0  0  0  0  0  0  0
    1.2272   -8.0935    5.7855 O   0  0  0  0  0  0  0  0  0  0  0  0
    1.9189   -5.7537    5.2341 C   0  0  2  0  0  0  0  0  0  0  0  0
    0.7109   -5.5972    6.2422 C   0  0  0  0  0  0  0  0  0  0  0  0
    3.2339   -5.0375    5.5662 C   0  0  1  0  0  0  0  0  0  0  0  0
    3.0329   -4.4634    7.0473 C   0  0  0  0  0  0  0  0  0  0  0  0
    3.2890   -4.2116    4.1652 C   0  0  0  0  0  0  0  0  0  0  0  0
    2.5952   -2.9903   -1.5707 H   0  0  0  0  0  0  0  0  0  0  0  0
    3.6863   -1.6855   -1.9940 H   0  0  0  0  0  0  0  0  0  0  0  0
    2.8137   -1.6399   -0.5074 H   0  0  0  0  0  0  0  0  0  0  0  0
    4.4960   -4.6539   -2.0748 H   0  0  0  0  0  0  0  0  0  0  0  0
    6.1261   -4.1695   -1.5525 H   0  0  0  0  0  0  0  0  0  0  0  0
    5.2126   -3.1603   -2.5752 H   0  0  0  0  0  0  0  0  0  0  0  0
    7.9715   -3.6151    1.6520 H   0  0  0  0  0  0  0  0  0  0  0  0
    6.8078   -5.4349    2.1430 H   0  0  0  0  0  0  0  0  0  0  0  0
    4.0631   -6.1590   -0.5337 H   0  0  0  0  0  0  0  0  0  0  0  0
    5.2012   -7.1585    0.3148 H   0  0  0  0  0  0  0  0  0  0  0  0
    5.8144   -5.8738   -0.5326 H   0  0  0  0  0  0  0  0  0  0  0  0
    4.6499   -7.1584    2.1771 H   0  0  0  0  0  0  0  0  0  0  0  0
    2.5277   -6.4555    1.1016 H   0  0  0  0  0  0  0  0  0  0  0  0
    2.4915   -7.5054    2.3591 H   0  0  0  0  0  0  0  0  0  0  0  0
    1.3233   -4.7760    1.9379 H   0  0  0  0  0  0  0  0  0  0  0  0
    0.2816   -7.0178    3.1615 H   0  0  0  0  0  0  0  0  0  0  0  0
    0.4611   -4.3430    4.2603 H   0  0  0  0  0  0  0  0  0  0  0  0
    1.5061   -2.7006    2.2054 H   0  0  0  0  0  0  0  0  0  0  0  0
    2.2937   -1.4316    3.0166 H   0  0  0  0  0  0  0  0  0  0  0  0
    3.6413   -1.6486    1.3205 H   0  0  0  0  0  0  0  0  0  0  0  0
    4.5945   -2.3999    2.4215 H   0  0  0  0  0  0  0  0  0  0  0  0
    2.9790   -4.2089    0.5319 H   0  0  0  0  0  0  0  0  0  0  0  0
    4.1078   -1.7183    4.6005 H   0  0  0  0  0  0  0  0  0  0  0  0
    3.3281   -2.1802    6.0210 H   0  0  0  0  0  0  0  0  0  0  0  0
    5.9144   -3.3613    4.7512 H   0  0  0  0  0  0  0  0  0  0  0  0
    5.5541   -3.2841    6.4277 H   0  0  0  0  0  0  0  0  0  0  0  0
    5.0696   -6.8136    6.8563 H   0  0  0  0  0  0  0  0  0  0  0  0
    5.6287   -5.2513    7.3686 H   0  0  0  0  0  0  0  0  0  0  0  0
    6.5422   -6.1247    6.1731 H   0  0  0  0  0  0  0  0  0  0  0  0
    5.9616   -6.2291    3.8281 H   0  0  0  0  0  0  0  0  0  0  0  0
    1.6362   -7.6142    4.0484 H   0  0  0  0  0  0  0  0  0  0  0  0
    1.2912   -8.9999    5.5154 H   0  0  0  0  0  0  0  0  0  0  0  0
    0.8780   -6.0809    7.2077 H   0  0  0  0  0  0  0  0  0  0  0  0
   -0.1943   -6.0461    5.8241 H   0  0  0  0  0  0  0  0  0  0  0  0
    0.4269   -4.5631    6.4418 H   0  0  0  0  0  0  0  0  0  0  0  0
    2.2191   -3.7447    7.1242 H   0  0  0  0  0  0  0  0  0  0  0  0
    3.8660   -3.9459    7.5119 H   0  0  0  0  0  0  0  0  0  0  0  0
    2.8395   -5.2750    7.7490 H   0  0  0  0  0  0  0  0  0  0  0  0
    3.2868   -4.4797    3.1815 H   0  0  0  0  0  0  0  0  0  0  0  0
    4.2122   -4.0180    3.5938 H   0  0  0  0  0  0  0  0  0  0  0  0
  1  2  1  0
  1 35  1  0
  1 36  1  0
  1 37  1  0
  2 19  1  0
  2  3  1  0
  2  4  1  0
  3 38  1  0
  3 39  1  0
  3 40  1  0
  4  5  1  0
  5  6  2  0
  5  7  1  0
  7  8  2  0
  7 41  1  0
  8  9  1  0
  8 42  1  0
  9 19  1  0
  9 10  1  6
  9 11  1  0
 10 43  1  0
 10 44  1  0
 10 45  1  0
 11 24  1  0
 11 12  1  0
 11 46  1  6
 12 13  1  0
 12 47  1  0
 12 48  1  0
 13 14  1  0
 13 15  1  0
 13 49  1  6
 14 50  1  0
 15 30  1  0
 15 16  1  0
 15 51  1  1
 16 34  1  0
 16 17  1  6
 16 20  1  0
 17 18  1  0
 17 52  1  0
 17 53  1  0
 18 19  1  0
 18 54  1  0
 18 55  1  0
 19 56  1  6
 20 21  1  0
 20 57  1  0
 20 58  1  0
 21 22  1  0
 21 59  1  0
 21 60  1  0
 22 32  1  0
 22 23  1  1
 22 24  1  0
 23 61  1  0
 23 62  1  0
 23 63  1  0
 24 25  1  0
 24 64  1  6
 25 26  1  0
 26 27  2  0
 26 28  1  0
 28 29  1  0
 28 30  1  0
 28 65  1  6
 29 66  1  0
 30 31  1  1
 30 32  1  0
 31 67  1  0
 31 68  1  0
 31 69  1  0
 32 33  1  1
 32 34  1  0
 33 70  1  0
 33 71  1  0
 33 72  1  0
 34 73  1  0
 34 74  1  0
M  END
>  <i_m_ct_stereo_status>  (241) 
1

>  <s_m_source_file>  (241) 
/var/tmp/pbs.5076255.sched01/tmpbnv9a_8s/88lo2bg1ru.sdf

>  <i_m_source_file_index>  (241) 
29

>  <i_lp_mmshare_version>  (241) 
48012

>  <i_f3d_flags>  (241) 
0

>  <s_epik_input>  (241) 
W0NIXTE9W0NIXUMoPU8pT0MoW0NIM10pKFtDSDNdKVtDQEhdKFtDSDJdW0NIMl0yKVtDQF0xKFtDSDNdKVtDQEhdKFtDSDJdW0NASF0zW09IXSlbQ0BASF0oW0NAQF0oW0NIM10pKFtDSDJdW0NIMl00KVtDQEBdKFtDSDNdKShbQ0gyXTUpW0NAXTYoW0NASF0zW0NAQF0yNDUpW0NIM10pT0MoPU8pW0NASF02W09IXQ==

>  <s_epik_cmdline>  (241) 
J2VwaWtfcHl0aG9uJywgJy1waHQnLCAnMi4wJywgJy1waCcsICc3LjAnLCAnLXRuJywgJzgnLCAnLW1hJywgJzIwMCcsICctaW1hZScsICc8aW5maWxlLm1hZT4nLCAnLW9tYWUnLCAnPG91dGZpbGUubWFlPic=

>  <r_lp_tautomer_probability>  (241) 
1

>  <r_epik_Ionization_Penalty>  (241) 
7.25463e-06

>  <r_epik_Ionization_Penalty_Charging>  (241) 
0

>  <r_epik_Ionization_Penalty_Neutral>  (241) 
7.25463e-06

>  <r_epik_State_Penalty>  (241) 
-0

>  <r_epik_Charging_Adjusted_Penalty>  (241) 
0

>  <i_epik_Tot_Q>  (241) 
0

>  <i_epik_Tot_abs_Q>  (241) 
0

>  <s_epik_Chemistry_Notes>  (241) 
This compound has an ester and may undergo hydrolysis at high or low pH.

>  <s_lp_Force_Field>  (241) 
OPLS3e

>  <r_lp_Energy>  (241) 
520.481

>  <b_lp_Chiralities_Consistent>  (241) 
1

>  <s_lp_Variant>  (241) 
81:0-1

>  <s_i_glide_gridfile>  (241) 
pfpi4k_grid

>  <i_i_glide_lignum>  (241) 
29

>  <i_i_glide_rotatable_bonds>  (241) 
2

>  <r_i_docking_score>  (241) 
-2.5333

>  <r_i_glide_ligand_efficiency>  (241) 
-0.0745087

>  <r_i_glide_ligand_efficiency_sa>  (241) 
-0.241379

>  <r_i_glide_ligand_efficiency_ln>  (241) 
-0.559676

>  <r_i_glide_gscore>  (241) 
-2.5333

>  <r_i_glide_lipo>  (241) 
-0.309565

>  <r_i_glide_hbond>  (241) 
-0.164862

>  <r_i_glide_metal>  (241) 
-0

>  <r_i_glide_rewards>  (241) 
-0.31236

>  <r_i_glide_evdw>  (241) 
-22.2744

>  <r_i_glide_ecoul>  (241) 
-4.21829

>  <r_i_glide_erotb>  (241) 
0

>  <r_i_glide_esite>  (241) 
-4.30696e-05

>  <r_i_glide_emodel>  (241) 
-29.9361

>  <r_i_glide_energy>  (241) 
-26.4927

>  <r_i_glide_einternal>  (241) 
1.79236

>  <r_i_glide_intrahb_reward>  (241) 
-0

>  <i_i_glide_confnum>  (241) 
1

>  <i_i_glide_posenum>  (241) 
8

>  <r_i_glide_eff_state_penalty>  (241) 
0

>  <ligand_id>  (241) 
81

>  <original_smiles>  (241) 
CC1(C)OC(=O)C=CC2(C)C3CC(O)C4C5(CCC12)CCC1(C)C3OC(=O)C(O)C4(C)C1(C)C5

>  <smiles>  (241) 
[H]OC1([H])C(=O)OC2([H])C3([H])C([H])([H])C([H])(O[H])C4([H])C5(C([H])([H])C([H])([H])C6([H])C(C([H])([H])[H])(C([H])([H])[H])OC(=O)C([H])=C([H])C36C([H])([H])[H])C([H])([H])C([H])([H])C2(C([H])([H])[H])C(C([H])([H])[H])(C5([H])[H])C14C([H])([H])[H]

$$$$
81:0:1
     RDKit          3D

 74 79  0  0  1  0  0  0  0  0999 V2000
    4.4290   -3.4536   -2.2112 C   0  0  0  0  0  0  0  0  0  0  0  0
    4.9707   -3.0203   -0.8158 C   0  0  0  0  0  0  0  0  0  0  0  0
    6.3622   -2.4461   -1.1942 C   0  0  0  0  0  0  0  0  0  0  0  0
    4.2179   -1.8716   -0.4159 O   0  0  0  0  0  0  0  0  0  0  0  0
    4.2666   -1.1787    0.7749 C   0  0  0  0  0  0  0  0  0  0  0  0
    3.6966   -0.0961    0.8653 O   0  0  0  0  0  0  0  0  0  0  0  0
    4.9477   -1.7247    1.9836 C   0  0  0  0  0  0  0  0  0  0  0  0
    5.5379   -2.9031    2.2918 C   0  0  0  0  0  0  0  0  0  0  0  0
    5.7728   -4.1962    1.5152 C   0  0  1  0  0  0  0  0  0  0  0  0
    7.2611   -4.1044    1.0137 C   0  0  0  0  0  0  0  0  0  0  0  0
    5.8932   -5.4930    2.5305 C   0  0  2  0  0  0  0  0  0  0  0  0
    5.8941   -6.8645    1.6547 C   0  0  0  0  0  0  0  0  0  0  0  0
    4.5868   -7.6824    1.1084 C   0  0  1  0  0  0  0  0  0  0  0  0
    4.9878   -9.0101    0.8332 O   0  0  0  0  0  0  0  0  0  0  0  0
    3.1718   -7.7267    1.9310 C   0  0  2  0  0  0  0  0  0  0  0  0
    2.1641   -6.3205    1.8807 C   0  0  1  0  0  0  0  0  0  0  0  0
    2.2975   -5.5764    0.4921 C   0  0  0  0  0  0  0  0  0  0  0  0
    3.1461   -4.2405    0.4362 C   0  0  0  0  0  0  0  0  0  0  0  0
    4.7552   -4.2146    0.2249 C   0  0  1  0  0  0  0  0  0  0  0  0
    1.4332   -5.2612    3.0203 C   0  0  0  0  0  0  0  0  0  0  0  0
    2.3310   -4.6159    4.3542 C   0  0  0  0  0  0  0  0  0  0  0  0
    3.6693   -5.6137    4.6783 C   0  0  2  0  0  0  0  0  0  0  0  0
    3.7703   -5.6020    6.2355 C   0  0  0  0  0  0  0  0  0  0  0  0
    5.2329   -5.4722    4.0726 C   0  0  1  0  0  0  0  0  0  0  0  0
    6.0176   -6.3979    4.8106 O   0  0  0  0  0  0  0  0  0  0  0  0
    5.8990   -7.7578    4.8951 C   0  0  0  0  0  0  0  0  0  0  0  0
    6.5869   -8.3356    5.7382 O   0  0  0  0  0  0  0  0  0  0  0  0
    5.0234   -8.6180    3.9143 C   0  0  1  0  0  0  0  0  0  0  0  0
    5.0139   -9.9328    4.4638 O   0  0  0  0  0  0  0  0  0  0  0  0
    3.5528   -8.1819    3.4228 C   0  0  2  0  0  0  0  0  0  0  0  0
    2.6292   -9.4617    3.5581 C   0  0  0  0  0  0  0  0  0  0  0  0
    3.0704   -6.8730    4.0592 C   0  0  1  0  0  0  0  0  0  0  0  0
    1.7701   -7.2717    4.9027 C   0  0  0  0  0  0  0  0  0  0  0  0
    3.1492   -6.0224    2.6746 C   0  0  0  0  0  0  0  0  0  0  0  0
    5.0439   -4.2503   -2.6360 H   0  0  0  0  0  0  0  0  0  0  0  0
    4.4340   -2.6334   -2.9232 H   0  0  0  0  0  0  0  0  0  0  0  0
    3.4115   -3.8361   -2.2251 H   0  0  0  0  0  0  0  0  0  0  0  0
    7.0835   -3.2105   -1.4779 H   0  0  0  0  0  0  0  0  0  0  0  0
    6.7746   -1.7918   -0.4308 H   0  0  0  0  0  0  0  0  0  0  0  0
    6.2768   -1.7966   -2.0624 H   0  0  0  0  0  0  0  0  0  0  0  0
    4.9657   -1.0090    2.7950 H   0  0  0  0  0  0  0  0  0  0  0  0
    5.9464   -2.9252    3.2858 H   0  0  0  0  0  0  0  0  0  0  0  0
    7.4259   -4.6768    0.1015 H   0  0  0  0  0  0  0  0  0  0  0  0
    8.0378   -4.4373    1.6994 H   0  0  0  0  0  0  0  0  0  0  0  0
    7.6010   -3.0849    0.8750 H   0  0  0  0  0  0  0  0  0  0  0  0
    6.9185   -5.4940    2.8897 H   0  0  0  0  0  0  0  0  0  0  0  0
    6.4513   -6.6430    0.7460 H   0  0  0  0  0  0  0  0  0  0  0  0
    6.6182   -7.5316    2.1102 H   0  0  0  0  0  0  0  0  0  0  0  0
    4.3738   -7.2714    0.1250 H   0  0  0  0  0  0  0  0  0  0  0  0
    4.2335   -9.5404    0.6074 H   0  0  0  0  0  0  0  0  0  0  0  0
    2.5877   -8.4901    1.4099 H   0  0  0  0  0  0  0  0  0  0  0  0
    2.5989   -6.2469   -0.3066 H   0  0  0  0  0  0  0  0  0  0  0  0
    1.2833   -5.3236    0.2024 H   0  0  0  0  0  0  0  0  0  0  0  0
    2.6409   -3.7080   -0.3601 H   0  0  0  0  0  0  0  0  0  0  0  0
    2.8730   -3.5787    1.2595 H   0  0  0  0  0  0  0  0  0  0  0  0
    5.0087   -5.1173   -0.3301 H   0  0  0  0  0  0  0  0  0  0  0  0
    1.0560   -4.3954    2.4803 H   0  0  0  0  0  0  0  0  0  0  0  0
    0.5097   -5.7121    3.3819 H   0  0  0  0  0  0  0  0  0  0  0  0
    2.7082   -3.6202    4.1043 H   0  0  0  0  0  0  0  0  0  0  0  0
    1.6754   -4.4385    5.2063 H   0  0  0  0  0  0  0  0  0  0  0  0
    4.2353   -6.4972    6.6468 H   0  0  0  0  0  0  0  0  0  0  0  0
    2.8009   -5.5228    6.7282 H   0  0  0  0  0  0  0  0  0  0  0  0
    4.3468   -4.7387    6.5730 H   0  0  0  0  0  0  0  0  0  0  0  0
    5.5579   -4.5206    4.4865 H   0  0  0  0  0  0  0  0  0  0  0  0
    5.6433   -8.8634    3.0714 H   0  0  0  0  0  0  0  0  0  0  0  0
    4.5927  -10.5122    3.8472 H   0  0  0  0  0  0  0  0  0  0  0  0
    2.5417   -9.8373    4.5818 H   0  0  0  0  0  0  0  0  0  0  0  0
    3.0184  -10.2862    2.9537 H   0  0  0  0  0  0  0  0  0  0  0  0
    1.6136   -9.3224    3.1850 H   0  0  0  0  0  0  0  0  0  0  0  0
    0.9674   -7.6766    4.2901 H   0  0  0  0  0  0  0  0  0  0  0  0
    1.2785   -6.4962    5.4795 H   0  0  0  0  0  0  0  0  0  0  0  0
    2.0205   -8.0098    5.6652 H   0  0  0  0  0  0  0  0  0  0  0  0
    3.8934   -5.8211    2.0073 H   0  0  0  0  0  0  0  0  0  0  0  0
    3.4931   -4.9775    2.6047 H   0  0  0  0  0  0  0  0  0  0  0  0
  1  2  1  0
  1 35  1  0
  1 36  1  0
  1 37  1  0
  2 19  1  0
  2  3  1  0
  2  4  1  0
  3 38  1  0
  3 39  1  0
  3 40  1  0
  4  5  1  0
  5  6  2  0
  5  7  1  0
  7  8  2  0
  7 41  1  0
  8  9  1  0
  8 42  1  0
  9 19  1  0
  9 10  1  6
  9 11  1  0
 10 43  1  0
 10 44  1  0
 10 45  1  0
 11 24  1  0
 11 12  1  0
 11 46  1  1
 12 13  1  0
 12 47  1  0
 12 48  1  0
 13 14  1  0
 13 15  1  0
 13 49  1  6
 14 50  1  0
 15 30  1  0
 15 16  1  0
 15 51  1  6
 16 34  1  0
 16 17  1  6
 16 20  1  0
 17 18  1  0
 17 52  1  0
 17 53  1  0
 18 19  1  0
 18 54  1  0
 18 55  1  0
 19 56  1  6
 20 21  1  0
 20 57  1  0
 20 58  1  0
 21 22  1  0
 21 59  1  0
 21 60  1  0
 22 32  1  0
 22 23  1  1
 22 24  1  0
 23 61  1  0
 23 62  1  0
 23 63  1  0
 24 25  1  0
 24 64  1  1
 25 26  1  0
 26 27  2  0
 26 28  1  0
 28 29  1  0
 28 30  1  0
 28 65  1  6
 29 66  1  0
 30 31  1  1
 30 32  1  0
 31 67  1  0
 31 68  1  0
 31 69  1  0
 32 33  1  1
 32 34  1  0
 33 70  1  0
 33 71  1  0
 33 72  1  0
 34 73  1  0
 34 74  1  0
M  END
>  <i_m_ct_stereo_status>  (242) 
1

>  <s_m_source_file>  (242) 
/var/tmp/pbs.5076255.sched01/tmpbnv9a_8s/88lo2bg1ru.sdf

>  <i_m_source_file_index>  (242) 
29

>  <i_lp_mmshare_version>  (242) 
48012

>  <i_f3d_flags>  (242) 
0

>  <s_epik_input>  (242) 
W0NIXTE9W0NIXUMoPU8pT0MoW0NIM10pKFtDSDNdKVtDQEhdKFtDSDJdW0NIMl0yKVtDQF0xKFtDSDNdKVtDQEhdKFtDSDJdW0NASF0zW09IXSlbQ0BASF0oW0NAQF0oW0NIM10pKFtDSDJdW0NIMl00KVtDQEBdKFtDSDNdKShbQ0gyXTUpW0NAXTYoW0NASF0zW0NAQF0yNDUpW0NIM10pT0MoPU8pW0NASF02W09IXQ==

>  <s_epik_cmdline>  (242) 
J2VwaWtfcHl0aG9uJywgJy1waHQnLCAnMi4wJywgJy1waCcsICc3LjAnLCAnLXRuJywgJzgnLCAnLW1hJywgJzIwMCcsICctaW1hZScsICc8aW5maWxlLm1hZT4nLCAnLW9tYWUnLCAnPG91dGZpbGUubWFlPic=

>  <r_lp_tautomer_probability>  (242) 
1

>  <r_epik_Ionization_Penalty>  (242) 
7.25463e-06

>  <r_epik_Ionization_Penalty_Charging>  (242) 
0

>  <r_epik_Ionization_Penalty_Neutral>  (242) 
7.25463e-06

>  <r_epik_State_Penalty>  (242) 
-0

>  <r_epik_Charging_Adjusted_Penalty>  (242) 
0

>  <i_epik_Tot_Q>  (242) 
0

>  <i_epik_Tot_abs_Q>  (242) 
0

>  <s_epik_Chemistry_Notes>  (242) 
This compound has an ester and may undergo hydrolysis at high or low pH.

>  <s_lp_Force_Field>  (242) 
OPLS3e

>  <r_lp_Energy>  (242) 
520.481

>  <b_lp_Chiralities_Consistent>  (242) 
1

>  <s_lp_Variant>  (242) 
81:0-1

>  <s_i_glide_gridfile>  (242) 
pfpi4k_grid

>  <i_i_glide_lignum>  (242) 
29

>  <i_i_glide_rotatable_bonds>  (242) 
2

>  <r_i_docking_score>  (242) 
-2.28324

>  <r_i_glide_ligand_efficiency>  (242) 
-0.067154

>  <r_i_glide_ligand_efficiency_sa>  (242) 
-0.217553

>  <r_i_glide_ligand_efficiency_ln>  (242) 
-0.504431

>  <r_i_glide_gscore>  (242) 
-2.28324

>  <r_i_glide_lipo>  (242) 
-0.500123

>  <r_i_glide_hbond>  (242) 
0

>  <r_i_glide_metal>  (242) 
-0

>  <r_i_glide_rewards>  (242) 
-0.186725

>  <r_i_glide_evdw>  (242) 
-30.3349

>  <r_i_glide_ecoul>  (242) 
-0.514466

>  <r_i_glide_erotb>  (242) 
0

>  <r_i_glide_esite>  (242) 
-0.0024719

>  <r_i_glide_emodel>  (242) 
-34.4011

>  <r_i_glide_energy>  (242) 
-30.8494

>  <r_i_glide_einternal>  (242) 
0.748146

>  <r_i_glide_intrahb_reward>  (242) 
-0

>  <i_i_glide_confnum>  (242) 
2

>  <i_i_glide_posenum>  (242) 
10

>  <r_i_glide_eff_state_penalty>  (242) 
0

>  <ligand_id>  (242) 
81

>  <original_smiles>  (242) 
CC1(C)OC(=O)C=CC2(C)C3CC(O)C4C5(CCC12)CCC1(C)C3OC(=O)C(O)C4(C)C1(C)C5

>  <smiles>  (242) 
[H]OC1([H])C(=O)OC2([H])C3([H])C([H])([H])C([H])(O[H])C4([H])C5(C([H])([H])C([H])([H])C6([H])C(C([H])([H])[H])(C([H])([H])[H])OC(=O)C([H])=C([H])C36C([H])([H])[H])C([H])([H])C([H])([H])C2(C([H])([H])[H])C(C([H])([H])[H])(C5([H])[H])C14C([H])([H])[H]

$$$$
81:0:2
     RDKit          3D

 74 79  0  0  1  0  0  0  0  0999 V2000
    4.4346   -3.4546   -2.2953 C   0  0  0  0  0  0  0  0  0  0  0  0
    5.0170   -3.0119   -0.9201 C   0  0  0  0  0  0  0  0  0  0  0  0
    6.4059   -2.4640   -1.3391 C   0  0  0  0  0  0  0  0  0  0  0  0
    4.2899   -1.8478   -0.5206 O   0  0  0  0  0  0  0  0  0  0  0  0
    4.3714   -1.1411    0.6581 C   0  0  0  0  0  0  0  0  0  0  0  0
    3.8127   -0.0536    0.7439 O   0  0  0  0  0  0  0  0  0  0  0  0
    5.0778   -1.6745    1.8570 C   0  0  0  0  0  0  0  0  0  0  0  0
    5.6643   -2.8548    2.1677 C   0  0  0  0  0  0  0  0  0  0  0  0
    5.8594   -4.1639    1.4100 C   0  0  1  0  0  0  0  0  0  0  0  0
    7.3379   -4.0963    0.8786 C   0  0  0  0  0  0  0  0  0  0  0  0
    5.9858   -5.4478    2.4435 C   0  0  2  0  0  0  0  0  0  0  0  0
    5.9493   -6.8317    1.5893 C   0  0  0  0  0  0  0  0  0  0  0  0
    4.6182   -7.6341    1.0819 C   0  0  1  0  0  0  0  0  0  0  0  0
    4.9799   -8.9549    0.7394 O   0  0  0  0  0  0  0  0  0  0  0  0
    3.2202   -7.6516    1.9356 C   0  0  2  0  0  0  0  0  0  0  0  0
    2.2303   -6.2325    1.8898 C   0  0  1  0  0  0  0  0  0  0  0  0
    2.3430   -5.5116    0.4875 C   0  0  0  0  0  0  0  0  0  0  0  0
    3.2072   -4.1887    0.3923 C   0  0  0  0  0  0  0  0  0  0  0  0
    4.8112   -4.1876    0.1432 C   0  0  1  0  0  0  0  0  0  0  0  0
    1.5412   -5.1466    3.0303 C   0  0  0  0  0  0  0  0  0  0  0  0
    2.4787   -4.4948    4.3343 C   0  0  0  0  0  0  0  0  0  0  0  0
    3.8109   -5.5063    4.6421 C   0  0  2  0  0  0  0  0  0  0  0  0
    3.9479   -5.4744    6.1958 C   0  0  0  0  0  0  0  0  0  0  0  0
    5.3624   -5.3957    4.0006 C   0  0  1  0  0  0  0  0  0  0  0  0
    6.1500   -6.3239    4.7378 O   0  0  0  0  0  0  0  0  0  0  0  0
    6.0131   -7.6854    4.8359 C   0  0  0  0  0  0  0  0  0  0  0  0
    6.7149   -8.2771    5.6578 O   0  0  0  0  0  0  0  0  0  0  0  0
    5.1043   -8.5350    3.8770 C   0  0  1  0  0  0  0  0  0  0  0  0
    5.1047   -9.8570    4.4017 O   0  0  0  0  0  0  0  0  0  0  0  0
    3.6280   -8.0889    3.4243 C   0  0  2  0  0  0  0  0  0  0  0  0
    2.6921   -9.3537    3.6028 C   0  0  0  0  0  0  0  0  0  0  0  0
    3.1799   -6.7657    4.0557 C   0  0  1  0  0  0  0  0  0  0  0  0
    1.8941   -7.1349    4.9340 C   0  0  0  0  0  0  0  0  0  0  0  0
    3.2376   -5.9369    2.6568 C   0  0  0  0  0  0  0  0  0  0  0  0
    5.0291   -4.2651   -2.7230 H   0  0  0  0  0  0  0  0  0  0  0  0
    4.4338   -2.6442   -3.0188 H   0  0  0  0  0  0  0  0  0  0  0  0
    3.4118   -3.8227   -2.2800 H   0  0  0  0  0  0  0  0  0  0  0  0
    7.1101   -3.2420   -1.6282 H   0  0  0  0  0  0  0  0  0  0  0  0
    6.8436   -1.8043   -0.5949 H   0  0  0  0  0  0  0  0  0  0  0  0
    6.3088   -1.8282   -2.2161 H   0  0  0  0  0  0  0  0  0  0  0  0
    5.1253   -0.9477    2.6578 H   0  0  0  0  0  0  0  0  0  0  0  0
    6.1032   -2.8665    3.1481 H   0  0  0  0  0  0  0  0  0  0  0  0
    7.4744   -4.6828   -0.0279 H   0  0  0  0  0  0  0  0  0  0  0  0
    8.1242   -4.4281    1.5545 H   0  0  0  0  0  0  0  0  0  0  0  0
    7.6869   -3.0844    0.7121 H   0  0  0  0  0  0  0  0  0  0  0  0
    7.0186   -5.4575    2.7787 H   0  0  0  0  0  0  0  0  0  0  0  0
    6.4838   -6.6268    0.6635 H   0  0  0  0  0  0  0  0  0  0  0  0
    6.6812   -7.4992    2.0327 H   0  0  0  0  0  0  0  0  0  0  0  0
    4.3913   -7.2147    0.1068 H   0  0  0  0  0  0  0  0  0  0  0  0
    4.9203   -9.5208    1.4970 H   0  0  0  0  0  0  0  0  0  0  0  0
    2.6201   -8.4170    1.4379 H   0  0  0  0  0  0  0  0  0  0  0  0
    2.6131   -6.1996   -0.3080 H   0  0  0  0  0  0  0  0  0  0  0  0
    1.3291   -5.2428    0.2166 H   0  0  0  0  0  0  0  0  0  0  0  0
    2.6891   -3.6608   -0.3992 H   0  0  0  0  0  0  0  0  0  0  0  0
    2.9610   -3.5129    1.2120 H   0  0  0  0  0  0  0  0  0  0  0  0
    5.0387   -5.1007   -0.4049 H   0  0  0  0  0  0  0  0  0  0  0  0
    1.1632   -4.2833    2.4830 H   0  0  0  0  0  0  0  0  0  0  0  0
    0.6195   -5.5776    3.4200 H   0  0  0  0  0  0  0  0  0  0  0  0
    2.8630   -3.5082    4.0622 H   0  0  0  0  0  0  0  0  0  0  0  0
    1.8448   -4.2978    5.1981 H   0  0  0  0  0  0  0  0  0  0  0  0
    4.4100   -6.3701    6.6098 H   0  0  0  0  0  0  0  0  0  0  0  0
    2.9916   -5.3748    6.7099 H   0  0  0  0  0  0  0  0  0  0  0  0
    4.5437   -4.6146    6.5079 H   0  0  0  0  0  0  0  0  0  0  0  0
    5.7084   -4.4411    4.3903 H   0  0  0  0  0  0  0  0  0  0  0  0
    5.7016   -8.7849    3.0217 H   0  0  0  0  0  0  0  0  0  0  0  0
    5.9990  -10.1616    4.4364 H   0  0  0  0  0  0  0  0  0  0  0  0
    2.6297   -9.7162    4.6328 H   0  0  0  0  0  0  0  0  0  0  0  0
    3.0607  -10.1929    3.0053 H   0  0  0  0  0  0  0  0  0  0  0  0
    1.6702   -9.2101    3.2498 H   0  0  0  0  0  0  0  0  0  0  0  0
    1.0720   -7.5378    4.3458 H   0  0  0  0  0  0  0  0  0  0  0  0
    1.4266   -6.3449    5.5110 H   0  0  0  0  0  0  0  0  0  0  0  0
    2.1524   -7.8662    5.7001 H   0  0  0  0  0  0  0  0  0  0  0  0
    3.9697   -5.7546    1.9718 H   0  0  0  0  0  0  0  0  0  0  0  0
    3.5943   -4.8984    2.5635 H   0  0  0  0  0  0  0  0  0  0  0  0
  1  2  1  0
  1 35  1  0
  1 36  1  0
  1 37  1  0
  2 19  1  0
  2  3  1  0
  2  4  1  0
  3 38  1  0
  3 39  1  0
  3 40  1  0
  4  5  1  0
  5  6  2  0
  5  7  1  0
  7  8  2  0
  7 41  1  0
  8  9  1  0
  8 42  1  0
  9 19  1  0
  9 10  1  6
  9 11  1  0
 10 43  1  0
 10 44  1  0
 10 45  1  0
 11 24  1  0
 11 12  1  0
 11 46  1  1
 12 13  1  0
 12 47  1  0
 12 48  1  0
 13 14  1  0
 13 15  1  0
 13 49  1  6
 14 50  1  0
 15 30  1  0
 15 16  1  0
 15 51  1  6
 16 34  1  0
 16 17  1  6
 16 20  1  0
 17 18  1  0
 17 52  1  0
 17 53  1  0
 18 19  1  0
 18 54  1  0
 18 55  1  0
 19 56  1  6
 20 21  1  0
 20 57  1  0
 20 58  1  0
 21 22  1  0
 21 59  1  0
 21 60  1  0
 22 32  1  0
 22 23  1  1
 22 24  1  0
 23 61  1  0
 23 62  1  0
 23 63  1  0
 24 25  1  0
 24 64  1  1
 25 26  1  0
 26 27  2  0
 26 28  1  0
 28 29  1  0
 28 30  1  0
 28 65  1  6
 29 66  1  0
 30 31  1  1
 30 32  1  0
 31 67  1  0
 31 68  1  0
 31 69  1  0
 32 33  1  1
 32 34  1  0
 33 70  1  0
 33 71  1  0
 33 72  1  0
 34 73  1  0
 34 74  1  0
M  END
>  <i_m_ct_stereo_status>  (243) 
1

>  <s_m_source_file>  (243) 
/var/tmp/pbs.5076255.sched01/tmpbnv9a_8s/88lo2bg1ru.sdf

>  <i_m_source_file_index>  (243) 
29

>  <i_lp_mmshare_version>  (243) 
48012

>  <i_f3d_flags>  (243) 
0

>  <s_epik_input>  (243) 
W0NIXTE9W0NIXUMoPU8pT0MoW0NIM10pKFtDSDNdKVtDQEhdKFtDSDJdW0NIMl0yKVtDQF0xKFtDSDNdKVtDQEhdKFtDSDJdW0NASF0zW09IXSlbQ0BASF0oW0NAQF0oW0NIM10pKFtDSDJdW0NIMl00KVtDQEBdKFtDSDNdKShbQ0gyXTUpW0NAXTYoW0NASF0zW0NAQF0yNDUpW0NIM10pT0MoPU8pW0NASF02W09IXQ==

>  <s_epik_cmdline>  (243) 
J2VwaWtfcHl0aG9uJywgJy1waHQnLCAnMi4wJywgJy1waCcsICc3LjAnLCAnLXRuJywgJzgnLCAnLW1hJywgJzIwMCcsICctaW1hZScsICc8aW5maWxlLm1hZT4nLCAnLW9tYWUnLCAnPG91dGZpbGUubWFlPic=

>  <r_lp_tautomer_probability>  (243) 
1

>  <r_epik_Ionization_Penalty>  (243) 
7.25463e-06

>  <r_epik_Ionization_Penalty_Charging>  (243) 
0

>  <r_epik_Ionization_Penalty_Neutral>  (243) 
7.25463e-06

>  <r_epik_State_Penalty>  (243) 
-0

>  <r_epik_Charging_Adjusted_Penalty>  (243) 
0

>  <i_epik_Tot_Q>  (243) 
0

>  <i_epik_Tot_abs_Q>  (243) 
0

>  <s_epik_Chemistry_Notes>  (243) 
This compound has an ester and may undergo hydrolysis at high or low pH.

>  <s_lp_Force_Field>  (243) 
OPLS3e

>  <r_lp_Energy>  (243) 
520.481

>  <b_lp_Chiralities_Consistent>  (243) 
1

>  <s_lp_Variant>  (243) 
81:0-1

>  <s_i_glide_gridfile>  (243) 
pfpi4k_grid

>  <i_i_glide_lignum>  (243) 
29

>  <i_i_glide_rotatable_bonds>  (243) 
2

>  <r_i_docking_score>  (243) 
-2.25208

>  <r_i_glide_ligand_efficiency>  (243) 
-0.0662376

>  <r_i_glide_ligand_efficiency_sa>  (243) 
-0.214584

>  <r_i_glide_ligand_efficiency_ln>  (243) 
-0.497547

>  <r_i_glide_gscore>  (243) 
-2.25208

>  <r_i_glide_lipo>  (243) 
-0.555452

>  <r_i_glide_hbond>  (243) 
0

>  <r_i_glide_metal>  (243) 
-0

>  <r_i_glide_rewards>  (243) 
-0.195993

>  <r_i_glide_evdw>  (243) 
-29.6456

>  <r_i_glide_ecoul>  (243) 
-0.122348

>  <r_i_glide_erotb>  (243) 
0

>  <r_i_glide_esite>  (243) 
0

>  <r_i_glide_emodel>  (243) 
-32.5684

>  <r_i_glide_energy>  (243) 
-29.768

>  <r_i_glide_einternal>  (243) 
1.99413

>  <r_i_glide_intrahb_reward>  (243) 
-0

>  <i_i_glide_confnum>  (243) 
2

>  <i_i_glide_posenum>  (243) 
2

>  <r_i_glide_eff_state_penalty>  (243) 
0

>  <ligand_id>  (243) 
81

>  <original_smiles>  (243) 
CC1(C)OC(=O)C=CC2(C)C3CC(O)C4C5(CCC12)CCC1(C)C3OC(=O)C(O)C4(C)C1(C)C5

>  <smiles>  (243) 
[H]OC1([H])C(=O)OC2([H])C3([H])C([H])([H])C([H])(O[H])C4([H])C5(C([H])([H])C([H])([H])C6([H])C(C([H])([H])[H])(C([H])([H])[H])OC(=O)C([H])=C([H])C36C([H])([H])[H])C([H])([H])C([H])([H])C2(C([H])([H])[H])C(C([H])([H])[H])(C5([H])[H])C14C([H])([H])[H]

$$$$
82:0:0
     RDKit          3D

 94102  0  0  1  0  0  0  0  0999 V2000
    3.6189   -9.2368    1.0729 C   0  0  0  0  0  0  0  0  0  0  0  0
    3.9935   -8.2342    2.1548 C   0  0  0  0  0  0  0  0  0  0  0  0
    5.5119   -8.0244    2.1768 C   0  0  0  0  0  0  0  0  0  0  0  0
    3.2358   -6.9935    1.9145 O   0  0  0  0  0  0  0  0  0  0  0  0
    3.0817   -6.8506    3.3698 C   0  0  2  0  0  0  0  0  0  0  0  0
    3.2785   -8.3471    3.4883 C   0  0  2  0  0  0  0  0  0  0  0  0
    3.8672   -8.8420    4.7885 C   0  0  0  0  0  0  0  0  0  0  0  0
    2.9515   -8.3724    5.9087 C   0  0  2  0  0  0  0  0  0  0  0  0
    2.5846   -9.4252    6.9173 C   0  0  0  0  0  0  0  0  0  0  0  0
    1.4869   -8.8617    6.0568 C   0  0  2  0  0  0  0  0  0  0  0  0
    0.7275   -9.7196    5.0091 C   0  0  0  0  0  0  0  0  0  0  0  0
    0.1090   -8.9232    3.8371 C   0  0  0  0  0  0  0  0  0  0  0  0
   -0.1105   -9.4579    2.7348 O   0  0  0  0  0  0  0  0  0  0  0  0
   -0.0380   -7.6167    4.0681 O   0  0  0  0  0  0  0  0  0  0  0  0
    0.5813   -6.5623    3.3320 C   0  0  0  0  0  0  0  0  0  0  0  0
    1.8992   -6.0208    4.0203 C   0  0  1  0  0  0  0  0  0  0  0  0
    1.8216   -6.1402    5.6421 C   0  0  2  0  0  0  0  0  0  0  0  0
    3.0299   -6.8533    6.2214 C   0  0  2  0  0  0  0  0  0  0  0  0
    4.3392   -6.0003    6.1699 C   0  0  0  0  0  0  0  0  0  0  0  0
    4.5641   -4.7584    5.2081 C   0  0  0  0  0  0  0  0  0  0  0  0
    3.4396   -3.8152    4.5786 C   0  0  1  0  0  0  0  0  0  0  0  0
    3.9790   -2.3952    4.0083 C   0  0  2  0  0  0  0  0  0  0  0  0
    5.5101   -2.4442    3.9049 C   0  0  0  0  0  0  0  0  0  0  0  0
    3.6785   -1.3079    5.0860 C   0  0  0  0  0  0  0  0  0  0  0  0
    4.0221    0.1285    4.6908 C   0  0  0  0  0  0  0  0  0  0  0  0
    3.1359    0.4981    3.5186 C   0  0  1  0  0  0  0  0  0  0  0  0
    3.2155    1.8912    3.2856 O   0  0  0  0  0  0  0  0  0  0  0  0
    3.4038   -0.3619    2.2488 C   0  0  0  0  0  0  0  0  0  0  0  0
    2.2449   -0.0112    1.3081 C   0  0  0  0  0  0  0  0  0  0  0  0
    4.6586    0.0783    1.4564 C   0  0  0  0  0  0  0  0  0  0  0  0
    3.5239   -1.9247    2.5490 C   0  0  2  0  0  0  0  0  0  0  0  0
    2.4868   -2.7921    1.8173 C   0  0  0  0  0  0  0  0  0  0  0  0
    2.5358   -4.2499    2.2521 C   0  0  0  0  0  0  0  0  0  0  0  0
    2.2289   -4.4573    3.7540 C   0  0  1  0  0  0  0  0  0  0  0  0
    1.0243   -3.5489    4.1146 C   0  0  0  0  0  0  0  0  0  0  0  0
    0.5273   -6.4670    6.4881 C   0  0  2  0  0  0  0  0  0  0  0  0
   -0.8257   -5.8153    6.0872 C   0  0  0  0  0  0  0  0  0  0  0  0
   -1.1225   -5.4664    7.4687 O   0  0  0  0  0  0  0  0  0  0  0  0
    0.3055   -5.5165    7.7281 C   0  0  1  0  0  0  0  0  0  0  0  0
    0.6607   -6.0507    9.1271 C   0  0  0  0  0  0  0  0  0  0  0  0
   -0.2048   -6.5799    9.8576 O   0  0  0  0  0  0  0  0  0  0  0  0
    1.8707   -5.9231    9.4806 O   0  0  0  0  0  0  0  0  0  0  0  0
    0.4620   -8.0114    6.8071 C   0  0  0  0  0  0  0  0  0  0  0  0
    4.0332  -10.2240    1.3160 H   0  0  0  0  0  0  0  0  0  0  0  0
    4.0232   -8.9274    0.1163 H   0  0  0  0  0  0  0  0  0  0  0  0
    2.5397   -9.3445    0.9769 H   0  0  0  0  0  0  0  0  0  0  0  0
    6.0068   -8.9706    2.4087 H   0  0  0  0  0  0  0  0  0  0  0  0
    5.8361   -7.3068    2.9336 H   0  0  0  0  0  0  0  0  0  0  0  0
    5.8696   -7.6876    1.2076 H   0  0  0  0  0  0  0  0  0  0  0  0
    4.0135   -6.4556    3.7089 H   0  0  0  0  0  0  0  0  0  0  0  0
    2.4086   -8.9066    3.2301 H   0  0  0  0  0  0  0  0  0  0  0  0
    3.8999   -9.9358    4.8083 H   0  0  0  0  0  0  0  0  0  0  0  0
    4.8725   -8.4704    4.9848 H   0  0  0  0  0  0  0  0  0  0  0  0
    2.8705  -10.4643    6.7461 H   0  0  0  0  0  0  0  0  0  0  0  0
    2.6318   -9.1305    7.9613 H   0  0  0  0  0  0  0  0  0  0  0  0
    1.4208  -10.4667    4.6132 H   0  0  0  0  0  0  0  0  0  0  0  0
   -0.0666  -10.2660    5.5243 H   0  0  0  0  0  0  0  0  0  0  0  0
    0.7622   -6.8810    2.2970 H   0  0  0  0  0  0  0  0  0  0  0  0
   -0.1714   -5.7820    3.2782 H   0  0  0  0  0  0  0  0  0  0  0  0
    2.0027   -5.1556    6.0089 H   0  0  0  0  0  0  0  0  0  0  0  0
    2.8489   -6.8583    7.2970 H   0  0  0  0  0  0  0  0  0  0  0  0
    4.4033   -5.5749    7.1711 H   0  0  0  0  0  0  0  0  0  0  0  0
    5.2220   -6.6392    6.1253 H   0  0  0  0  0  0  0  0  0  0  0  0
    5.1448   -4.1114    5.8648 H   0  0  0  0  0  0  0  0  0  0  0  0
    5.2742   -5.0495    4.4338 H   0  0  0  0  0  0  0  0  0  0  0  0
    2.9625   -3.4859    5.4952 H   0  0  0  0  0  0  0  0  0  0  0  0
    5.9110   -1.5460    3.4371 H   0  0  0  0  0  0  0  0  0  0  0  0
    5.8165   -3.2843    3.2800 H   0  0  0  0  0  0  0  0  0  0  0  0
    5.9748   -2.5166    4.8868 H   0  0  0  0  0  0  0  0  0  0  0  0
    2.6197   -1.3217    5.3439 H   0  0  0  0  0  0  0  0  0  0  0  0
    4.2100   -1.5410    6.0089 H   0  0  0  0  0  0  0  0  0  0  0  0
    3.8106    0.7896    5.5321 H   0  0  0  0  0  0  0  0  0  0  0  0
    5.0787    0.2559    4.4596 H   0  0  0  0  0  0  0  0  0  0  0  0
    2.1063    0.3316    3.8368 H   0  0  0  0  0  0  0  0  0  0  0  0
    4.0314    2.0875    2.8422 H   0  0  0  0  0  0  0  0  0  0  0  0
    2.4397   -0.5380    0.3802 H   0  0  0  0  0  0  0  0  0  0  0  0
    2.2067    1.0588    1.0825 H   0  0  0  0  0  0  0  0  0  0  0  0
    1.2642   -0.2673    1.7187 H   0  0  0  0  0  0  0  0  0  0  0  0
    4.9191   -0.6356    0.6656 H   0  0  0  0  0  0  0  0  0  0  0  0
    5.5365    0.1919    2.0911 H   0  0  0  0  0  0  0  0  0  0  0  0
    4.4519    0.9856    0.9022 H   0  0  0  0  0  0  0  0  0  0  0  0
    4.3735   -2.2277    1.9322 H   0  0  0  0  0  0  0  0  0  0  0  0
    1.4800   -2.3844    1.8863 H   0  0  0  0  0  0  0  0  0  0  0  0
    2.7262   -2.7725    0.7548 H   0  0  0  0  0  0  0  0  0  0  0  0
    1.8465   -4.8194    1.6266 H   0  0  0  0  0  0  0  0  0  0  0  0
    3.5370   -4.6076    2.0135 H   0  0  0  0  0  0  0  0  0  0  0  0
    1.2307   -2.4849    4.0093 H   0  0  0  0  0  0  0  0  0  0  0  0
    0.7050   -3.6338    5.1497 H   0  0  0  0  0  0  0  0  0  0  0  0
    0.2315   -3.7613    3.4195 H   0  0  0  0  0  0  0  0  0  0  0  0
   -0.7722   -4.9460    5.4401 H   0  0  0  0  0  0  0  0  0  0  0  0
   -1.5453   -6.5184    5.6569 H   0  0  0  0  0  0  0  0  0  0  0  0
    0.7167   -4.5125    7.6383 H   0  0  0  0  0  0  0  0  0  0  0  0
   -0.5192   -8.4337    6.5812 H   0  0  0  0  0  0  0  0  0  0  0  0
    0.6133   -8.2557    7.8653 H   0  0  0  0  0  0  0  0  0  0  0  0
  1  2  1  0
  1 44  1  0
  1 45  1  0
  1 46  1  0
  2  6  1  0
  2  3  1  0
  2  4  1  0
  3 47  1  0
  3 48  1  0
  3 49  1  0
  4  5  1  0
  5 16  1  0
  5  6  1  0
  5 50  1  1
  6  7  1  0
  6 51  1  6
  8  7  1  6
  7 52  1  0
  7 53  1  0
  8 10  1  0
  8 18  1  0
  8  9  1  0
 10  9  1  1
  9 54  1  0
  9 55  1  0
 10 43  1  0
 10 11  1  0
 11 12  1  0
 11 56  1  0
 11 57  1  0
 12 13  2  0
 12 14  1  0
 14 15  1  0
 16 15  1  6
 15 58  1  0
 15 59  1  0
 16 34  1  0
 16 17  1  0
 17 18  1  0
 17 36  1  0
 17 60  1  1
 18 19  1  0
 18 61  1  1
 19 20  1  0
 19 62  1  0
 19 63  1  0
 20 21  1  0
 20 64  1  0
 20 65  1  0
 21 34  1  0
 21 22  1  0
 21 66  1  1
 22 31  1  0
 22 23  1  6
 22 24  1  0
 23 67  1  0
 23 68  1  0
 23 69  1  0
 24 25  1  0
 24 70  1  0
 24 71  1  0
 25 26  1  0
 25 72  1  0
 25 73  1  0
 26 27  1  0
 26 28  1  0
 26 74  1  1
 27 75  1  0
 28 29  1  0
 28 30  1  0
 28 31  1  0
 29 76  1  0
 29 77  1  0
 29 78  1  0
 30 79  1  0
 30 80  1  0
 30 81  1  0
 31 32  1  0
 31 82  1  6
 32 33  1  0
 32 83  1  0
 32 84  1  0
 33 34  1  0
 33 85  1  0
 33 86  1  0
 34 35  1  1
 35 87  1  0
 35 88  1  0
 35 89  1  0
 36 39  1  0
 36 37  1  6
 36 43  1  0
 37 38  1  0
 37 90  1  0
 37 91  1  0
 38 39  1  0
 39 40  1  0
 39 92  1  6
 40 41  2  0
 40 42  1  0
 43 93  1  0
 43 94  1  0
M  CHG  1  42  -1
M  END
>  <i_m_ct_stereo_status>  (244) 
1

>  <s_m_source_file>  (244) 
/var/tmp/pbs.5076255.sched01/tmpbnv9a_8s/88lo2bg1ru.sdf

>  <i_m_source_file_index>  (244) 
30

>  <i_lp_mmshare_version>  (244) 
48012

>  <i_f3d_flags>  (244) 
0

>  <s_epik_input>  (244) 
W0NAQF0xMjNbQ0BdNChbQ0gyXTIpW0NIMl1DKD1PKU9bQ0gyXVtDQF01KFtDQEhdNltDQEhdKFtDSDJdMSlDKE82KShbQ0gzXSlbQ0gzXSlbQ0BASF0oW0NAXTcoW0NIMl00KVtDSDJdT1tDQEhdN0MoPU8pW09IXSlbQ0BASF0zW0NIMl1bQ0gyXVtDQEhdOFtDQEBdOShbQ0gzXSlbQ0BIXShDKFtDSDNdKShbQ0gzXSlbQ0BIXShbT0hdKVtDSDJdW0NIMl05KVtDSDJdW0NIMl1bQ0BAXTU4W0NIM10=

>  <s_epik_cmdline>  (244) 
J2VwaWtfcHl0aG9uJywgJy1waHQnLCAnMi4wJywgJy1waCcsICc3LjAnLCAnLXRuJywgJzgnLCAnLW1hJywgJzIwMCcsICctaW1hZScsICc8aW5maWxlLm1hZT4nLCAnLW9tYWUnLCAnPG91dGZpbGUubWFlPic=

>  <r_epik_Ionization_Penalty>  (244) 
0.00050837

>  <r_epik_Ionization_Penalty_Charging>  (244) 
0.000505424

>  <r_epik_Ionization_Penalty_Neutral>  (244) 
2.94535e-06

>  <r_epik_State_Penalty>  (244) 
0.000314679

>  <r_epik_Charging_Adjusted_Penalty>  (244) 
0.000820103

>  <i_epik_Tot_Q>  (244) 
-1

>  <i_epik_Tot_abs_Q>  (244) 
1

>  <s_epik_Chemistry_Notes>  (244) 
This compound has an ester and may undergo hydrolysis at high or low pH.

>  <s_lp_Force_Field>  (244) 
OPLS3e

>  <r_lp_Energy>  (244) 
201.718

>  <b_lp_Chiralities_Consistent>  (244) 
1

>  <s_lp_Variant>  (244) 
82:0-1

>  <s_i_glide_gridfile>  (244) 
pfpi4k_grid

>  <i_i_glide_lignum>  (244) 
30

>  <i_i_glide_rotatable_bonds>  (244) 
2

>  <r_i_docking_score>  (244) 
-2.80452

>  <r_i_glide_ligand_efficiency>  (244) 
-0.0652214

>  <r_i_glide_ligand_efficiency_sa>  (244) 
-0.228496

>  <r_i_glide_ligand_efficiency_ln>  (244) 
-0.589036

>  <r_i_glide_gscore>  (244) 
-2.80452

>  <r_i_glide_lipo>  (244) 
-0.186489

>  <r_i_glide_hbond>  (244) 
-0.48

>  <r_i_glide_metal>  (244) 
-0

>  <r_i_glide_rewards>  (244) 
0

>  <r_i_glide_evdw>  (244) 
-18.2215

>  <r_i_glide_ecoul>  (244) 
-7.82046

>  <r_i_glide_erotb>  (244) 
0

>  <r_i_glide_esite>  (244) 
-0.0538872

>  <r_i_glide_emodel>  (244) 
-30.0746

>  <r_i_glide_energy>  (244) 
-26.0419

>  <r_i_glide_einternal>  (244) 
0.403874

>  <r_i_glide_intrahb_reward>  (244) 
-0

>  <i_i_glide_confnum>  (244) 
4

>  <i_i_glide_posenum>  (244) 
3

>  <r_i_glide_eff_state_penalty>  (244) 
0

>  <ligand_id>  (244) 
82

>  <original_smiles>  (244) 
CC1(C)OC2C1CC13CC14CC(=O)OCC21C(C3CCC2C3(C)CCC(O)C(C)(C)C3CCC21C)C1(COC1C(=O)O)C4

>  <smiles>  (244) 
[H]OC1([H])C([H])([H])C([H])([H])C2(C([H])([H])[H])C([H])(C([H])([H])C([H])([H])C3(C([H])([H])[H])C2([H])C([H])([H])C([H])([H])C2([H])C4([H])C5(C([H])([H])OC5([H])C(=O)[O-])C([H])([H])C56C([H])([H])C(=O)OC([H])([H])C43C3([H])OC(C([H])([H])[H])(C([H])([H])[H])C3([H])C([H])([H])C25C6([H])[H])C1(C([H])([H])[H])C([H])([H])[H]

$$$$
82:0:1
     RDKit          3D

 94102  0  0  1  0  0  0  0  0999 V2000
    0.0109   -0.6582    6.2481 C   0  0  0  0  0  0  0  0  0  0  0  0
    1.2149   -1.5898    6.1420 C   0  0  0  0  0  0  0  0  0  0  0  0
    1.6030   -2.1143    7.5235 C   0  0  0  0  0  0  0  0  0  0  0  0
    0.8683   -2.6662    5.1979 O   0  0  0  0  0  0  0  0  0  0  0  0
    2.2405   -2.6296    4.6950 C   0  0  2  0  0  0  0  0  0  0  0  0
    2.3368   -1.2078    5.1863 C   0  0  2  0  0  0  0  0  0  0  0  0
    3.7106   -0.7280    5.5440 C   0  0  0  0  0  0  0  0  0  0  0  0
    4.6012   -0.8760    4.3223 C   0  0  2  0  0  0  0  0  0  0  0  0
    5.4454    0.3377    4.0070 C   0  0  0  0  0  0  0  0  0  0  0  0
    4.3731   -0.0558    3.0205 C   0  0  2  0  0  0  0  0  0  0  0  0
    3.1311    0.8200    2.7403 C   0  0  0  0  0  0  0  0  0  0  0  0
    1.8674    0.0647    2.2476 C   0  0  0  0  0  0  0  0  0  0  0  0
    0.7338    0.5052    2.4300 O   0  0  0  0  0  0  0  0  0  0  0  0
    2.1520   -1.1519    1.7855 O   0  0  0  0  0  0  0  0  0  0  0  0
    1.6198   -2.3662    2.2941 C   0  0  0  0  0  0  0  0  0  0  0  0
    2.6219   -3.1211    3.2306 C   0  0  1  0  0  0  0  0  0  0  0  0
    4.1570   -2.8285    2.8125 C   0  0  2  0  0  0  0  0  0  0  0  0
    5.0023   -2.3362    3.9734 C   0  0  2  0  0  0  0  0  0  0  0  0
    5.2810   -3.4448    5.0563 C   0  0  0  0  0  0  0  0  0  0  0  0
    4.4698   -4.7988    5.1963 C   0  0  0  0  0  0  0  0  0  0  0  0
    3.6397   -5.5522    4.0592 C   0  0  1  0  0  0  0  0  0  0  0  0
    3.2950   -7.1007    4.4095 C   0  0  2  0  0  0  0  0  0  0  0  0
    3.5841   -7.4002    5.9175 C   0  0  0  0  0  0  0  0  0  0  0  0
    4.3170   -7.9715    3.6151 C   0  0  0  0  0  0  0  0  0  0  0  0
    4.0873   -9.4767    3.6814 C   0  0  0  0  0  0  0  0  0  0  0  0
    2.7558   -9.7833    3.0110 C   0  0  1  0  0  0  0  0  0  0  0  0
    2.6388  -11.1888    2.8851 O   0  0  0  0  0  0  0  0  0  0  0  0
    1.5420   -9.1428    3.7581 C   0  0  0  0  0  0  0  0  0  0  0  0
    0.3376   -9.3162    2.7895 C   0  0  0  0  0  0  0  0  0  0  0  0
    1.1739   -9.9744    5.0199 C   0  0  0  0  0  0  0  0  0  0  0  0
    1.7906   -7.6174    4.1772 C   0  0  2  0  0  0  0  0  0  0  0  0
    0.7925   -6.6181    3.5516 C   0  0  0  0  0  0  0  0  0  0  0  0
    1.1490   -5.1673    3.8244 C   0  0  0  0  0  0  0  0  0  0  0  0
    2.5114   -4.7497    3.2395 C   0  0  1  0  0  0  0  0  0  0  0  0
    2.5894   -5.2963    1.7694 C   0  0  0  0  0  0  0  0  0  0  0  0
    4.6525   -2.1277    1.4505 C   0  0  2  0  0  0  0  0  0  0  0  0
    3.9992   -2.5200    0.0856 C   0  0  0  0  0  0  0  0  0  0  0  0
    4.9599   -3.5731   -0.1498 O   0  0  0  0  0  0  0  0  0  0  0  0
    5.8518   -2.9017    0.7717 C   0  0  1  0  0  0  0  0  0  0  0  0
    6.9043   -2.0758   -0.0344 C   0  0  0  0  0  0  0  0  0  0  0  0
    7.8925   -1.6434    0.5927 O   0  0  0  0  0  0  0  0  0  0  0  0
    6.7131   -1.8753   -1.2514 O   0  0  0  0  0  0  0  0  0  0  0  0
    4.9046   -0.6038    1.7059 C   0  0  0  0  0  0  0  0  0  0  0  0
    0.2614    0.2372    6.8180 H   0  0  0  0  0  0  0  0  0  0  0  0
   -0.8205   -1.1545    6.7481 H   0  0  0  0  0  0  0  0  0  0  0  0
   -0.3465   -0.3386    5.2718 H   0  0  0  0  0  0  0  0  0  0  0  0
    1.9062   -1.2854    8.1637 H   0  0  0  0  0  0  0  0  0  0  0  0
    2.4473   -2.8045    7.5021 H   0  0  0  0  0  0  0  0  0  0  0  0
    0.7746   -2.6232    8.0161 H   0  0  0  0  0  0  0  0  0  0  0  0
    2.8004   -3.1818    5.4146 H   0  0  0  0  0  0  0  0  0  0  0  0
    1.8320   -0.5148    4.5680 H   0  0  0  0  0  0  0  0  0  0  0  0
    3.6680    0.3171    5.8350 H   0  0  0  0  0  0  0  0  0  0  0  0
    4.1324   -1.2760    6.3801 H   0  0  0  0  0  0  0  0  0  0  0  0
    5.2690    1.2528    4.5650 H   0  0  0  0  0  0  0  0  0  0  0  0
    6.4886    0.1600    3.7586 H   0  0  0  0  0  0  0  0  0  0  0  0
    2.8681    1.3413    3.6563 H   0  0  0  0  0  0  0  0  0  0  0  0
    3.3846    1.5862    2.0051 H   0  0  0  0  0  0  0  0  0  0  0  0
    0.6464   -2.2320    2.7531 H   0  0  0  0  0  0  0  0  0  0  0  0
    1.4662   -2.9830    1.4384 H   0  0  0  0  0  0  0  0  0  0  0  0
    4.5814   -3.7916    2.6539 H   0  0  0  0  0  0  0  0  0  0  0  0
    5.9833   -2.2218    3.5240 H   0  0  0  0  0  0  0  0  0  0  0  0
    6.2985   -3.7870    4.8843 H   0  0  0  0  0  0  0  0  0  0  0  0
    5.3873   -2.9849    6.0342 H   0  0  0  0  0  0  0  0  0  0  0  0
    5.2702   -5.4876    5.4614 H   0  0  0  0  0  0  0  0  0  0  0  0
    3.8833   -4.7466    6.1109 H   0  0  0  0  0  0  0  0  0  0  0  0
    4.4330   -5.6656    3.3253 H   0  0  0  0  0  0  0  0  0  0  0  0
    3.2753   -8.4018    6.2138 H   0  0  0  0  0  0  0  0  0  0  0  0
    3.0401   -6.7211    6.5819 H   0  0  0  0  0  0  0  0  0  0  0  0
    4.6438   -7.3587    6.1784 H   0  0  0  0  0  0  0  0  0  0  0  0
    4.3085   -7.6994    2.5598 H   0  0  0  0  0  0  0  0  0  0  0  0
    5.3304   -7.7646    3.9616 H   0  0  0  0  0  0  0  0  0  0  0  0
    4.8943   -9.9863    3.1472 H   0  0  0  0  0  0  0  0  0  0  0  0
    4.1269   -9.8580    4.7030 H   0  0  0  0  0  0  0  0  0  0  0  0
    2.7958   -9.3934    1.9906 H   0  0  0  0  0  0  0  0  0  0  0  0
    3.2327  -11.4991    2.2131 H   0  0  0  0  0  0  0  0  0  0  0  0
   -0.5960   -8.9226    3.1975 H   0  0  0  0  0  0  0  0  0  0  0  0
    0.1524  -10.3664    2.5576 H   0  0  0  0  0  0  0  0  0  0  0  0
    0.5230   -8.8338    1.8285 H   0  0  0  0  0  0  0  0  0  0  0  0
    0.3443   -9.5212    5.5660 H   0  0  0  0  0  0  0  0  0  0  0  0
    2.0052  -10.0750    5.7098 H   0  0  0  0  0  0  0  0  0  0  0  0
    0.8507  -10.9867    4.7731 H   0  0  0  0  0  0  0  0  0  0  0  0
    1.3822   -7.5830    5.1913 H   0  0  0  0  0  0  0  0  0  0  0  0
    0.6274   -6.7757    2.4886 H   0  0  0  0  0  0  0  0  0  0  0  0
   -0.1767   -6.7908    4.0097 H   0  0  0  0  0  0  0  0  0  0  0  0
    0.3558   -4.5213    3.4439 H   0  0  0  0  0  0  0  0  0  0  0  0
    1.1575   -5.0446    4.9047 H   0  0  0  0  0  0  0  0  0  0  0  0
    2.6143   -6.3865    1.7378 H   0  0  0  0  0  0  0  0  0  0  0  0
    3.4958   -5.0122    1.2386 H   0  0  0  0  0  0  0  0  0  0  0  0
    1.7432   -5.0073    1.1465 H   0  0  0  0  0  0  0  0  0  0  0  0
    3.0060   -2.9271    0.0605 H   0  0  0  0  0  0  0  0  0  0  0  0
    4.1093   -1.7320   -0.6637 H   0  0  0  0  0  0  0  0  0  0  0  0
    6.3487   -3.6315    1.4072 H   0  0  0  0  0  0  0  0  0  0  0  0
    4.5304    0.0003    0.8747 H   0  0  0  0  0  0  0  0  0  0  0  0
    5.9677   -0.3732    1.7298 H   0  0  0  0  0  0  0  0  0  0  0  0
  1  2  1  0
  1 44  1  0
  1 45  1  0
  1 46  1  0
  2  6  1  0
  2  3  1  0
  2  4  1  0
  3 47  1  0
  3 48  1  0
  3 49  1  0
  4  5  1  0
  5 16  1  0
  5  6  1  0
  5 50  1  1
  6  7  1  0
  6 51  1  6
  8  7  1  1
  7 52  1  0
  7 53  1  0
  8 10  1  0
  8 18  1  0
  8  9  1  0
 10  9  1  1
  9 54  1  0
  9 55  1  0
 10 43  1  0
 10 11  1  0
 11 12  1  0
 11 56  1  0
 11 57  1  0
 12 13  2  0
 12 14  1  0
 14 15  1  0
 16 15  1  6
 15 58  1  0
 15 59  1  0
 16 34  1  0
 16 17  1  0
 17 18  1  0
 17 36  1  0
 17 60  1  6
 18 19  1  0
 18 61  1  6
 19 20  1  0
 19 62  1  0
 19 63  1  0
 20 21  1  0
 20 64  1  0
 20 65  1  0
 21 34  1  0
 21 22  1  0
 21 66  1  6
 22 31  1  0
 22 23  1  1
 22 24  1  0
 23 67  1  0
 23 68  1  0
 23 69  1  0
 24 25  1  0
 24 70  1  0
 24 71  1  0
 25 26  1  0
 25 72  1  0
 25 73  1  0
 26 27  1  0
 26 28  1  0
 26 74  1  6
 27 75  1  0
 28 29  1  0
 28 30  1  0
 28 31  1  0
 29 76  1  0
 29 77  1  0
 29 78  1  0
 30 79  1  0
 30 80  1  0
 30 81  1  0
 31 32  1  0
 31 82  1  1
 32 33  1  0
 32 83  1  0
 32 84  1  0
 33 34  1  0
 33 85  1  0
 33 86  1  0
 34 35  1  6
 35 87  1  0
 35 88  1  0
 35 89  1  0
 36 39  1  0
 36 37  1  6
 36 43  1  0
 37 38  1  0
 37 90  1  0
 37 91  1  0
 38 39  1  0
 39 40  1  0
 39 92  1  1
 40 41  2  0
 40 42  1  0
 43 93  1  0
 43 94  1  0
M  CHG  1  42  -1
M  END
>  <i_m_ct_stereo_status>  (245) 
1

>  <s_m_source_file>  (245) 
/var/tmp/pbs.5076255.sched01/tmpbnv9a_8s/88lo2bg1ru.sdf

>  <i_m_source_file_index>  (245) 
30

>  <i_lp_mmshare_version>  (245) 
48012

>  <i_f3d_flags>  (245) 
0

>  <s_epik_input>  (245) 
W0NAQF0xMjNbQ0BdNChbQ0gyXTIpW0NIMl1DKD1PKU9bQ0gyXVtDQF01KFtDQEhdNltDQEhdKFtDSDJdMSlDKE82KShbQ0gzXSlbQ0gzXSlbQ0BASF0oW0NAXTcoW0NIMl00KVtDSDJdT1tDQEhdN0MoPU8pW09IXSlbQ0BASF0zW0NIMl1bQ0gyXVtDQEhdOFtDQEBdOShbQ0gzXSlbQ0BIXShDKFtDSDNdKShbQ0gzXSlbQ0BIXShbT0hdKVtDSDJdW0NIMl05KVtDSDJdW0NIMl1bQ0BAXTU4W0NIM10=

>  <s_epik_cmdline>  (245) 
J2VwaWtfcHl0aG9uJywgJy1waHQnLCAnMi4wJywgJy1waCcsICc3LjAnLCAnLXRuJywgJzgnLCAnLW1hJywgJzIwMCcsICctaW1hZScsICc8aW5maWxlLm1hZT4nLCAnLW9tYWUnLCAnPG91dGZpbGUubWFlPic=

>  <r_epik_Ionization_Penalty>  (245) 
0.00050837

>  <r_epik_Ionization_Penalty_Charging>  (245) 
0.000505424

>  <r_epik_Ionization_Penalty_Neutral>  (245) 
2.94535e-06

>  <r_epik_State_Penalty>  (245) 
0.000314679

>  <r_epik_Charging_Adjusted_Penalty>  (245) 
0.000820103

>  <i_epik_Tot_Q>  (245) 
-1

>  <i_epik_Tot_abs_Q>  (245) 
1

>  <s_epik_Chemistry_Notes>  (245) 
This compound has an ester and may undergo hydrolysis at high or low pH.

>  <s_lp_Force_Field>  (245) 
OPLS3e

>  <r_lp_Energy>  (245) 
201.718

>  <b_lp_Chiralities_Consistent>  (245) 
1

>  <s_lp_Variant>  (245) 
82:0-1

>  <s_i_glide_gridfile>  (245) 
pfpi4k_grid

>  <i_i_glide_lignum>  (245) 
30

>  <i_i_glide_rotatable_bonds>  (245) 
2

>  <r_i_docking_score>  (245) 
-2.46859

>  <r_i_glide_ligand_efficiency>  (245) 
-0.0574091

>  <r_i_glide_ligand_efficiency_sa>  (245) 
-0.201127

>  <r_i_glide_ligand_efficiency_ln>  (245) 
-0.518481

>  <r_i_glide_gscore>  (245) 
-2.46859

>  <r_i_glide_lipo>  (245) 
-0.498875

>  <r_i_glide_hbond>  (245) 
-0.305167

>  <r_i_glide_metal>  (245) 
-0

>  <r_i_glide_rewards>  (245) 
0

>  <r_i_glide_evdw>  (245) 
-24.3948

>  <r_i_glide_ecoul>  (245) 
-2.5999

>  <r_i_glide_erotb>  (245) 
0

>  <r_i_glide_esite>  (245) 
-0.0548256

>  <r_i_glide_emodel>  (245) 
-30.8783

>  <r_i_glide_energy>  (245) 
-26.9947

>  <r_i_glide_einternal>  (245) 
0.848493

>  <r_i_glide_intrahb_reward>  (245) 
-0

>  <i_i_glide_confnum>  (245) 
3

>  <i_i_glide_posenum>  (245) 
37

>  <r_i_glide_eff_state_penalty>  (245) 
0

>  <ligand_id>  (245) 
82

>  <original_smiles>  (245) 
CC1(C)OC2C1CC13CC14CC(=O)OCC21C(C3CCC2C3(C)CCC(O)C(C)(C)C3CCC21C)C1(COC1C(=O)O)C4

>  <smiles>  (245) 
[H]OC1([H])C([H])([H])C([H])([H])C2(C([H])([H])[H])C([H])(C([H])([H])C([H])([H])C3(C([H])([H])[H])C2([H])C([H])([H])C([H])([H])C2([H])C4([H])C5(C([H])([H])OC5([H])C(=O)[O-])C([H])([H])C56C([H])([H])C(=O)OC([H])([H])C43C3([H])OC(C([H])([H])[H])(C([H])([H])[H])C3([H])C([H])([H])C25C6([H])[H])C1(C([H])([H])[H])C([H])([H])[H]

$$$$
82:0:2
     RDKit          3D

 94102  0  0  1  0  0  0  0  0999 V2000
    0.2151   -0.3600    6.2066 C   0  0  0  0  0  0  0  0  0  0  0  0
    1.3531   -1.3791    6.1255 C   0  0  0  0  0  0  0  0  0  0  0  0
    1.7268   -1.8653    7.5316 C   0  0  0  0  0  0  0  0  0  0  0  0
    0.9260   -2.4700    5.2380 O   0  0  0  0  0  0  0  0  0  0  0  0
    2.2918   -2.5462    4.7149 C   0  0  2  0  0  0  0  0  0  0  0  0
    2.4850   -1.1120    5.1455 C   0  0  2  0  0  0  0  0  0  0  0  0
    3.8928   -0.7108    5.4705 C   0  0  0  0  0  0  0  0  0  0  0  0
    4.7666   -0.9720    4.2472 C   0  0  2  0  0  0  0  0  0  0  0  0
    5.6788    0.1713    3.8741 C   0  0  0  0  0  0  0  0  0  0  0  0
    4.5799   -0.2001    2.9115 C   0  0  2  0  0  0  0  0  0  0  0  0
    3.3846    0.7391    2.6079 C   0  0  0  0  0  0  0  0  0  0  0  0
    2.0698    0.0554    2.1589 C   0  0  0  0  0  0  0  0  0  0  0  0
    0.9746    0.5903    2.3228 O   0  0  0  0  0  0  0  0  0  0  0  0
    2.2555   -1.1880    1.7334 O   0  0  0  0  0  0  0  0  0  0  0  0
    1.6588   -2.3487    2.3085 C   0  0  0  0  0  0  0  0  0  0  0  0
    2.6307   -3.1231    3.2716 C   0  0  1  0  0  0  0  0  0  0  0  0
    4.1771   -2.9512    2.8125 C   0  0  2  0  0  0  0  0  0  0  0  0
    5.0624   -2.4709    3.9496 C   0  0  2  0  0  0  0  0  0  0  0  0
    5.2936   -3.5489    5.0708 C   0  0  0  0  0  0  0  0  0  0  0  0
    4.3876   -4.8333    5.2886 C   0  0  0  0  0  0  0  0  0  0  0  0
    3.4913   -5.5742    4.1936 C   0  0  1  0  0  0  0  0  0  0  0  0
    3.0470   -7.0829    4.6201 C   0  0  2  0  0  0  0  0  0  0  0  0
    3.3335   -7.3359    6.1378 C   0  0  0  0  0  0  0  0  0  0  0  0
    3.9986   -8.0523    3.8548 C   0  0  0  0  0  0  0  0  0  0  0  0
    3.6661   -9.5347    3.9896 C   0  0  0  0  0  0  0  0  0  0  0  0
    2.3076   -9.7814    3.3522 C   0  0  1  0  0  0  0  0  0  0  0  0
    2.0986  -11.1797    3.3170 O   0  0  0  0  0  0  0  0  0  0  0  0
    1.1457   -9.0273    4.0668 C   0  0  0  0  0  0  0  0  0  0  0  0
   -0.0746   -9.1607    3.1106 C   0  0  0  0  0  0  0  0  0  0  0  0
    0.7428   -9.7731    5.3703 C   0  0  0  0  0  0  0  0  0  0  0  0
    1.5072   -7.5038    4.4167 C   0  0  2  0  0  0  0  0  0  0  0  0
    0.5677   -6.4666    3.7630 C   0  0  0  0  0  0  0  0  0  0  0  0
    1.0288   -5.0334    3.9692 C   0  0  0  0  0  0  0  0  0  0  0  0
    2.4085   -4.7337    3.3449 C   0  0  1  0  0  0  0  0  0  0  0  0
    2.4325   -5.3525    1.9032 C   0  0  0  0  0  0  0  0  0  0  0  0
    4.6974   -2.3446    1.4251 C   0  0  2  0  0  0  0  0  0  0  0  0
    3.9912   -2.7408    0.0945 C   0  0  0  0  0  0  0  0  0  0  0  0
    4.8955   -3.8478   -0.1159 O   0  0  0  0  0  0  0  0  0  0  0  0
    5.8385   -3.2135    0.7750 C   0  0  1  0  0  0  0  0  0  0  0  0
    6.9560   -2.4810   -0.0364 C   0  0  0  0  0  0  0  0  0  0  0  0
    8.1028   -2.5462    0.4468 O   0  0  0  0  0  0  0  0  0  0  0  0
    6.6642   -1.8675   -1.0949 O   0  0  0  0  0  0  0  0  0  0  0  0
    5.0673   -0.8359    1.6144 C   0  0  0  0  0  0  0  0  0  0  0  0
    0.5332    0.5424    6.7331 H   0  0  0  0  0  0  0  0  0  0  0  0
   -0.6417   -0.7720    6.7374 H   0  0  0  0  0  0  0  0  0  0  0  0
   -0.1314   -0.0585    5.2179 H   0  0  0  0  0  0  0  0  0  0  0  0
    2.0933   -1.0284    8.1319 H   0  0  0  0  0  0  0  0  0  0  0  0
    2.5239   -2.6111    7.5284 H   0  0  0  0  0  0  0  0  0  0  0  0
    0.8724   -2.2959    8.0531 H   0  0  0  0  0  0  0  0  0  0  0  0
    2.8251   -3.1081    5.4482 H   0  0  0  0  0  0  0  0  0  0  0  0
    2.0259   -0.3986    4.5011 H   0  0  0  0  0  0  0  0  0  0  0  0
    3.9220    0.3490    5.7229 H   0  0  0  0  0  0  0  0  0  0  0  0
    4.2854   -1.2512    6.3279 H   0  0  0  0  0  0  0  0  0  0  0  0
    5.5673    1.1133    4.4073 H   0  0  0  0  0  0  0  0  0  0  0  0
    6.7079   -0.0704    3.6218 H   0  0  0  0  0  0  0  0  0  0  0  0
    3.1728    1.3288    3.5032 H   0  0  0  0  0  0  0  0  0  0  0  0
    3.6635    1.4426    1.8246 H   0  0  0  0  0  0  0  0  0  0  0  0
    0.7055   -2.1141    2.7817 H   0  0  0  0  0  0  0  0  0  0  0  0
    1.4081   -2.9822    1.4777 H   0  0  0  0  0  0  0  0  0  0  0  0
    4.5406   -3.9496    2.6969 H   0  0  0  0  0  0  0  0  0  0  0  0
    6.0499   -2.4293    3.4938 H   0  0  0  0  0  0  0  0  0  0  0  0
    6.2815   -3.9625    4.8760 H   0  0  0  0  0  0  0  0  0  0  0  0
    5.4471   -3.0559    6.0307 H   0  0  0  0  0  0  0  0  0  0  0  0
    5.1410   -5.5611    5.5826 H   0  0  0  0  0  0  0  0  0  0  0  0
    3.8177   -4.6965    6.2048 H   0  0  0  0  0  0  0  0  0  0  0  0
    4.2712   -5.7728    3.4634 H   0  0  0  0  0  0  0  0  0  0  0  0
    2.9617   -8.3009    6.4769 H   0  0  0  0  0  0  0  0  0  0  0  0
    2.8448   -6.5952    6.7742 H   0  0  0  0  0  0  0  0  0  0  0  0
    4.3959   -7.3546    6.3851 H   0  0  0  0  0  0  0  0  0  0  0  0
    3.9972   -7.8261    2.7894 H   0  0  0  0  0  0  0  0  0  0  0  0
    5.0283   -7.9000    4.1808 H   0  0  0  0  0  0  0  0  0  0  0  0
    4.4260  -10.1206    3.4666 H   0  0  0  0  0  0  0  0  0  0  0  0
    3.6972   -9.8755    5.0247 H   0  0  0  0  0  0  0  0  0  0  0  0
    2.3714   -9.4571    2.3113 H   0  0  0  0  0  0  0  0  0  0  0  0
    1.3744  -11.3694    2.7437 H   0  0  0  0  0  0  0  0  0  0  0  0
   -0.9726   -8.6867    3.5095 H   0  0  0  0  0  0  0  0  0  0  0  0
   -0.3388  -10.2049    2.9334 H   0  0  0  0  0  0  0  0  0  0  0  0
    0.1325   -8.7379    2.1252 H   0  0  0  0  0  0  0  0  0  0  0  0
   -0.0459   -9.2442    5.9062 H   0  0  0  0  0  0  0  0  0  0  0  0
    1.5789   -9.9040    6.0531 H   0  0  0  0  0  0  0  0  0  0  0  0
    0.3509  -10.7728    5.1748 H   0  0  0  0  0  0  0  0  0  0  0  0
    1.1149   -7.3979    5.4295 H   0  0  0  0  0  0  0  0  0  0  0  0
    0.3828   -6.6558    2.7092 H   0  0  0  0  0  0  0  0  0  0  0  0
   -0.4110   -6.5561    4.2335 H   0  0  0  0  0  0  0  0  0  0  0  0
    0.2729   -4.3594    3.5692 H   0  0  0  0  0  0  0  0  0  0  0  0
    1.0573   -4.8645    5.0451 H   0  0  0  0  0  0  0  0  0  0  0  0
    2.3836   -6.4419    1.9218 H   0  0  0  0  0  0  0  0  0  0  0  0
    3.3496   -5.1507    1.3560 H   0  0  0  0  0  0  0  0  0  0  0  0
    1.5974   -5.0360    1.2826 H   0  0  0  0  0  0  0  0  0  0  0  0
    2.9599   -3.0679    0.1403 H   0  0  0  0  0  0  0  0  0  0  0  0
    4.1219   -1.9846   -0.6833 H   0  0  0  0  0  0  0  0  0  0  0  0
    6.2893   -3.9421    1.4540 H   0  0  0  0  0  0  0  0  0  0  0  0
    4.7327   -0.2432    0.7621 H   0  0  0  0  0  0  0  0  0  0  0  0
    6.1499   -0.6964    1.6169 H   0  0  0  0  0  0  0  0  0  0  0  0
  1  2  1  0
  1 44  1  0
  1 45  1  0
  1 46  1  0
  2  6  1  0
  2  3  1  0
  2  4  1  0
  3 47  1  0
  3 48  1  0
  3 49  1  0
  4  5  1  0
  5 16  1  0
  5  6  1  0
  5 50  1  1
  6  7  1  0
  6 51  1  6
  8  7  1  1
  7 52  1  0
  7 53  1  0
  8 10  1  0
  8 18  1  0
  8  9  1  0
 10  9  1  1
  9 54  1  0
  9 55  1  0
 10 43  1  0
 10 11  1  0
 11 12  1  0
 11 56  1  0
 11 57  1  0
 12 13  2  0
 12 14  1  0
 14 15  1  0
 16 15  1  6
 15 58  1  0
 15 59  1  0
 16 34  1  0
 16 17  1  0
 17 18  1  0
 17 36  1  0
 17 60  1  6
 18 19  1  0
 18 61  1  6
 19 20  1  0
 19 62  1  0
 19 63  1  0
 20 21  1  0
 20 64  1  0
 20 65  1  0
 21 34  1  0
 21 22  1  0
 21 66  1  6
 22 31  1  0
 22 23  1  1
 22 24  1  0
 23 67  1  0
 23 68  1  0
 23 69  1  0
 24 25  1  0
 24 70  1  0
 24 71  1  0
 25 26  1  0
 25 72  1  0
 25 73  1  0
 26 27  1  0
 26 28  1  0
 26 74  1  6
 27 75  1  0
 28 29  1  0
 28 30  1  0
 28 31  1  0
 29 76  1  0
 29 77  1  0
 29 78  1  0
 30 79  1  0
 30 80  1  0
 30 81  1  0
 31 32  1  0
 31 82  1  1
 32 33  1  0
 32 83  1  0
 32 84  1  0
 33 34  1  0
 33 85  1  0
 33 86  1  0
 34 35  1  6
 35 87  1  0
 35 88  1  0
 35 89  1  0
 36 39  1  0
 36 37  1  6
 36 43  1  0
 37 38  1  0
 37 90  1  0
 37 91  1  0
 38 39  1  0
 39 40  1  0
 39 92  1  1
 40 41  2  0
 40 42  1  0
 43 93  1  0
 43 94  1  0
M  CHG  1  42  -1
M  END
>  <i_m_ct_stereo_status>  (246) 
1

>  <s_m_source_file>  (246) 
/var/tmp/pbs.5076255.sched01/tmpbnv9a_8s/88lo2bg1ru.sdf

>  <i_m_source_file_index>  (246) 
30

>  <i_lp_mmshare_version>  (246) 
48012

>  <i_f3d_flags>  (246) 
0

>  <s_epik_input>  (246) 
W0NAQF0xMjNbQ0BdNChbQ0gyXTIpW0NIMl1DKD1PKU9bQ0gyXVtDQF01KFtDQEhdNltDQEhdKFtDSDJdMSlDKE82KShbQ0gzXSlbQ0gzXSlbQ0BASF0oW0NAXTcoW0NIMl00KVtDSDJdT1tDQEhdN0MoPU8pW09IXSlbQ0BASF0zW0NIMl1bQ0gyXVtDQEhdOFtDQEBdOShbQ0gzXSlbQ0BIXShDKFtDSDNdKShbQ0gzXSlbQ0BIXShbT0hdKVtDSDJdW0NIMl05KVtDSDJdW0NIMl1bQ0BAXTU4W0NIM10=

>  <s_epik_cmdline>  (246) 
J2VwaWtfcHl0aG9uJywgJy1waHQnLCAnMi4wJywgJy1waCcsICc3LjAnLCAnLXRuJywgJzgnLCAnLW1hJywgJzIwMCcsICctaW1hZScsICc8aW5maWxlLm1hZT4nLCAnLW9tYWUnLCAnPG91dGZpbGUubWFlPic=

>  <r_epik_Ionization_Penalty>  (246) 
0.00050837

>  <r_epik_Ionization_Penalty_Charging>  (246) 
0.000505424

>  <r_epik_Ionization_Penalty_Neutral>  (246) 
2.94535e-06

>  <r_epik_State_Penalty>  (246) 
0.000314679

>  <r_epik_Charging_Adjusted_Penalty>  (246) 
0.000820103

>  <i_epik_Tot_Q>  (246) 
-1

>  <i_epik_Tot_abs_Q>  (246) 
1

>  <s_epik_Chemistry_Notes>  (246) 
This compound has an ester and may undergo hydrolysis at high or low pH.

>  <s_lp_Force_Field>  (246) 
OPLS3e

>  <r_lp_Energy>  (246) 
201.718

>  <b_lp_Chiralities_Consistent>  (246) 
1

>  <s_lp_Variant>  (246) 
82:0-1

>  <s_i_glide_gridfile>  (246) 
pfpi4k_grid

>  <i_i_glide_lignum>  (246) 
30

>  <i_i_glide_rotatable_bonds>  (246) 
2

>  <r_i_docking_score>  (246) 
-2.23591

>  <r_i_glide_ligand_efficiency>  (246) 
-0.051998

>  <r_i_glide_ligand_efficiency_sa>  (246) 
-0.18217

>  <r_i_glide_ligand_efficiency_ln>  (246) 
-0.469612

>  <r_i_glide_gscore>  (246) 
-2.23591

>  <r_i_glide_lipo>  (246) 
-0.539185

>  <r_i_glide_hbond>  (246) 
-0.2

>  <r_i_glide_metal>  (246) 
-0

>  <r_i_glide_rewards>  (246) 
-0.0318167

>  <r_i_glide_evdw>  (246) 
-24.9266

>  <r_i_glide_ecoul>  (246) 
-1.21451

>  <r_i_glide_erotb>  (246) 
0

>  <r_i_glide_esite>  (246) 
-0.0364052

>  <r_i_glide_emodel>  (246) 
-29.9162

>  <r_i_glide_energy>  (246) 
-26.1411

>  <r_i_glide_einternal>  (246) 
0.69853

>  <r_i_glide_intrahb_reward>  (246) 
-0

>  <i_i_glide_confnum>  (246) 
3

>  <i_i_glide_posenum>  (246) 
21

>  <r_i_glide_eff_state_penalty>  (246) 
0

>  <ligand_id>  (246) 
82

>  <original_smiles>  (246) 
CC1(C)OC2C1CC13CC14CC(=O)OCC21C(C3CCC2C3(C)CCC(O)C(C)(C)C3CCC21C)C1(COC1C(=O)O)C4

>  <smiles>  (246) 
[H]OC1([H])C([H])([H])C([H])([H])C2(C([H])([H])[H])C([H])(C([H])([H])C([H])([H])C3(C([H])([H])[H])C2([H])C([H])([H])C([H])([H])C2([H])C4([H])C5(C([H])([H])OC5([H])C(=O)[O-])C([H])([H])C56C([H])([H])C(=O)OC([H])([H])C43C3([H])OC(C([H])([H])[H])(C([H])([H])[H])C3([H])C([H])([H])C25C6([H])[H])C1(C([H])([H])[H])C([H])([H])[H]

$$$$
83:0:0
     RDKit          3D

 61 66  0  0  1  0  0  0  0  0999 V2000
    6.3644   -1.8773    0.8370 C   0  0  0  0  0  0  0  0  0  0  0  0
    5.5165   -2.9435    0.1066 C   0  0  2  0  0  0  0  0  0  0  0  0
    6.2889   -3.2573   -1.1793 C   0  0  0  0  0  0  0  0  0  0  0  0
    5.8333   -3.0672   -2.4330 C   0  0  0  0  0  0  0  0  0  0  0  0
    4.4974   -2.5267   -2.6852 C   0  0  0  0  0  0  0  0  0  0  0  0
    4.0798   -2.3678   -3.8333 O   0  0  0  0  0  0  0  0  0  0  0  0
    3.6936   -2.1650   -1.5096 C   0  0  0  0  0  0  0  0  0  0  0  0
    4.1429   -2.3384   -0.2489 C   0  0  0  0  0  0  0  0  0  0  0  0
    3.2562   -1.9882    0.9428 C   0  0  0  0  0  0  0  0  0  0  0  0
    3.4016   -2.9719    2.1161 C   0  0  0  0  0  0  0  0  0  0  0  0
    3.8932   -4.3530    1.6493 C   0  0  1  0  0  0  0  0  0  0  0  0
    5.3202   -4.2110    1.0389 C   0  0  1  0  0  0  0  0  0  0  0  0
    5.7901   -5.5727    0.4533 C   0  0  0  0  0  0  0  0  0  0  0  0
    5.1192   -6.8266    1.0577 C   0  0  0  0  0  0  0  0  0  0  0  0
    4.7555   -6.6853    2.5549 C   0  0  2  0  0  0  0  0  0  0  0  0
    6.0884   -6.5755    3.3492 C   0  0  0  0  0  0  0  0  0  0  0  0
    3.9595   -7.9162    3.1672 C   0  0  2  0  0  0  0  0  0  0  0  0
    3.0330   -8.8705    2.3203 C   0  0  0  0  0  0  0  0  0  0  0  0
    1.4629   -8.8264    2.5689 C   0  0  0  0  0  0  0  0  0  0  0  0
    0.7275   -7.4379    2.4236 C   0  0  1  0  0  0  0  0  0  0  0  0
   -0.3610   -7.5674    1.5348 O   0  0  0  0  0  0  0  0  0  0  0  0
    0.2639   -6.6635    3.7067 C   0  0  0  0  0  0  0  0  0  0  0  0
    1.3104   -5.5159    3.9626 C   0  0  0  0  0  0  0  0  0  0  0  0
    2.5023   -6.0613    3.1767 C   0  0  1  0  0  0  0  0  0  0  0  0
    3.0693   -7.1688    4.1054 C   0  0  0  0  0  0  0  0  0  0  0  0
    1.7230   -6.4556    1.8903 C   0  0  0  0  0  0  0  0  0  0  0  0
    3.8567   -5.4015    2.8087 C   0  0  2  0  0  0  0  0  0  0  0  0
    6.4865   -0.9760    0.2340 H   0  0  0  0  0  0  0  0  0  0  0  0
    7.3629   -2.2563    1.0563 H   0  0  0  0  0  0  0  0  0  0  0  0
    5.9235   -1.5735    1.7855 H   0  0  0  0  0  0  0  0  0  0  0  0
    7.2871   -3.6517   -1.0506 H   0  0  0  0  0  0  0  0  0  0  0  0
    6.4440   -3.3152   -3.2896 H   0  0  0  0  0  0  0  0  0  0  0  0
    2.7104   -1.7537   -1.6869 H   0  0  0  0  0  0  0  0  0  0  0  0
    3.4750   -0.9705    1.2720 H   0  0  0  0  0  0  0  0  0  0  0  0
    2.2176   -1.9979    0.6086 H   0  0  0  0  0  0  0  0  0  0  0  0
    4.1166   -2.5722    2.8389 H   0  0  0  0  0  0  0  0  0  0  0  0
    2.4543   -3.0453    2.6461 H   0  0  0  0  0  0  0  0  0  0  0  0
    3.2451   -4.6777    0.8380 H   0  0  0  0  0  0  0  0  0  0  0  0
    5.9696   -4.0340    1.8944 H   0  0  0  0  0  0  0  0  0  0  0  0
    5.5978   -5.6222   -0.6180 H   0  0  0  0  0  0  0  0  0  0  0  0
    6.8718   -5.6532    0.5738 H   0  0  0  0  0  0  0  0  0  0  0  0
    4.2341   -7.0071    0.4591 H   0  0  0  0  0  0  0  0  0  0  0  0
    5.7465   -7.7054    0.9010 H   0  0  0  0  0  0  0  0  0  0  0  0
    5.9198   -6.4945    4.4252 H   0  0  0  0  0  0  0  0  0  0  0  0
    6.6906   -5.7148    3.0612 H   0  0  0  0  0  0  0  0  0  0  0  0
    6.7105   -7.4585    3.1883 H   0  0  0  0  0  0  0  0  0  0  0  0
    4.6337   -8.5523    3.7414 H   0  0  0  0  0  0  0  0  0  0  0  0
    3.2455   -8.7874    1.2574 H   0  0  0  0  0  0  0  0  0  0  0  0
    3.3386   -9.8898    2.5526 H   0  0  0  0  0  0  0  0  0  0  0  0
    1.0349   -9.5279    1.8538 H   0  0  0  0  0  0  0  0  0  0  0  0
    1.2124   -9.2722    3.5330 H   0  0  0  0  0  0  0  0  0  0  0  0
   -0.1979   -8.3284    0.9859 H   0  0  0  0  0  0  0  0  0  0  0  0
   -0.7309   -6.2401    3.5778 H   0  0  0  0  0  0  0  0  0  0  0  0
    0.1803   -7.3401    4.5582 H   0  0  0  0  0  0  0  0  0  0  0  0
    0.9556   -4.5698    3.5518 H   0  0  0  0  0  0  0  0  0  0  0  0
    1.5082   -5.3636    5.0243 H   0  0  0  0  0  0  0  0  0  0  0  0
    2.3660   -7.8033    4.6401 H   0  0  0  0  0  0  0  0  0  0  0  0
    3.6477   -6.7226    4.9155 H   0  0  0  0  0  0  0  0  0  0  0  0
    2.2829   -6.8396    1.0474 H   0  0  0  0  0  0  0  0  0  0  0  0
    1.2087   -5.5824    1.4871 H   0  0  0  0  0  0  0  0  0  0  0  0
    4.2324   -4.8959    3.7008 H   0  0  0  0  0  0  0  0  0  0  0  0
  2  1  1  1
  1 28  1  0
  1 29  1  0
  1 30  1  0
  2  8  1  0
  2 12  1  0
  2  3  1  0
  3  4  2  0
  3 31  1  0
  4  5  1  0
  4 32  1  0
  5  6  2  0
  5  7  1  0
  7  8  2  0
  7 33  1  0
  8  9  1  0
  9 10  1  0
  9 34  1  0
  9 35  1  0
 10 11  1  0
 10 36  1  0
 10 37  1  0
 11 27  1  0
 11 12  1  0
 11 38  1  6
 12 13  1  0
 12 39  1  1
 13 14  1  0
 13 40  1  0
 13 41  1  0
 14 15  1  0
 14 42  1  0
 14 43  1  0
 15 27  1  0
 15 16  1  1
 15 17  1  0
 16 44  1  0
 16 45  1  0
 16 46  1  0
 17 25  1  0
 17 18  1  0
 17 47  1  1
 18 19  1  0
 18 48  1  0
 18 49  1  0
 19 20  1  0
 19 50  1  0
 19 51  1  0
 20 26  1  0
 20 21  1  6
 20 22  1  0
 21 52  1  0
 22 23  1  0
 22 53  1  0
 22 54  1  0
 24 23  1  1
 23 55  1  0
 23 56  1  0
 24 25  1  0
 24 26  1  0
 24 27  1  0
 25 57  1  0
 25 58  1  0
 26 59  1  0
 26 60  1  0
 27 61  1  1
M  END
>  <i_m_ct_stereo_status>  (247) 
1

>  <s_m_source_file>  (247) 
/var/tmp/pbs.5076255.sched01/tmpbnv9a_8s/88lo2bg1ru.sdf

>  <i_m_source_file_index>  (247) 
31

>  <i_lp_mmshare_version>  (247) 
48012

>  <i_f3d_flags>  (247) 
0

>  <s_epik_input>  (247) 
W0NIXTE9W0NIXUMoPU8pW0NIXT1DKFtDSDJdW0NIMl0yKVtDQEBdMShbQ0gzXSlbQ0BASF0oW0NASF0yW0NASF0zW0NAXTQ1NilbQ0gyXVtDSDJdW0NAXTMoW0NIM10pW0NAQEhdKFtDSDJdNSlbQ0gyXVtDSDJdW0NAXShbT0hdKShbQ0gyXTYpW0NIMl1bQ0gyXTQ=

>  <s_epik_cmdline>  (247) 
J2VwaWtfcHl0aG9uJywgJy1waHQnLCAnMi4wJywgJy1waCcsICc3LjAnLCAnLXRuJywgJzgnLCAnLW1hJywgJzIwMCcsICctaW1hZScsICc8aW5maWxlLm1hZT4nLCAnLW9tYWUnLCAnPG91dGZpbGUubWFlPic=

>  <r_lp_tautomer_probability>  (247) 
1

>  <r_epik_Ionization_Penalty>  (247) 
5.11839e-06

>  <r_epik_Ionization_Penalty_Charging>  (247) 
0

>  <r_epik_Ionization_Penalty_Neutral>  (247) 
5.11839e-06

>  <r_epik_State_Penalty>  (247) 
-0

>  <r_epik_Charging_Adjusted_Penalty>  (247) 
0

>  <i_epik_Tot_Q>  (247) 
0

>  <i_epik_Tot_abs_Q>  (247) 
0

>  <s_lp_Force_Field>  (247) 
OPLS3e

>  <r_lp_Energy>  (247) 
114.11

>  <b_lp_Chiralities_Consistent>  (247) 
1

>  <s_lp_Variant>  (247) 
83:0-1

>  <s_i_glide_gridfile>  (247) 
pfpi4k_grid

>  <i_i_glide_lignum>  (247) 
31

>  <i_i_glide_rotatable_bonds>  (247) 
1

>  <r_i_docking_score>  (247) 
-4.69785

>  <r_i_glide_ligand_efficiency>  (247) 
-0.173994

>  <r_i_glide_ligand_efficiency_sa>  (247) 
-0.521983

>  <r_i_glide_ligand_efficiency_ln>  (247) 
-1.09358

>  <r_i_glide_gscore>  (247) 
-4.69785

>  <r_i_glide_lipo>  (247) 
-0.684987

>  <r_i_glide_hbond>  (247) 
-0.420147

>  <r_i_glide_metal>  (247) 
-0

>  <r_i_glide_rewards>  (247) 
-1.06997

>  <r_i_glide_evdw>  (247) 
-31.8242

>  <r_i_glide_ecoul>  (247) 
-6.21025

>  <r_i_glide_erotb>  (247) 
0

>  <r_i_glide_esite>  (247) 
0

>  <r_i_glide_emodel>  (247) 
-48.8418

>  <r_i_glide_energy>  (247) 
-38.0344

>  <r_i_glide_einternal>  (247) 
0.665146

>  <r_i_glide_intrahb_reward>  (247) 
-0

>  <i_i_glide_confnum>  (247) 
1

>  <i_i_glide_posenum>  (247) 
19

>  <r_i_glide_eff_state_penalty>  (247) 
0

>  <ligand_id>  (247) 
83

>  <original_smiles>  (247) 
CC12C=CC(=O)C=C1CCC1C2CCC2(C)C3CCC4(O)CCC(C3)(C4)C12

>  <smiles>  (247) 
[H]OC12C([H])([H])C([H])([H])C3([H])C([H])([H])C(C([H])([H])C1([H])[H])(C2([H])[H])C1([H])C2([H])C([H])([H])C([H])([H])C4=C([H])C(=O)C([H])=C([H])C4(C([H])([H])[H])C2([H])C([H])([H])C([H])([H])C31C([H])([H])[H]

$$$$
83:0:1
     RDKit          3D

 61 66  0  0  1  0  0  0  0  0999 V2000
    2.4506   -7.6936    5.2885 C   0  0  0  0  0  0  0  0  0  0  0  0
    1.6650   -6.8678    4.2451 C   0  0  2  0  0  0  0  0  0  0  0  0
    0.3256   -6.5392    4.9182 C   0  0  0  0  0  0  0  0  0  0  0  0
   -0.8862   -6.9318    4.4786 C   0  0  0  0  0  0  0  0  0  0  0  0
   -1.0275   -7.7303    3.2633 C   0  0  0  0  0  0  0  0  0  0  0  0
   -2.1354   -8.0222    2.8197 O   0  0  0  0  0  0  0  0  0  0  0  0
    0.2045   -8.1194    2.5712 C   0  0  0  0  0  0  0  0  0  0  0  0
    1.4241   -7.7441    3.0014 C   0  0  0  0  0  0  0  0  0  0  0  0
    2.6723   -8.1371    2.2149 C   0  0  0  0  0  0  0  0  0  0  0  0
    3.7505   -7.0389    2.2064 C   0  0  0  0  0  0  0  0  0  0  0  0
    3.1471   -5.6392    2.4298 C   0  0  1  0  0  0  0  0  0  0  0  0
    2.4864   -5.5752    3.8412 C   0  0  1  0  0  0  0  0  0  0  0  0
    1.7597   -4.2118    4.0422 C   0  0  0  0  0  0  0  0  0  0  0  0
    2.2950   -3.0488    3.1754 C   0  0  0  0  0  0  0  0  0  0  0  0
    3.8142   -3.1188    2.8797 C   0  0  2  0  0  0  0  0  0  0  0  0
    4.5608   -2.9165    4.2284 C   0  0  0  0  0  0  0  0  0  0  0  0
    4.3572   -2.0002    1.8897 C   0  0  2  0  0  0  0  0  0  0  0  0
    3.4774   -1.3115    0.7796 C   0  0  0  0  0  0  0  0  0  0  0  0
    3.7989   -1.6136   -0.7490 C   0  0  0  0  0  0  0  0  0  0  0  0
    3.7855   -3.1145   -1.2310 C   0  0  1  0  0  0  0  0  0  0  0  0
    2.9460   -3.2216   -2.3663 O   0  0  0  0  0  0  0  0  0  0  0  0
    5.1439   -3.8475   -1.5078 C   0  0  0  0  0  0  0  0  0  0  0  0
    5.4515   -4.7488   -0.2566 C   0  0  0  0  0  0  0  0  0  0  0  0
    4.5754   -4.0732    0.7921 C   0  0  1  0  0  0  0  0  0  0  0  0
    5.3887   -2.8061    1.1728 C   0  0  0  0  0  0  0  0  0  0  0  0
    3.2945   -3.9474   -0.0837 C   0  0  0  0  0  0  0  0  0  0  0  0
    4.2129   -4.5128    2.2343 C   0  0  2  0  0  0  0  0  0  0  0  0
    1.9169   -8.6073    5.5575 H   0  0  0  0  0  0  0  0  0  0  0  0
    2.6000   -7.1263    6.2069 H   0  0  0  0  0  0  0  0  0  0  0  0
    3.4356   -7.9895    4.9306 H   0  0  0  0  0  0  0  0  0  0  0  0
    0.3817   -5.9564    5.8265 H   0  0  0  0  0  0  0  0  0  0  0  0
   -1.7899   -6.6675    5.0076 H   0  0  0  0  0  0  0  0  0  0  0  0
    0.0987   -8.7310    1.6896 H   0  0  0  0  0  0  0  0  0  0  0  0
    3.0810   -9.0625    2.6250 H   0  0  0  0  0  0  0  0  0  0  0  0
    2.3776   -8.3533    1.1863 H   0  0  0  0  0  0  0  0  0  0  0  0
    4.4730   -7.2390    3.0008 H   0  0  0  0  0  0  0  0  0  0  0  0
    4.3135   -7.0880    1.2762 H   0  0  0  0  0  0  0  0  0  0  0  0
    2.3419   -5.5122    1.7102 H   0  0  0  0  0  0  0  0  0  0  0  0
    3.3260   -5.5549    4.5333 H   0  0  0  0  0  0  0  0  0  0  0  0
    0.6930   -4.2879    3.8318 H   0  0  0  0  0  0  0  0  0  0  0  0
    1.8396   -3.9343    5.0945 H   0  0  0  0  0  0  0  0  0  0  0  0
    1.7288   -3.0838    2.2529 H   0  0  0  0  0  0  0  0  0  0  0  0
    2.0385   -2.0898    3.6277 H   0  0  0  0  0  0  0  0  0  0  0  0
    5.6457   -2.9287    4.1032 H   0  0  0  0  0  0  0  0  0  0  0  0
    4.3225   -3.6794    4.9688 H   0  0  0  0  0  0  0  0  0  0  0  0
    4.3007   -1.9542    4.6751 H   0  0  0  0  0  0  0  0  0  0  0  0
    4.8455   -1.2033    2.4517 H   0  0  0  0  0  0  0  0  0  0  0  0
    2.4165   -1.4545    0.9700 H   0  0  0  0  0  0  0  0  0  0  0  0
    3.6033   -0.2371    0.8988 H   0  0  0  0  0  0  0  0  0  0  0  0
    3.0333   -1.0799   -1.3122 H   0  0  0  0  0  0  0  0  0  0  0  0
    4.7260   -1.1317   -1.0585 H   0  0  0  0  0  0  0  0  0  0  0  0
    2.8190   -4.1405   -2.5717 H   0  0  0  0  0  0  0  0  0  0  0  0
    5.0821   -4.4784   -2.3970 H   0  0  0  0  0  0  0  0  0  0  0  0
    5.9395   -3.1269   -1.7011 H   0  0  0  0  0  0  0  0  0  0  0  0
    5.1378   -5.7762   -0.4455 H   0  0  0  0  0  0  0  0  0  0  0  0
    6.5131   -4.7656   -0.0063 H   0  0  0  0  0  0  0  0  0  0  0  0
    5.8970   -2.2632    0.3800 H   0  0  0  0  0  0  0  0  0  0  0  0
    6.2095   -3.0673    1.8426 H   0  0  0  0  0  0  0  0  0  0  0  0
    2.4018   -3.5441    0.3732 H   0  0  0  0  0  0  0  0  0  0  0  0
    2.9880   -4.9352   -0.4357 H   0  0  0  0  0  0  0  0  0  0  0  0
    5.1294   -4.8611    2.7169 H   0  0  0  0  0  0  0  0  0  0  0  0
  2  1  1  1
  1 28  1  0
  1 29  1  0
  1 30  1  0
  2  8  1  0
  2 12  1  0
  2  3  1  0
  3  4  2  0
  3 31  1  0
  4  5  1  0
  4 32  1  0
  5  6  2  0
  5  7  1  0
  7  8  2  0
  7 33  1  0
  8  9  1  0
  9 10  1  0
  9 34  1  0
  9 35  1  0
 10 11  1  0
 10 36  1  0
 10 37  1  0
 11 27  1  0
 11 12  1  0
 11 38  1  6
 12 13  1  0
 12 39  1  1
 13 14  1  0
 13 40  1  0
 13 41  1  0
 14 15  1  0
 14 42  1  0
 14 43  1  0
 15 27  1  0
 15 16  1  1
 15 17  1  0
 16 44  1  0
 16 45  1  0
 16 46  1  0
 17 25  1  0
 17 18  1  0
 17 47  1  1
 18 19  1  0
 18 48  1  0
 18 49  1  0
 19 20  1  0
 19 50  1  0
 19 51  1  0
 20 26  1  0
 20 21  1  6
 20 22  1  0
 21 52  1  0
 22 23  1  0
 22 53  1  0
 22 54  1  0
 24 23  1  6
 23 55  1  0
 23 56  1  0
 24 25  1  0
 24 26  1  0
 24 27  1  0
 25 57  1  0
 25 58  1  0
 26 59  1  0
 26 60  1  0
 27 61  1  1
M  END
>  <i_m_ct_stereo_status>  (248) 
1

>  <s_m_source_file>  (248) 
/var/tmp/pbs.5076255.sched01/tmpbnv9a_8s/88lo2bg1ru.sdf

>  <i_m_source_file_index>  (248) 
31

>  <i_lp_mmshare_version>  (248) 
48012

>  <i_f3d_flags>  (248) 
0

>  <s_epik_input>  (248) 
W0NIXTE9W0NIXUMoPU8pW0NIXT1DKFtDSDJdW0NIMl0yKVtDQEBdMShbQ0gzXSlbQ0BASF0oW0NASF0yW0NASF0zW0NAXTQ1NilbQ0gyXVtDSDJdW0NAXTMoW0NIM10pW0NAQEhdKFtDSDJdNSlbQ0gyXVtDSDJdW0NAXShbT0hdKShbQ0gyXTYpW0NIMl1bQ0gyXTQ=

>  <s_epik_cmdline>  (248) 
J2VwaWtfcHl0aG9uJywgJy1waHQnLCAnMi4wJywgJy1waCcsICc3LjAnLCAnLXRuJywgJzgnLCAnLW1hJywgJzIwMCcsICctaW1hZScsICc8aW5maWxlLm1hZT4nLCAnLW9tYWUnLCAnPG91dGZpbGUubWFlPic=

>  <r_lp_tautomer_probability>  (248) 
1

>  <r_epik_Ionization_Penalty>  (248) 
5.11839e-06

>  <r_epik_Ionization_Penalty_Charging>  (248) 
0

>  <r_epik_Ionization_Penalty_Neutral>  (248) 
5.11839e-06

>  <r_epik_State_Penalty>  (248) 
-0

>  <r_epik_Charging_Adjusted_Penalty>  (248) 
0

>  <i_epik_Tot_Q>  (248) 
0

>  <i_epik_Tot_abs_Q>  (248) 
0

>  <s_lp_Force_Field>  (248) 
OPLS3e

>  <r_lp_Energy>  (248) 
114.11

>  <b_lp_Chiralities_Consistent>  (248) 
1

>  <s_lp_Variant>  (248) 
83:0-1

>  <s_i_glide_gridfile>  (248) 
pfpi4k_grid

>  <i_i_glide_lignum>  (248) 
31

>  <i_i_glide_rotatable_bonds>  (248) 
1

>  <r_i_docking_score>  (248) 
-3.48014

>  <r_i_glide_ligand_efficiency>  (248) 
-0.128894

>  <r_i_glide_ligand_efficiency_sa>  (248) 
-0.386682

>  <r_i_glide_ligand_efficiency_ln>  (248) 
-0.810119

>  <r_i_glide_gscore>  (248) 
-3.48014

>  <r_i_glide_lipo>  (248) 
-0.171437

>  <r_i_glide_hbond>  (248) 
-0.32

>  <r_i_glide_metal>  (248) 
-0

>  <r_i_glide_rewards>  (248) 
-0.90998

>  <r_i_glide_evdw>  (248) 
-29.8557

>  <r_i_glide_ecoul>  (248) 
-3.45659

>  <r_i_glide_erotb>  (248) 
0

>  <r_i_glide_esite>  (248) 
-0.0674488

>  <r_i_glide_emodel>  (248) 
-41.6798

>  <r_i_glide_energy>  (248) 
-33.3123

>  <r_i_glide_einternal>  (248) 
0.039088

>  <r_i_glide_intrahb_reward>  (248) 
-0

>  <i_i_glide_confnum>  (248) 
1

>  <i_i_glide_posenum>  (248) 
17

>  <r_i_glide_eff_state_penalty>  (248) 
0

>  <ligand_id>  (248) 
83

>  <original_smiles>  (248) 
CC12C=CC(=O)C=C1CCC1C2CCC2(C)C3CCC4(O)CCC(C3)(C4)C12

>  <smiles>  (248) 
[H]OC12C([H])([H])C([H])([H])C3([H])C([H])([H])C(C([H])([H])C1([H])[H])(C2([H])[H])C1([H])C2([H])C([H])([H])C([H])([H])C4=C([H])C(=O)C([H])=C([H])C4(C([H])([H])[H])C2([H])C([H])([H])C([H])([H])C31C([H])([H])[H]

$$$$
83:0:2
     RDKit          3D

 61 66  0  0  1  0  0  0  0  0999 V2000
    2.5479   -8.0019    5.1186 C   0  0  0  0  0  0  0  0  0  0  0  0
    1.7434   -7.0455    4.2101 C   0  0  2  0  0  0  0  0  0  0  0  0
    0.4424   -6.7626    4.9693 C   0  0  0  0  0  0  0  0  0  0  0  0
   -0.7959   -7.0679    4.5355 C   0  0  0  0  0  0  0  0  0  0  0  0
   -1.0112   -7.7241    3.2474 C   0  0  0  0  0  0  0  0  0  0  0  0
   -2.1438   -7.9417    2.8265 O   0  0  0  0  0  0  0  0  0  0  0  0
    0.1820   -8.0600    2.4652 C   0  0  0  0  0  0  0  0  0  0  0  0
    1.4298   -7.7689    2.8852 C   0  0  0  0  0  0  0  0  0  0  0  0
    2.6351   -8.0957    2.0084 C   0  0  0  0  0  0  0  0  0  0  0  0
    3.7408   -7.0272    2.0781 C   0  0  0  0  0  0  0  0  0  0  0  0
    3.1840   -5.6489    2.4835 C   0  0  1  0  0  0  0  0  0  0  0  0
    2.5826   -5.7338    3.9201 C   0  0  1  0  0  0  0  0  0  0  0  0
    1.9022   -4.3859    4.3069 C   0  0  0  0  0  0  0  0  0  0  0  0
    2.4293   -3.1436    3.5516 C   0  0  0  0  0  0  0  0  0  0  0  0
    3.9345   -3.2128    3.1877 C   0  0  2  0  0  0  0  0  0  0  0  0
    4.7358   -3.1826    4.5190 C   0  0  0  0  0  0  0  0  0  0  0  0
    4.4674   -2.0004    2.3104 C   0  0  2  0  0  0  0  0  0  0  0  0
    3.5613   -1.1667    1.3283 C   0  0  0  0  0  0  0  0  0  0  0  0
    3.8176   -1.2974   -0.2332 C   0  0  0  0  0  0  0  0  0  0  0  0
    3.7420   -2.7304   -0.8846 C   0  0  1  0  0  0  0  0  0  0  0  0
    2.8355   -2.6738   -1.9678 O   0  0  0  0  0  0  0  0  0  0  0  0
    5.0677   -3.4600   -1.3088 C   0  0  0  0  0  0  0  0  0  0  0  0
    5.4073   -4.5087   -0.1842 C   0  0  0  0  0  0  0  0  0  0  0  0
    4.5903   -3.9401    0.9734 C   0  0  1  0  0  0  0  0  0  0  0  0
    5.4484   -2.7415    1.4630 C   0  0  0  0  0  0  0  0  0  0  0  0
    3.2784   -3.6853    0.1732 C   0  0  0  0  0  0  0  0  0  0  0  0
    4.2717   -4.5315    2.3709 C   0  0  2  0  0  0  0  0  0  0  0  0
    2.0010   -8.9290    5.3041 H   0  0  0  0  0  0  0  0  0  0  0  0
    2.7498   -7.5478    6.0890 H   0  0  0  0  0  0  0  0  0  0  0  0
    3.5101   -8.2772    4.6873 H   0  0  0  0  0  0  0  0  0  0  0  0
    0.5490   -6.2931    5.9373 H   0  0  0  0  0  0  0  0  0  0  0  0
   -1.6694   -6.8436    5.1291 H   0  0  0  0  0  0  0  0  0  0  0  0
    0.0300   -8.5524    1.5194 H   0  0  0  0  0  0  0  0  0  0  0  0
    3.0356   -9.0708    2.2898 H   0  0  0  0  0  0  0  0  0  0  0  0
    2.2934   -8.1817    0.9761 H   0  0  0  0  0  0  0  0  0  0  0  0
    4.4909   -7.3320    2.8118 H   0  0  0  0  0  0  0  0  0  0  0  0
    4.2640   -6.9809    1.1237 H   0  0  0  0  0  0  0  0  0  0  0  0
    2.3551   -5.4224    1.8177 H   0  0  0  0  0  0  0  0  0  0  0  0
    3.4508   -5.8100    4.5731 H   0  0  0  0  0  0  0  0  0  0  0  0
    0.8257   -4.4144    4.1338 H   0  0  0  0  0  0  0  0  0  0  0  0
    2.0305   -4.2324    5.3796 H   0  0  0  0  0  0  0  0  0  0  0  0
    1.8211   -3.0610    2.6587 H   0  0  0  0  0  0  0  0  0  0  0  0
    2.2175   -2.2385    4.1231 H   0  0  0  0  0  0  0  0  0  0  0  0
    5.8127   -3.2042    4.3475 H   0  0  0  0  0  0  0  0  0  0  0  0
    4.5086   -4.0191    5.1769 H   0  0  0  0  0  0  0  0  0  0  0  0
    4.5209   -2.2734    5.0831 H   0  0  0  0  0  0  0  0  0  0  0  0
    4.9993   -1.2847    2.9380 H   0  0  0  0  0  0  0  0  0  0  0  0
    2.5054   -1.3091    1.5431 H   0  0  0  0  0  0  0  0  0  0  0  0
    3.7224   -0.1167    1.5637 H   0  0  0  0  0  0  0  0  0  0  0  0
    3.0479   -0.6805   -0.6939 H   0  0  0  0  0  0  0  0  0  0  0  0
    4.7436   -0.8034   -0.5266 H   0  0  0  0  0  0  0  0  0  0  0  0
    2.0833   -2.1529   -1.6957 H   0  0  0  0  0  0  0  0  0  0  0  0
    4.9488   -3.9822   -2.2604 H   0  0  0  0  0  0  0  0  0  0  0  0
    5.8748   -2.7408   -1.4532 H   0  0  0  0  0  0  0  0  0  0  0  0
    5.0600   -5.5007   -0.4763 H   0  0  0  0  0  0  0  0  0  0  0  0
    6.4777   -4.5778    0.0146 H   0  0  0  0  0  0  0  0  0  0  0  0
    5.9390   -2.1217    0.7162 H   0  0  0  0  0  0  0  0  0  0  0  0
    6.2867   -3.0953    2.0627 H   0  0  0  0  0  0  0  0  0  0  0  0
    2.4151   -3.3222    0.7151 H   0  0  0  0  0  0  0  0  0  0  0  0
    2.9324   -4.6143   -0.2883 H   0  0  0  0  0  0  0  0  0  0  0  0
    5.1962   -4.9520    2.7723 H   0  0  0  0  0  0  0  0  0  0  0  0
  2  1  1  1
  1 28  1  0
  1 29  1  0
  1 30  1  0
  2  8  1  0
  2 12  1  0
  2  3  1  0
  3  4  2  0
  3 31  1  0
  4  5  1  0
  4 32  1  0
  5  6  2  0
  5  7  1  0
  7  8  2  0
  7 33  1  0
  8  9  1  0
  9 10  1  0
  9 34  1  0
  9 35  1  0
 10 11  1  0
 10 36  1  0
 10 37  1  0
 11 27  1  0
 11 12  1  0
 11 38  1  6
 12 13  1  0
 12 39  1  1
 13 14  1  0
 13 40  1  0
 13 41  1  0
 14 15  1  0
 14 42  1  0
 14 43  1  0
 15 27  1  0
 15 16  1  1
 15 17  1  0
 16 44  1  0
 16 45  1  0
 16 46  1  0
 17 25  1  0
 17 18  1  0
 17 47  1  1
 18 19  1  0
 18 48  1  0
 18 49  1  0
 19 20  1  0
 19 50  1  0
 19 51  1  0
 20 26  1  0
 20 21  1  6
 20 22  1  0
 21 52  1  0
 22 23  1  0
 22 53  1  0
 22 54  1  0
 24 23  1  6
 23 55  1  0
 23 56  1  0
 24 25  1  0
 24 26  1  0
 24 27  1  0
 25 57  1  0
 25 58  1  0
 26 59  1  0
 26 60  1  0
 27 61  1  1
M  END
>  <i_m_ct_stereo_status>  (249) 
1

>  <s_m_source_file>  (249) 
/var/tmp/pbs.5076255.sched01/tmpbnv9a_8s/88lo2bg1ru.sdf

>  <i_m_source_file_index>  (249) 
31

>  <i_lp_mmshare_version>  (249) 
48012

>  <i_f3d_flags>  (249) 
0

>  <s_epik_input>  (249) 
W0NIXTE9W0NIXUMoPU8pW0NIXT1DKFtDSDJdW0NIMl0yKVtDQEBdMShbQ0gzXSlbQ0BASF0oW0NASF0yW0NASF0zW0NAXTQ1NilbQ0gyXVtDSDJdW0NAXTMoW0NIM10pW0NAQEhdKFtDSDJdNSlbQ0gyXVtDSDJdW0NAXShbT0hdKShbQ0gyXTYpW0NIMl1bQ0gyXTQ=

>  <s_epik_cmdline>  (249) 
J2VwaWtfcHl0aG9uJywgJy1waHQnLCAnMi4wJywgJy1waCcsICc3LjAnLCAnLXRuJywgJzgnLCAnLW1hJywgJzIwMCcsICctaW1hZScsICc8aW5maWxlLm1hZT4nLCAnLW9tYWUnLCAnPG91dGZpbGUubWFlPic=

>  <r_lp_tautomer_probability>  (249) 
1

>  <r_epik_Ionization_Penalty>  (249) 
5.11839e-06

>  <r_epik_Ionization_Penalty_Charging>  (249) 
0

>  <r_epik_Ionization_Penalty_Neutral>  (249) 
5.11839e-06

>  <r_epik_State_Penalty>  (249) 
-0

>  <r_epik_Charging_Adjusted_Penalty>  (249) 
0

>  <i_epik_Tot_Q>  (249) 
0

>  <i_epik_Tot_abs_Q>  (249) 
0

>  <s_lp_Force_Field>  (249) 
OPLS3e

>  <r_lp_Energy>  (249) 
114.11

>  <b_lp_Chiralities_Consistent>  (249) 
1

>  <s_lp_Variant>  (249) 
83:0-1

>  <s_i_glide_gridfile>  (249) 
pfpi4k_grid

>  <i_i_glide_lignum>  (249) 
31

>  <i_i_glide_rotatable_bonds>  (249) 
1

>  <r_i_docking_score>  (249) 
-3.24493

>  <r_i_glide_ligand_efficiency>  (249) 
-0.120183

>  <r_i_glide_ligand_efficiency_sa>  (249) 
-0.360548

>  <r_i_glide_ligand_efficiency_ln>  (249) 
-0.755366

>  <r_i_glide_gscore>  (249) 
-3.24493

>  <r_i_glide_lipo>  (249) 
-0.280516

>  <r_i_glide_hbond>  (249) 
-0.16

>  <r_i_glide_metal>  (249) 
-0

>  <r_i_glide_rewards>  (249) 
-0.90998

>  <r_i_glide_evdw>  (249) 
-29.0691

>  <r_i_glide_ecoul>  (249) 
-2.48973

>  <r_i_glide_erotb>  (249) 
0

>  <r_i_glide_esite>  (249) 
-0.0675209

>  <r_i_glide_emodel>  (249) 
-39.2445

>  <r_i_glide_energy>  (249) 
-31.5588

>  <r_i_glide_einternal>  (249) 
0.153599

>  <r_i_glide_intrahb_reward>  (249) 
-0

>  <i_i_glide_confnum>  (249) 
1

>  <i_i_glide_posenum>  (249) 
6

>  <r_i_glide_eff_state_penalty>  (249) 
0

>  <ligand_id>  (249) 
83

>  <original_smiles>  (249) 
CC12C=CC(=O)C=C1CCC1C2CCC2(C)C3CCC4(O)CCC(C3)(C4)C12

>  <smiles>  (249) 
[H]OC12C([H])([H])C([H])([H])C3([H])C([H])([H])C(C([H])([H])C1([H])[H])(C2([H])[H])C1([H])C2([H])C([H])([H])C([H])([H])C4=C([H])C(=O)C([H])=C([H])C4(C([H])([H])[H])C2([H])C([H])([H])C([H])([H])C31C([H])([H])[H]

$$$$
84:0:0
     RDKit          3D

 27 29  0  0  1  0  0  0  0  0999 V2000
    2.4129   -6.7178    2.2293 C   0  0  0  0  0  0  0  0  0  0  0  0
    3.3451   -6.9344    1.2519 N   0  0  0  0  0  0  0  0  0  0  0  0
    3.5614   -5.6915    0.8426 C   0  0  0  0  0  0  0  0  0  0  0  0
    2.8302   -4.8015    1.5254 N   0  0  0  0  0  0  0  0  0  0  0  0
    2.0516   -5.4465    2.4201 N   0  0  0  0  0  0  0  0  0  0  0  0
    2.7834   -3.3728    1.3289 C   0  0  0  0  0  0  0  0  0  0  0  0
    3.9506   -2.9377    0.4338 C   0  0  0  0  0  0  0  0  0  0  0  0
    4.1488   -3.8981   -0.6960 N   0  0  1  0  0  0  0  0  0  0  0  0
    5.1071   -3.3840   -1.7137 C   0  0  0  0  0  0  0  0  0  0  0  0
    4.5117   -2.3318   -2.6152 C   0  0  0  0  0  0  0  0  0  0  0  0
    4.2760   -0.9579   -2.3381 C   0  0  0  0  0  0  0  0  0  0  0  0
    3.7607   -0.4754   -3.5081 C   0  0  0  0  0  0  0  0  0  0  0  0
    3.7359   -1.4511   -4.4479 O   0  0  0  0  0  0  0  0  0  0  0  0
    4.2055   -2.6355   -3.8684 N   0  0  0  0  0  0  0  0  0  0  0  0
    4.5622   -5.2557   -0.2030 C   0  0  0  0  0  0  0  0  0  0  0  0
    1.9773   -7.5123    2.8128 H   0  0  0  0  0  0  0  0  0  0  0  0
    1.8325   -3.1233    0.8557 H   0  0  0  0  0  0  0  0  0  0  0  0
    2.8251   -2.8723    2.2980 H   0  0  0  0  0  0  0  0  0  0  0  0
    3.7528   -1.9252    0.0910 H   0  0  0  0  0  0  0  0  0  0  0  0
    4.8676   -2.9016    1.0228 H   0  0  0  0  0  0  0  0  0  0  0  0
    5.9765   -2.9731   -1.2083 H   0  0  0  0  0  0  0  0  0  0  0  0
    5.4838   -4.2011   -2.3282 H   0  0  0  0  0  0  0  0  0  0  0  0
    4.4436   -0.3889   -1.4343 H   0  0  0  0  0  0  0  0  0  0  0  0
    3.4030    0.4989   -3.8027 H   0  0  0  0  0  0  0  0  0  0  0  0
    5.5510   -5.2195    0.2536 H   0  0  0  0  0  0  0  0  0  0  0  0
    4.5954   -5.9878   -1.0099 H   0  0  0  0  0  0  0  0  0  0  0  0
    3.2677   -4.0139   -1.1797 H   0  0  0  0  0  0  0  0  0  0  0  0
  1  5  2  0
  1  2  1  0
  1 16  1  0
  2  3  2  0
  3 15  1  0
  3  4  1  0
  4  5  1  0
  4  6  1  0
  6  7  1  0
  6 17  1  0
  6 18  1  0
  7  8  1  0
  7 19  1  0
  7 20  1  0
  8  9  1  0
  8 15  1  0
  8 27  1  6
  9 10  1  0
  9 21  1  0
  9 22  1  0
 10 14  2  0
 10 11  1  0
 11 12  2  0
 11 23  1  0
 12 13  1  0
 12 24  1  0
 13 14  1  0
 15 25  1  0
 15 26  1  0
M  CHG  1   8   1
M  END
>  <i_m_ct_stereo_status>  (250) 
1

>  <s_m_source_file>  (250) 
/var/tmp/pbs.5076255.sched01/tmpbnv9a_8s/88lo2bg1ru.sdf

>  <i_m_source_file_index>  (250) 
32

>  <i_lp_mmshare_version>  (250) 
48012

>  <i_f3d_flags>  (250) 
0

>  <s_epik_input>  (250) 
bjFbY0hdbm4oYzEyKVtDSDJdW0NIMl1OKFtDSDJdMilbQ0gyXWMzW2NIXVtjSF1vbjM=

>  <s_epik_cmdline>  (250) 
J2VwaWtfcHl0aG9uJywgJy1waHQnLCAnMi4wJywgJy1waCcsICc3LjAnLCAnLXRuJywgJzgnLCAnLW1hJywgJzIwMCcsICctaW1hZScsICc8aW5maWxlLm1hZT4nLCAnLW9tYWUnLCAnPG91dGZpbGUubWFlPic=

>  <r_lp_tautomer_probability>  (250) 
1

>  <r_epik_Ionization_Penalty>  (250) 
0.18535

>  <r_epik_Ionization_Penalty_Charging>  (250) 
0.18535

>  <r_epik_Ionization_Penalty_Neutral>  (250) 
3.76766e-10

>  <r_epik_State_Penalty>  (250) 
0.174917

>  <r_epik_Charging_Adjusted_Penalty>  (250) 
0.360267

>  <i_epik_Tot_Q>  (250) 
1

>  <i_epik_Tot_abs_Q>  (250) 
1

>  <s_lp_Force_Field>  (250) 
OPLS3e

>  <r_lp_Energy>  (250) 
20.5758

>  <b_lp_Chiralities_Consistent>  (250) 
1

>  <s_lp_Variant>  (250) 
84:0-1

>  <s_i_glide_gridfile>  (250) 
pfpi4k_grid

>  <i_i_glide_lignum>  (250) 
32

>  <i_i_glide_rotatable_bonds>  (250) 
2

>  <r_i_docking_score>  (250) 
-3.90525

>  <r_i_glide_ligand_efficiency>  (250) 
-0.26035

>  <r_i_glide_ligand_efficiency_sa>  (250) 
-0.642078

>  <r_i_glide_ligand_efficiency_ln>  (250) 
-1.05318

>  <r_i_glide_gscore>  (250) 
-3.90525

>  <r_i_glide_lipo>  (250) 
-0.466441

>  <r_i_glide_hbond>  (250) 
0

>  <r_i_glide_metal>  (250) 
-0

>  <r_i_glide_rewards>  (250) 
-2.01443

>  <r_i_glide_evdw>  (250) 
-20.9786

>  <r_i_glide_ecoul>  (250) 
-7.13194

>  <r_i_glide_erotb>  (250) 
0.775918

>  <r_i_glide_esite>  (250) 
-0.0815789

>  <r_i_glide_emodel>  (250) 
-36.5701

>  <r_i_glide_energy>  (250) 
-28.1105

>  <r_i_glide_einternal>  (250) 
1.10977

>  <r_i_glide_intrahb_reward>  (250) 
-0

>  <i_i_glide_confnum>  (250) 
2

>  <i_i_glide_posenum>  (250) 
22

>  <r_i_glide_eff_state_penalty>  (250) 
0

>  <ligand_id>  (250) 
84

>  <original_smiles>  (250) 
c1nc2n(n1)CCN(Cc1ccon1)C2

>  <smiles>  (250) 
[H]c1nc2n(n1)C([H])([H])C([H])([H])[N+]([H])(C([H])([H])c1noc([H])c1[H])C2([H])[H]

$$$$
84:0:1
     RDKit          3D

 27 29  0  0  1  0  0  0  0  0999 V2000
    1.0268   -2.9884    3.9054 C   0  0  0  0  0  0  0  0  0  0  0  0
    1.8316   -3.5705    2.9635 N   0  0  0  0  0  0  0  0  0  0  0  0
    2.2925   -2.4896    2.3470 C   0  0  0  0  0  0  0  0  0  0  0  0
    1.8028   -1.3604    2.8617 N   0  0  0  0  0  0  0  0  0  0  0  0
    0.9641   -1.6559    3.8800 N   0  0  0  0  0  0  0  0  0  0  0  0
    2.0378   -0.0138    2.3956 C   0  0  0  0  0  0  0  0  0  0  0  0
    3.2380   -0.0094    1.4301 C   0  0  0  0  0  0  0  0  0  0  0  0
    3.1812   -1.1735    0.4944 N   0  0  1  0  0  0  0  0  0  0  0  0
    4.1906   -1.0584   -0.6001 C   0  0  0  0  0  0  0  0  0  0  0  0
    3.7663   -1.7283   -1.8879 C   0  0  0  0  0  0  0  0  0  0  0  0
    2.9813   -2.9000   -2.0904 C   0  0  0  0  0  0  0  0  0  0  0  0
    2.9313   -3.0354   -3.4469 C   0  0  0  0  0  0  0  0  0  0  0  0
    3.6489   -2.0512   -4.0450 O   0  0  0  0  0  0  0  0  0  0  0  0
    4.1795   -1.2276   -3.0435 N   0  0  0  0  0  0  0  0  0  0  0  0
    3.3100   -2.4784    1.2361 C   0  0  0  0  0  0  0  0  0  0  0  0
    0.4584   -3.5610    4.6202 H   0  0  0  0  0  0  0  0  0  0  0  0
    1.1320    0.3308    1.8913 H   0  0  0  0  0  0  0  0  0  0  0  0
    2.2190    0.6360    3.2529 H   0  0  0  0  0  0  0  0  0  0  0  0
    3.2527    0.9387    0.8928 H   0  0  0  0  0  0  0  0  0  0  0  0
    4.1683   -0.0660    1.9968 H   0  0  0  0  0  0  0  0  0  0  0  0
    4.3931   -0.0076   -0.8068 H   0  0  0  0  0  0  0  0  0  0  0  0
    5.1472   -1.4630   -0.2719 H   0  0  0  0  0  0  0  0  0  0  0  0
    2.4991   -3.5576   -1.3866 H   0  0  0  0  0  0  0  0  0  0  0  0
    2.4430   -3.7600   -4.0817 H   0  0  0  0  0  0  0  0  0  0  0  0
    4.3027   -2.5633    1.6801 H   0  0  0  0  0  0  0  0  0  0  0  0
    3.1500   -3.3531    0.6145 H   0  0  0  0  0  0  0  0  0  0  0  0
    2.2683   -1.1271    0.0358 H   0  0  0  0  0  0  0  0  0  0  0  0
  1  5  2  0
  1  2  1  0
  1 16  1  0
  2  3  2  0
  3 15  1  0
  3  4  1  0
  4  5  1  0
  4  6  1  0
  6  7  1  0
  6 17  1  0
  6 18  1  0
  7  8  1  0
  7 19  1  0
  7 20  1  0
  8  9  1  0
  8 15  1  0
  8 27  1  6
  9 10  1  0
  9 21  1  0
  9 22  1  0
 10 14  2  0
 10 11  1  0
 11 12  2  0
 11 23  1  0
 12 13  1  0
 12 24  1  0
 13 14  1  0
 15 25  1  0
 15 26  1  0
M  CHG  1   8   1
M  END
>  <i_m_ct_stereo_status>  (251) 
1

>  <s_m_source_file>  (251) 
/var/tmp/pbs.5076255.sched01/tmpbnv9a_8s/88lo2bg1ru.sdf

>  <i_m_source_file_index>  (251) 
32

>  <i_lp_mmshare_version>  (251) 
48012

>  <i_f3d_flags>  (251) 
0

>  <s_epik_input>  (251) 
bjFbY0hdbm4oYzEyKVtDSDJdW0NIMl1OKFtDSDJdMilbQ0gyXWMzW2NIXVtjSF1vbjM=

>  <s_epik_cmdline>  (251) 
J2VwaWtfcHl0aG9uJywgJy1waHQnLCAnMi4wJywgJy1waCcsICc3LjAnLCAnLXRuJywgJzgnLCAnLW1hJywgJzIwMCcsICctaW1hZScsICc8aW5maWxlLm1hZT4nLCAnLW9tYWUnLCAnPG91dGZpbGUubWFlPic=

>  <r_lp_tautomer_probability>  (251) 
1

>  <r_epik_Ionization_Penalty>  (251) 
0.18535

>  <r_epik_Ionization_Penalty_Charging>  (251) 
0.18535

>  <r_epik_Ionization_Penalty_Neutral>  (251) 
3.76766e-10

>  <r_epik_State_Penalty>  (251) 
0.174917

>  <r_epik_Charging_Adjusted_Penalty>  (251) 
0.360267

>  <i_epik_Tot_Q>  (251) 
1

>  <i_epik_Tot_abs_Q>  (251) 
1

>  <s_lp_Force_Field>  (251) 
OPLS3e

>  <r_lp_Energy>  (251) 
20.5758

>  <b_lp_Chiralities_Consistent>  (251) 
1

>  <s_lp_Variant>  (251) 
84:0-1

>  <s_i_glide_gridfile>  (251) 
pfpi4k_grid

>  <i_i_glide_lignum>  (251) 
32

>  <i_i_glide_rotatable_bonds>  (251) 
2

>  <r_i_docking_score>  (251) 
-3.83638

>  <r_i_glide_ligand_efficiency>  (251) 
-0.255759

>  <r_i_glide_ligand_efficiency_sa>  (251) 
-0.630756

>  <r_i_glide_ligand_efficiency_ln>  (251) 
-1.03461

>  <r_i_glide_gscore>  (251) 
-3.83638

>  <r_i_glide_lipo>  (251) 
-0.184482

>  <r_i_glide_hbond>  (251) 
-0.2

>  <r_i_glide_metal>  (251) 
-0

>  <r_i_glide_rewards>  (251) 
-2.05372

>  <r_i_glide_evdw>  (251) 
-20.4823

>  <r_i_glide_ecoul>  (251) 
-6.93284

>  <r_i_glide_erotb>  (251) 
0.775918

>  <r_i_glide_esite>  (251) 
-0.110064

>  <r_i_glide_emodel>  (251) 
-35.2351

>  <r_i_glide_energy>  (251) 
-27.4151

>  <r_i_glide_einternal>  (251) 
2.17029

>  <r_i_glide_intrahb_reward>  (251) 
-0

>  <i_i_glide_confnum>  (251) 
2

>  <i_i_glide_posenum>  (251) 
29

>  <r_i_glide_eff_state_penalty>  (251) 
0

>  <ligand_id>  (251) 
84

>  <original_smiles>  (251) 
c1nc2n(n1)CCN(Cc1ccon1)C2

>  <smiles>  (251) 
[H]c1nc2n(n1)C([H])([H])C([H])([H])[N+]([H])(C([H])([H])c1noc([H])c1[H])C2([H])[H]

$$$$
84:0:2
     RDKit          3D

 27 29  0  0  1  0  0  0  0  0999 V2000
    2.3731   -5.1789    2.8391 C   0  0  0  0  0  0  0  0  0  0  0  0
    2.1994   -5.1616    1.4798 N   0  0  0  0  0  0  0  0  0  0  0  0
    3.3700   -4.6655    1.1002 C   0  0  0  0  0  0  0  0  0  0  0  0
    4.1720   -4.4082    2.1334 N   0  0  0  0  0  0  0  0  0  0  0  0
    3.5431   -4.7235    3.2843 N   0  0  0  0  0  0  0  0  0  0  0  0
    5.4846   -3.8129    2.0967 C   0  0  0  0  0  0  0  0  0  0  0  0
    6.0172   -3.8433    0.6537 C   0  0  0  0  0  0  0  0  0  0  0  0
    4.9474   -3.4822   -0.3243 N   0  0  1  0  0  0  0  0  0  0  0  0
    5.4898   -3.2710   -1.6950 C   0  0  0  0  0  0  0  0  0  0  0  0
    4.6215   -2.3816   -2.5451 C   0  0  0  0  0  0  0  0  0  0  0  0
    4.2011   -1.0462   -2.2816 C   0  0  0  0  0  0  0  0  0  0  0  0
    3.4806   -0.7129   -3.3940 C   0  0  0  0  0  0  0  0  0  0  0  0
    3.4992   -1.7279   -4.2939 O   0  0  0  0  0  0  0  0  0  0  0  0
    4.2195   -2.7918   -3.7370 N   0  0  0  0  0  0  0  0  0  0  0  0
    3.8204   -4.4689   -0.3210 C   0  0  0  0  0  0  0  0  0  0  0  0
    1.6136   -5.5239    3.5236 H   0  0  0  0  0  0  0  0  0  0  0  0
    5.4000   -2.7886    2.4664 H   0  0  0  0  0  0  0  0  0  0  0  0
    6.1450   -4.3592    2.7715 H   0  0  0  0  0  0  0  0  0  0  0  0
    6.8730   -3.1717    0.5827 H   0  0  0  0  0  0  0  0  0  0  0  0
    6.3786   -4.8450    0.4159 H   0  0  0  0  0  0  0  0  0  0  0  0
    6.4701   -2.8046   -1.6342 H   0  0  0  0  0  0  0  0  0  0  0  0
    5.6568   -4.2337   -2.1820 H   0  0  0  0  0  0  0  0  0  0  0  0
    4.3828   -0.4190   -1.4222 H   0  0  0  0  0  0  0  0  0  0  0  0
    2.9333    0.1738   -3.6795 H   0  0  0  0  0  0  0  0  0  0  0  0
    4.1738   -5.4271   -0.7077 H   0  0  0  0  0  0  0  0  0  0  0  0
    2.9837   -4.1266   -0.9311 H   0  0  0  0  0  0  0  0  0  0  0  0
    4.5664   -2.5933   -0.0247 H   0  0  0  0  0  0  0  0  0  0  0  0
  1  5  2  0
  1  2  1  0
  1 16  1  0
  2  3  2  0
  3 15  1  0
  3  4  1  0
  4  5  1  0
  4  6  1  0
  6  7  1  0
  6 17  1  0
  6 18  1  0
  7  8  1  0
  7 19  1  0
  7 20  1  0
  8  9  1  0
  8 15  1  0
  8 27  1  1
  9 10  1  0
  9 21  1  0
  9 22  1  0
 10 14  2  0
 10 11  1  0
 11 12  2  0
 11 23  1  0
 12 13  1  0
 12 24  1  0
 13 14  1  0
 15 25  1  0
 15 26  1  0
M  CHG  1   8   1
M  END
>  <i_m_ct_stereo_status>  (252) 
1

>  <s_m_source_file>  (252) 
/var/tmp/pbs.5076255.sched01/tmpbnv9a_8s/88lo2bg1ru.sdf

>  <i_m_source_file_index>  (252) 
32

>  <i_lp_mmshare_version>  (252) 
48012

>  <i_f3d_flags>  (252) 
0

>  <s_epik_input>  (252) 
bjFbY0hdbm4oYzEyKVtDSDJdW0NIMl1OKFtDSDJdMilbQ0gyXWMzW2NIXVtjSF1vbjM=

>  <s_epik_cmdline>  (252) 
J2VwaWtfcHl0aG9uJywgJy1waHQnLCAnMi4wJywgJy1waCcsICc3LjAnLCAnLXRuJywgJzgnLCAnLW1hJywgJzIwMCcsICctaW1hZScsICc8aW5maWxlLm1hZT4nLCAnLW9tYWUnLCAnPG91dGZpbGUubWFlPic=

>  <r_lp_tautomer_probability>  (252) 
1

>  <r_epik_Ionization_Penalty>  (252) 
0.18535

>  <r_epik_Ionization_Penalty_Charging>  (252) 
0.18535

>  <r_epik_Ionization_Penalty_Neutral>  (252) 
3.76766e-10

>  <r_epik_State_Penalty>  (252) 
0.174917

>  <r_epik_Charging_Adjusted_Penalty>  (252) 
0.360267

>  <i_epik_Tot_Q>  (252) 
1

>  <i_epik_Tot_abs_Q>  (252) 
1

>  <s_lp_Force_Field>  (252) 
OPLS3e

>  <r_lp_Energy>  (252) 
20.5758

>  <b_lp_Chiralities_Consistent>  (252) 
1

>  <s_lp_Variant>  (252) 
84:0-1

>  <s_i_glide_gridfile>  (252) 
pfpi4k_grid

>  <i_i_glide_lignum>  (252) 
32

>  <i_i_glide_rotatable_bonds>  (252) 
2

>  <r_i_docking_score>  (252) 
-3.6677

>  <r_i_glide_ligand_efficiency>  (252) 
-0.244514

>  <r_i_glide_ligand_efficiency_sa>  (252) 
-0.603022

>  <r_i_glide_ligand_efficiency_ln>  (252) 
-0.989119

>  <r_i_glide_gscore>  (252) 
-3.6677

>  <r_i_glide_lipo>  (252) 
-0.535202

>  <r_i_glide_hbond>  (252) 
0

>  <r_i_glide_metal>  (252) 
-0

>  <r_i_glide_rewards>  (252) 
-2.01068

>  <r_i_glide_evdw>  (252) 
-20.1289

>  <r_i_glide_ecoul>  (252) 
-5.6988

>  <r_i_glide_erotb>  (252) 
0.775918

>  <r_i_glide_esite>  (252) 
-0.0364791

>  <r_i_glide_emodel>  (252) 
-34.0264

>  <r_i_glide_energy>  (252) 
-25.8277

>  <r_i_glide_einternal>  (252) 
0.570029

>  <r_i_glide_intrahb_reward>  (252) 
-0

>  <i_i_glide_confnum>  (252) 
1

>  <i_i_glide_posenum>  (252) 
24

>  <r_i_glide_eff_state_penalty>  (252) 
0

>  <ligand_id>  (252) 
84

>  <original_smiles>  (252) 
c1nc2n(n1)CCN(Cc1ccon1)C2

>  <smiles>  (252) 
[H]c1nc2n(n1)C([H])([H])C([H])([H])[N+]([H])(C([H])([H])c1noc([H])c1[H])C2([H])[H]

$$$$
84:1:0
     RDKit          3D

 26 28  0  0  1  0  0  0  0  0999 V2000
    4.7710   -3.9838    2.6975 C   0  0  0  0  0  0  0  0  0  0  0  0
    5.3910   -2.7713    2.5375 N   0  0  0  0  0  0  0  0  0  0  0  0
    5.5697   -2.7925    1.2217 C   0  0  0  0  0  0  0  0  0  0  0  0
    5.1130   -3.9032    0.6471 N   0  0  0  0  0  0  0  0  0  0  0  0
    4.5754   -4.7036    1.5886 N   0  0  0  0  0  0  0  0  0  0  0  0
    5.1021   -4.1954   -0.7663 C   0  0  0  0  0  0  0  0  0  0  0  0
    6.0392   -3.2038   -1.5134 C   0  0  0  0  0  0  0  0  0  0  0  0
    5.8517   -1.8113   -1.0549 N   0  0  0  0  0  0  0  0  0  0  0  0
    4.4899   -1.2780   -1.2578 C   0  0  0  0  0  0  0  0  0  0  0  0
    4.0676   -1.1653   -2.7055 C   0  0  0  0  0  0  0  0  0  0  0  0
    3.8108    0.0054   -3.4699 C   0  0  0  0  0  0  0  0  0  0  0  0
    3.5166   -0.4716   -4.7121 C   0  0  0  0  0  0  0  0  0  0  0  0
    3.5931   -1.8198   -4.7099 O   0  0  0  0  0  0  0  0  0  0  0  0
    3.8843   -2.2587   -3.4258 N   0  0  0  0  0  0  0  0  0  0  0  0
    6.2354   -1.7544    0.3700 C   0  0  0  0  0  0  0  0  0  0  0  0
    4.4391   -4.3524    3.6644 H   0  0  0  0  0  0  0  0  0  0  0  0
    5.4187   -5.2219   -0.9249 H   0  0  0  0  0  0  0  0  0  0  0  0
    4.0737   -4.1316   -1.1230 H   0  0  0  0  0  0  0  0  0  0  0  0
    7.0797   -3.4756   -1.3309 H   0  0  0  0  0  0  0  0  0  0  0  0
    5.9297   -3.3072   -2.5929 H   0  0  0  0  0  0  0  0  0  0  0  0
    3.7456   -1.8521   -0.7022 H   0  0  0  0  0  0  0  0  0  0  0  0
    4.4580   -0.2788   -0.8218 H   0  0  0  0  0  0  0  0  0  0  0  0
    3.8183    1.0347   -3.1557 H   0  0  0  0  0  0  0  0  0  0  0  0
    3.2531   -0.0140   -5.6459 H   0  0  0  0  0  0  0  0  0  0  0  0
    6.0413   -0.7690    0.7961 H   0  0  0  0  0  0  0  0  0  0  0  0
    7.3134   -1.9193    0.4309 H   0  0  0  0  0  0  0  0  0  0  0  0
  1  5  2  0
  1  2  1  0
  1 16  1  0
  2  3  2  0
  3 15  1  0
  3  4  1  0
  4  5  1  0
  4  6  1  0
  6  7  1  0
  6 17  1  0
  6 18  1  0
  7  8  1  0
  7 19  1  0
  7 20  1  0
  8  9  1  0
  8 15  1  0
  9 10  1  0
  9 21  1  0
  9 22  1  0
 10 14  2  0
 10 11  1  0
 11 12  2  0
 11 23  1  0
 12 13  1  0
 12 24  1  0
 13 14  1  0
 15 25  1  0
 15 26  1  0
M  END
>  <i_m_ct_stereo_status>  (253) 
1

>  <s_m_source_file>  (253) 
/var/tmp/pbs.5076255.sched01/tmpbnv9a_8s/88lo2bg1ru.sdf

>  <i_m_source_file_index>  (253) 
33

>  <i_lp_mmshare_version>  (253) 
48012

>  <i_f3d_flags>  (253) 
0

>  <s_epik_input>  (253) 
bjFbY0hdbm4oYzEyKVtDSDJdW0NIMl1OKFtDSDJdMilbQ0gyXWMzW2NIXVtjSF1vbjM=

>  <s_epik_cmdline>  (253) 
J2VwaWtfcHl0aG9uJywgJy1waHQnLCAnMi4wJywgJy1waCcsICc3LjAnLCAnLXRuJywgJzgnLCAnLW1hJywgJzIwMCcsICctaW1hZScsICc8aW5maWxlLm1hZT4nLCAnLW9tYWUnLCAnPG91dGZpbGUubWFlPic=

>  <r_lp_tautomer_probability>  (253) 
1

>  <r_epik_Ionization_Penalty>  (253) 
0.781766

>  <r_epik_Ionization_Penalty_Charging>  (253) 
0

>  <r_epik_Ionization_Penalty_Neutral>  (253) 
0.781766

>  <r_epik_State_Penalty>  (253) 
0.808151

>  <r_epik_Charging_Adjusted_Penalty>  (253) 
0.808151

>  <i_epik_Tot_Q>  (253) 
0

>  <i_epik_Tot_abs_Q>  (253) 
0

>  <s_lp_Force_Field>  (253) 
OPLS3e

>  <r_lp_Energy>  (253) 
24.652

>  <b_lp_Chiralities_Consistent>  (253) 
1

>  <s_lp_Variant>  (253) 
84:0-2

>  <s_i_glide_gridfile>  (253) 
pfpi4k_grid

>  <i_i_glide_lignum>  (253) 
33

>  <i_i_glide_rotatable_bonds>  (253) 
2

>  <r_i_docking_score>  (253) 
-3.61771

>  <r_i_glide_ligand_efficiency>  (253) 
-0.241181

>  <r_i_glide_ligand_efficiency_sa>  (253) 
-0.594803

>  <r_i_glide_ligand_efficiency_ln>  (253) 
-0.975638

>  <r_i_glide_gscore>  (253) 
-3.61771

>  <r_i_glide_lipo>  (253) 
-0.56241

>  <r_i_glide_hbond>  (253) 
-0.030828

>  <r_i_glide_metal>  (253) 
-0

>  <r_i_glide_rewards>  (253) 
-2.1872

>  <r_i_glide_evdw>  (253) 
-20.638

>  <r_i_glide_ecoul>  (253) 
-3.40917

>  <r_i_glide_erotb>  (253) 
0.782304

>  <r_i_glide_esite>  (253) 
-0.0763016

>  <r_i_glide_emodel>  (253) 
-29.4761

>  <r_i_glide_energy>  (253) 
-24.0472

>  <r_i_glide_einternal>  (253) 
0.952873

>  <r_i_glide_intrahb_reward>  (253) 
-0

>  <i_i_glide_confnum>  (253) 
1

>  <i_i_glide_posenum>  (253) 
2

>  <r_i_glide_eff_state_penalty>  (253) 
0

>  <ligand_id>  (253) 
84

>  <original_smiles>  (253) 
c1nc2n(n1)CCN(Cc1ccon1)C2

>  <smiles>  (253) 
[H]c1nc2n(n1)C([H])([H])C([H])([H])N(C([H])([H])c1noc([H])c1[H])C2([H])[H]

$$$$
84:1:1
     RDKit          3D

 26 28  0  0  1  0  0  0  0  0999 V2000
    3.8389   -1.2624   -3.7537 C   0  0  0  0  0  0  0  0  0  0  0  0
    4.0243   -2.6090   -3.5988 N   0  0  0  0  0  0  0  0  0  0  0  0
    4.4739   -2.6323   -2.3487 C   0  0  0  0  0  0  0  0  0  0  0  0
    4.5945   -1.4178   -1.8126 N   0  0  0  0  0  0  0  0  0  0  0  0
    4.2113   -0.5019   -2.7263 N   0  0  0  0  0  0  0  0  0  0  0  0
    4.9915   -1.1006   -0.4581 C   0  0  0  0  0  0  0  0  0  0  0  0
    5.5903   -2.3512    0.2315 C   0  0  0  0  0  0  0  0  0  0  0  0
    4.8279   -3.5719   -0.0714 N   0  0  0  0  0  0  0  0  0  0  0  0
    3.4464   -3.5637    0.4315 C   0  0  0  0  0  0  0  0  0  0  0  0
    2.9574   -4.9458    0.7956 C   0  0  0  0  0  0  0  0  0  0  0  0
    3.5603   -5.8696    1.6943 C   0  0  0  0  0  0  0  0  0  0  0  0
    2.6988   -6.9318    1.6882 C   0  0  0  0  0  0  0  0  0  0  0  0
    1.6366   -6.6749    0.8838 O   0  0  0  0  0  0  0  0  0  0  0  0
    1.8186   -5.4200    0.3022 N   0  0  0  0  0  0  0  0  0  0  0  0
    4.8643   -3.8224   -1.5209 C   0  0  0  0  0  0  0  0  0  0  0  0
    3.4628   -0.8188   -4.6613 H   0  0  0  0  0  0  0  0  0  0  0  0
    5.7225   -0.2944   -0.4750 H   0  0  0  0  0  0  0  0  0  0  0  0
    4.1153   -0.7432    0.0838 H   0  0  0  0  0  0  0  0  0  0  0  0
    6.6043   -2.5079   -0.1398 H   0  0  0  0  0  0  0  0  0  0  0  0
    5.6818   -2.2067    1.3096 H   0  0  0  0  0  0  0  0  0  0  0  0
    3.3853   -2.9279    1.3161 H   0  0  0  0  0  0  0  0  0  0  0  0
    2.7785   -3.1028   -0.3016 H   0  0  0  0  0  0  0  0  0  0  0  0
    4.4784   -5.7786    2.2590 H   0  0  0  0  0  0  0  0  0  0  0  0
    2.6969   -7.8895    2.1853 H   0  0  0  0  0  0  0  0  0  0  0  0
    4.2072   -4.6454   -1.7722 H   0  0  0  0  0  0  0  0  0  0  0  0
    5.8816   -4.0996   -1.7981 H   0  0  0  0  0  0  0  0  0  0  0  0
  1  5  2  0
  1  2  1  0
  1 16  1  0
  2  3  2  0
  3 15  1  0
  3  4  1  0
  4  5  1  0
  4  6  1  0
  6  7  1  0
  6 17  1  0
  6 18  1  0
  7  8  1  0
  7 19  1  0
  7 20  1  0
  8  9  1  0
  8 15  1  0
  9 10  1  0
  9 21  1  0
  9 22  1  0
 10 14  2  0
 10 11  1  0
 11 12  2  0
 11 23  1  0
 12 13  1  0
 12 24  1  0
 13 14  1  0
 15 25  1  0
 15 26  1  0
M  END
>  <i_m_ct_stereo_status>  (254) 
1

>  <s_m_source_file>  (254) 
/var/tmp/pbs.5076255.sched01/tmpbnv9a_8s/88lo2bg1ru.sdf

>  <i_m_source_file_index>  (254) 
33

>  <i_lp_mmshare_version>  (254) 
48012

>  <i_f3d_flags>  (254) 
0

>  <s_epik_input>  (254) 
bjFbY0hdbm4oYzEyKVtDSDJdW0NIMl1OKFtDSDJdMilbQ0gyXWMzW2NIXVtjSF1vbjM=

>  <s_epik_cmdline>  (254) 
J2VwaWtfcHl0aG9uJywgJy1waHQnLCAnMi4wJywgJy1waCcsICc3LjAnLCAnLXRuJywgJzgnLCAnLW1hJywgJzIwMCcsICctaW1hZScsICc8aW5maWxlLm1hZT4nLCAnLW9tYWUnLCAnPG91dGZpbGUubWFlPic=

>  <r_lp_tautomer_probability>  (254) 
1

>  <r_epik_Ionization_Penalty>  (254) 
0.781766

>  <r_epik_Ionization_Penalty_Charging>  (254) 
0

>  <r_epik_Ionization_Penalty_Neutral>  (254) 
0.781766

>  <r_epik_State_Penalty>  (254) 
0.808151

>  <r_epik_Charging_Adjusted_Penalty>  (254) 
0.808151

>  <i_epik_Tot_Q>  (254) 
0

>  <i_epik_Tot_abs_Q>  (254) 
0

>  <s_lp_Force_Field>  (254) 
OPLS3e

>  <r_lp_Energy>  (254) 
24.652

>  <b_lp_Chiralities_Consistent>  (254) 
1

>  <s_lp_Variant>  (254) 
84:0-2

>  <s_i_glide_gridfile>  (254) 
pfpi4k_grid

>  <i_i_glide_lignum>  (254) 
33

>  <i_i_glide_rotatable_bonds>  (254) 
2

>  <r_i_docking_score>  (254) 
-3.40393

>  <r_i_glide_ligand_efficiency>  (254) 
-0.226929

>  <r_i_glide_ligand_efficiency_sa>  (254) 
-0.559655

>  <r_i_glide_ligand_efficiency_ln>  (254) 
-0.917984

>  <r_i_glide_gscore>  (254) 
-3.40393

>  <r_i_glide_lipo>  (254) 
-0.0524538

>  <r_i_glide_hbond>  (254) 
0

>  <r_i_glide_metal>  (254) 
-0

>  <r_i_glide_rewards>  (254) 
-2.33251

>  <r_i_glide_evdw>  (254) 
-22.8444

>  <r_i_glide_ecoul>  (254) 
-3.11559

>  <r_i_glide_erotb>  (254) 
0.782304

>  <r_i_glide_esite>  (254) 
-0.191717

>  <r_i_glide_emodel>  (254) 
-30.1853

>  <r_i_glide_energy>  (254) 
-25.96

>  <r_i_glide_einternal>  (254) 
2.75093

>  <r_i_glide_intrahb_reward>  (254) 
-0

>  <i_i_glide_confnum>  (254) 
6

>  <i_i_glide_posenum>  (254) 
10

>  <r_i_glide_eff_state_penalty>  (254) 
0

>  <ligand_id>  (254) 
84

>  <original_smiles>  (254) 
c1nc2n(n1)CCN(Cc1ccon1)C2

>  <smiles>  (254) 
[H]c1nc2n(n1)C([H])([H])C([H])([H])N(C([H])([H])c1noc([H])c1[H])C2([H])[H]

$$$$
84:1:2
     RDKit          3D

 26 28  0  0  1  0  0  0  0  0999 V2000
    3.6045   -1.3494   -4.0148 C   0  0  0  0  0  0  0  0  0  0  0  0
    4.2091   -2.5762   -3.9490 N   0  0  0  0  0  0  0  0  0  0  0  0
    4.4881   -2.6115   -2.6518 C   0  0  0  0  0  0  0  0  0  0  0  0
    4.1212   -1.5157   -2.0062 N   0  0  0  0  0  0  0  0  0  0  0  0
    3.5521   -0.6565   -2.8809 N   0  0  0  0  0  0  0  0  0  0  0  0
    4.2078   -1.2683   -0.5870 C   0  0  0  0  0  0  0  0  0  0  0  0
    5.1548   -2.2978    0.0630 C   0  0  0  0  0  0  0  0  0  0  0  0
    4.9342   -3.6658   -0.4514 N   0  0  0  0  0  0  0  0  0  0  0  0
    3.6084   -4.2275   -0.1546 C   0  0  0  0  0  0  0  0  0  0  0  0
    3.3496   -4.4853    1.3111 C   0  0  0  0  0  0  0  0  0  0  0  0
    4.1841   -4.2232    2.4390 C   0  0  0  0  0  0  0  0  0  0  0  0
    3.4237   -4.6157    3.4969 C   0  0  0  0  0  0  0  0  0  0  0  0
    2.2409   -5.1232    3.0726 O   0  0  0  0  0  0  0  0  0  0  0  0
    2.2110   -5.0435    1.6762 N   0  0  0  0  0  0  0  0  0  0  0  0
    5.2055   -3.6938   -1.9010 C   0  0  0  0  0  0  0  0  0  0  0  0
    3.2119   -0.9293   -4.9297 H   0  0  0  0  0  0  0  0  0  0  0  0
    4.5726   -0.2624   -0.4174 H   0  0  0  0  0  0  0  0  0  0  0  0
    3.2062   -1.3531   -0.1685 H   0  0  0  0  0  0  0  0  0  0  0  0
    6.1891   -2.0418   -0.1762 H   0  0  0  0  0  0  0  0  0  0  0  0
    5.0530   -2.2145    1.1497 H   0  0  0  0  0  0  0  0  0  0  0  0
    2.8176   -3.6013   -0.5812 H   0  0  0  0  0  0  0  0  0  0  0  0
    3.5086   -5.1809   -0.6801 H   0  0  0  0  0  0  0  0  0  0  0  0
    5.1711   -3.7973    2.4682 H   0  0  0  0  0  0  0  0  0  0  0  0
    3.6023   -4.5910    4.5608 H   0  0  0  0  0  0  0  0  0  0  0  0
    4.9628   -4.6611   -2.3455 H   0  0  0  0  0  0  0  0  0  0  0  0
    6.2762   -3.5364   -2.0305 H   0  0  0  0  0  0  0  0  0  0  0  0
  1  5  2  0
  1  2  1  0
  1 16  1  0
  2  3  2  0
  3 15  1  0
  3  4  1  0
  4  5  1  0
  4  6  1  0
  6  7  1  0
  6 17  1  0
  6 18  1  0
  7  8  1  0
  7 19  1  0
  7 20  1  0
  8  9  1  0
  8 15  1  0
  9 10  1  0
  9 21  1  0
  9 22  1  0
 10 14  2  0
 10 11  1  0
 11 12  2  0
 11 23  1  0
 12 13  1  0
 12 24  1  0
 13 14  1  0
 15 25  1  0
 15 26  1  0
M  END
>  <i_m_ct_stereo_status>  (255) 
1

>  <s_m_source_file>  (255) 
/var/tmp/pbs.5076255.sched01/tmpbnv9a_8s/88lo2bg1ru.sdf

>  <i_m_source_file_index>  (255) 
33

>  <i_lp_mmshare_version>  (255) 
48012

>  <i_f3d_flags>  (255) 
0

>  <s_epik_input>  (255) 
bjFbY0hdbm4oYzEyKVtDSDJdW0NIMl1OKFtDSDJdMilbQ0gyXWMzW2NIXVtjSF1vbjM=

>  <s_epik_cmdline>  (255) 
J2VwaWtfcHl0aG9uJywgJy1waHQnLCAnMi4wJywgJy1waCcsICc3LjAnLCAnLXRuJywgJzgnLCAnLW1hJywgJzIwMCcsICctaW1hZScsICc8aW5maWxlLm1hZT4nLCAnLW9tYWUnLCAnPG91dGZpbGUubWFlPic=

>  <r_lp_tautomer_probability>  (255) 
1

>  <r_epik_Ionization_Penalty>  (255) 
0.781766

>  <r_epik_Ionization_Penalty_Charging>  (255) 
0

>  <r_epik_Ionization_Penalty_Neutral>  (255) 
0.781766

>  <r_epik_State_Penalty>  (255) 
0.808151

>  <r_epik_Charging_Adjusted_Penalty>  (255) 
0.808151

>  <i_epik_Tot_Q>  (255) 
0

>  <i_epik_Tot_abs_Q>  (255) 
0

>  <s_lp_Force_Field>  (255) 
OPLS3e

>  <r_lp_Energy>  (255) 
24.652

>  <b_lp_Chiralities_Consistent>  (255) 
1

>  <s_lp_Variant>  (255) 
84:0-2

>  <s_i_glide_gridfile>  (255) 
pfpi4k_grid

>  <i_i_glide_lignum>  (255) 
33

>  <i_i_glide_rotatable_bonds>  (255) 
2

>  <r_i_docking_score>  (255) 
-3.25593

>  <r_i_glide_ligand_efficiency>  (255) 
-0.217062

>  <r_i_glide_ligand_efficiency_sa>  (255) 
-0.535322

>  <r_i_glide_ligand_efficiency_ln>  (255) 
-0.878072

>  <r_i_glide_gscore>  (255) 
-3.25593

>  <r_i_glide_lipo>  (255) 
-0.0563148

>  <r_i_glide_hbond>  (255) 
-0.186339

>  <r_i_glide_metal>  (255) 
-0

>  <r_i_glide_rewards>  (255) 
-2.22602

>  <r_i_glide_evdw>  (255) 
-21.4734

>  <r_i_glide_ecoul>  (255) 
-2.82633

>  <r_i_glide_erotb>  (255) 
0.782304

>  <r_i_glide_esite>  (255) 
-0.0719413

>  <r_i_glide_emodel>  (255) 
-29.2769

>  <r_i_glide_energy>  (255) 
-24.2998

>  <r_i_glide_einternal>  (255) 
0.864001

>  <r_i_glide_intrahb_reward>  (255) 
-0

>  <i_i_glide_confnum>  (255) 
1

>  <i_i_glide_posenum>  (255) 
31

>  <r_i_glide_eff_state_penalty>  (255) 
0

>  <ligand_id>  (255) 
84

>  <original_smiles>  (255) 
c1nc2n(n1)CCN(Cc1ccon1)C2

>  <smiles>  (255) 
[H]c1nc2n(n1)C([H])([H])C([H])([H])N(C([H])([H])c1noc([H])c1[H])C2([H])[H]

$$$$
86:0:0
     RDKit          3D

 37 39  0  0  1  0  0  0  0  0999 V2000
    3.8473   -0.0686   -5.0659 C   0  0  0  0  0  0  0  0  0  0  0  0
    2.6277   -0.3833   -4.1820 C   0  0  0  0  0  0  0  0  0  0  0  0
    2.9303   -0.9518   -2.7764 C   0  0  2  0  0  0  0  0  0  0  0  0
    4.4114   -0.8037   -2.3142 C   0  0  0  0  0  0  0  0  0  0  0  0
    4.8077   -2.2342   -1.9501 C   0  0  2  0  0  0  0  0  0  0  0  0
    4.9221   -3.0276   -3.2846 C   0  0  0  0  0  0  0  0  0  0  0  0
    3.4170   -3.2319   -3.6848 C   0  0  0  0  0  0  0  0  0  0  0  0
    2.6547   -2.4766   -2.5483 C   0  0  1  0  0  0  0  0  0  0  0  0
    3.5493   -2.7512   -1.3218 C   0  0  2  0  0  0  0  0  0  0  0  0
    3.2365   -2.2646    0.0933 C   0  0  0  0  0  0  0  0  0  0  0  0
    3.3986   -3.6963    0.4689 C   0  0  0  0  0  0  0  0  0  0  0  0
    3.3860   -4.3667    1.6436 C   0  0  0  0  0  0  0  0  0  0  0  0
    3.5670   -5.7832    1.6636 C   0  0  0  0  0  0  0  0  0  0  0  0
    3.6943   -6.9358    1.6261 N   0  0  0  0  0  0  0  0  0  0  0  0
    3.1608   -3.7145    2.9283 C   0  0  0  0  0  0  0  0  0  0  0  0
    2.9187   -2.4016    2.8686 N   0  0  0  0  0  0  0  0  0  0  0  0
    3.1771   -4.2880    4.0202 O   0  0  0  0  0  0  0  0  0  0  0  0
    3.5798   -4.1173   -0.8087 N   0  0  0  0  0  0  0  0  0  0  0  0
    3.5584    0.2798   -6.0578 H   0  0  0  0  0  0  0  0  0  0  0  0
    4.4612   -0.9559   -5.1614 H   0  0  0  0  0  0  0  0  0  0  0  0
    4.4353    0.7185   -4.5938 H   0  0  0  0  0  0  0  0  0  0  0  0
    2.0380    0.5425   -4.0978 H   0  0  0  0  0  0  0  0  0  0  0  0
    1.9609   -1.0630   -4.7027 H   0  0  0  0  0  0  0  0  0  0  0  0
    2.2799   -0.3970   -2.1019 H   0  0  0  0  0  0  0  0  0  0  0  0
    5.0959   -0.5041   -3.1032 H   0  0  0  0  0  0  0  0  0  0  0  0
    4.4924   -0.0670   -1.5028 H   0  0  0  0  0  0  0  0  0  0  0  0
    5.6743   -2.2983   -1.3173 H   0  0  0  0  0  0  0  0  0  0  0  0
    5.3884   -2.4820   -4.0058 H   0  0  0  0  0  0  0  0  0  0  0  0
    5.3866   -4.0324   -3.1342 H   0  0  0  0  0  0  0  0  0  0  0  0
    3.2126   -2.8473   -4.6766 H   0  0  0  0  0  0  0  0  0  0  0  0
    3.1234   -4.2879   -3.7031 H   0  0  0  0  0  0  0  0  0  0  0  0
    1.6001   -2.7290   -2.4007 H   0  0  0  0  0  0  0  0  0  0  0  0
    3.9485   -1.5334    0.4309 H   0  0  0  0  0  0  0  0  0  0  0  0
    2.2838   -1.8527    0.2066 H   0  0  0  0  0  0  0  0  0  0  0  0
    3.8557   -4.9860   -1.2698 H   0  0  0  0  0  0  0  0  0  0  0  0
    2.7670   -1.8556    3.6987 H   0  0  0  0  0  0  0  0  0  0  0  0
    2.9104   -1.9564    1.9565 H   0  0  0  0  0  0  0  0  0  0  0  0
  1  2  1  0
  1 19  1  0
  1 20  1  0
  1 21  1  0
  2  3  1  0
  2 22  1  0
  2 23  1  0
  3  8  1  0
  3  4  1  0
  3 24  1  1
  4  5  1  0
  4 25  1  0
  4 26  1  0
  5  9  1  0
  5  6  1  0
  5 27  1  1
  6  7  1  0
  6 28  1  0
  6 29  1  0
  7  8  1  0
  7 30  1  0
  7 31  1  0
  8  9  1  0
  8 32  1  1
  9 10  1  0
  9 18  1  1
 10 33  1  0
 10 34  1  0
 10 11  1  0
 11 12  2  0
 11 18  1  0
 12 13  1  0
 12 15  1  0
 13 14  3  0
 15 16  1  0
 15 17  2  0
 16 36  1  0
 16 37  1  0
 18 35  1  0
M  END
>  <i_m_ct_stereo_status>  (256) 
1

>  <s_m_source_file>  (256) 
/var/tmp/pbs.5076255.sched01/tmpbnv9a_8s/88lo2bg1ru.sdf

>  <i_m_source_file_index>  (256) 
36

>  <i_lp_mmshare_version>  (256) 
48012

>  <i_f3d_flags>  (256) 
0

>  <s_epik_input>  (256) 
W0NIMl0xW0NIMl1bQ0BASF0yW0NASF0oW0NIMl1bQ0gzXSlbQ0gyXVtDQEhdMVtDQEBdMjNbQ0gyXUMoPU4zKVtDQEhdKEMjTilDKD1PKVtOSDJd

>  <s_epik_cmdline>  (256) 
J2VwaWtfcHl0aG9uJywgJy1waHQnLCAnMi4wJywgJy1waCcsICc3LjAnLCAnLXRuJywgJzgnLCAnLW1hJywgJzIwMCcsICctaW1hZScsICc8aW5maWxlLm1hZT4nLCAnLW9tYWUnLCAnPG91dGZpbGUubWFlPic=

>  <r_lp_tautomer_probability>  (256) 
0.5

>  <r_epik_Ionization_Penalty>  (256) 
0.000520418

>  <r_epik_Ionization_Penalty_Charging>  (256) 
0

>  <r_epik_Ionization_Penalty_Neutral>  (256) 
0.000520418

>  <r_epik_State_Penalty>  (256) 
0.41068

>  <r_epik_Charging_Adjusted_Penalty>  (256) 
0.41068

>  <i_epik_Tot_Q>  (256) 
0

>  <i_epik_Tot_abs_Q>  (256) 
0

>  <s_lp_Force_Field>  (256) 
OPLS3e

>  <r_lp_Energy>  (256) 
39.802

>  <b_lp_Chiralities_Consistent>  (256) 
1

>  <s_lp_Variant>  (256) 
86:0-1

>  <s_i_glide_gridfile>  (256) 
pfpi4k_grid

>  <i_i_glide_lignum>  (256) 
36

>  <i_i_glide_rotatable_bonds>  (256) 
3

>  <r_i_docking_score>  (256) 
-3.04086

>  <r_i_glide_ligand_efficiency>  (256) 
-0.168937

>  <r_i_glide_ligand_efficiency_sa>  (256) 
-0.442739

>  <r_i_glide_ligand_efficiency_ln>  (256) 
-0.781637

>  <r_i_glide_gscore>  (256) 
-3.04086

>  <r_i_glide_lipo>  (256) 
-0.69039

>  <r_i_glide_hbond>  (256) 
-0.209753

>  <r_i_glide_metal>  (256) 
-0

>  <r_i_glide_rewards>  (256) 
-1.76855

>  <r_i_glide_evdw>  (256) 
-11.6009

>  <r_i_glide_ecoul>  (256) 
-2.89499

>  <r_i_glide_erotb>  (256) 
0.578417

>  <r_i_glide_esite>  (256) 
-0.028711

>  <r_i_glide_emodel>  (256) 
-7.54336

>  <r_i_glide_energy>  (256) 
-14.4959

>  <r_i_glide_einternal>  (256) 
11.3319

>  <r_i_glide_intrahb_reward>  (256) 
-0

>  <i_i_glide_confnum>  (256) 
2

>  <i_i_glide_posenum>  (256) 
8

>  <r_i_glide_eff_state_penalty>  (256) 
0

>  <ligand_id>  (256) 
86

>  <original_smiles>  (256) 
CCC1CC2CCC1C21CC(C(C#N)C(N)=O)=N1

>  <smiles>  (256) 
[H]N([H])C(=O)C(C#N)=C1N([H])C2(C1([H])[H])C1([H])C([H])([H])C([H])([H])C2([H])C([H])(C([H])([H])C([H])([H])[H])C1([H])[H]

$$$$
86:0:1
     RDKit          3D

 37 39  0  0  1  0  0  0  0  0999 V2000
    2.5860   -0.2488   -4.5469 C   0  0  0  0  0  0  0  0  0  0  0  0
    3.8997   -0.6761   -3.8975 C   0  0  0  0  0  0  0  0  0  0  0  0
    3.7315   -1.3429   -2.5055 C   0  0  2  0  0  0  0  0  0  0  0  0
    4.9847   -1.0347   -1.6094 C   0  0  0  0  0  0  0  0  0  0  0  0
    5.3867   -2.4516   -1.1389 C   0  0  2  0  0  0  0  0  0  0  0  0
    6.0359   -3.1580   -2.3360 C   0  0  0  0  0  0  0  0  0  0  0  0
    4.8008   -3.4873   -3.2449 C   0  0  0  0  0  0  0  0  0  0  0  0
    3.5866   -2.8966   -2.4619 C   0  0  1  0  0  0  0  0  0  0  0  0
    4.0535   -3.1414   -1.0143 C   0  0  2  0  0  0  0  0  0  0  0  0
    3.1835   -2.7884    0.2129 C   0  0  0  0  0  0  0  0  0  0  0  0
    3.3999   -4.2339    0.5876 C   0  0  0  0  0  0  0  0  0  0  0  0
    3.0417   -4.9890    1.6566 C   0  0  0  0  0  0  0  0  0  0  0  0
    3.3627   -6.3829    1.6921 C   0  0  0  0  0  0  0  0  0  0  0  0
    3.6322   -7.5145    1.6877 N   0  0  0  0  0  0  0  0  0  0  0  0
    2.2998   -4.4579    2.7932 C   0  0  0  0  0  0  0  0  0  0  0  0
    2.2976   -3.1244    2.8920 N   0  0  0  0  0  0  0  0  0  0  0  0
    1.6993   -5.1389    3.6213 O   0  0  0  0  0  0  0  0  0  0  0  0
    4.0949   -4.5250   -0.5404 N   0  0  0  0  0  0  0  0  0  0  0  0
    2.7529    0.1576   -5.5517 H   0  0  0  0  0  0  0  0  0  0  0  0
    2.0910    0.5295   -3.9527 H   0  0  0  0  0  0  0  0  0  0  0  0
    1.9080   -1.1001   -4.6573 H   0  0  0  0  0  0  0  0  0  0  0  0
    4.3994   -1.3143   -4.6172 H   0  0  0  0  0  0  0  0  0  0  0  0
    4.5273    0.2212   -3.8294 H   0  0  0  0  0  0  0  0  0  0  0  0
    2.8662   -0.8793   -2.0273 H   0  0  0  0  0  0  0  0  0  0  0  0
    5.8317   -0.6079   -2.1732 H   0  0  0  0  0  0  0  0  0  0  0  0
    4.7084   -0.3446   -0.7827 H   0  0  0  0  0  0  0  0  0  0  0  0
    5.9823   -2.4625   -0.2286 H   0  0  0  0  0  0  0  0  0  0  0  0
    6.7488   -2.4693   -2.7976 H   0  0  0  0  0  0  0  0  0  0  0  0
    6.5635   -4.0776   -2.0538 H   0  0  0  0  0  0  0  0  0  0  0  0
    4.9615   -3.1261   -4.2614 H   0  0  0  0  0  0  0  0  0  0  0  0
    4.6865   -4.5641   -3.3387 H   0  0  0  0  0  0  0  0  0  0  0  0
    2.5425   -3.2656   -2.7090 H   0  0  0  0  0  0  0  0  0  0  0  0
    3.6612   -2.0254    0.8239 H   0  0  0  0  0  0  0  0  0  0  0  0
    2.1764   -2.5030   -0.0529 H   0  0  0  0  0  0  0  0  0  0  0  0
    4.5781   -5.3401   -0.8969 H   0  0  0  0  0  0  0  0  0  0  0  0
    1.8066   -2.6610    3.6378 H   0  0  0  0  0  0  0  0  0  0  0  0
    2.7825   -2.5816    2.1864 H   0  0  0  0  0  0  0  0  0  0  0  0
  1  2  1  0
  1 19  1  0
  1 20  1  0
  1 21  1  0
  2  3  1  0
  2 22  1  0
  2 23  1  0
  3  8  1  0
  3  4  1  0
  3 24  1  1
  4  5  1  0
  4 25  1  0
  4 26  1  0
  5  9  1  0
  5  6  1  0
  5 27  1  1
  6  7  1  0
  6 28  1  0
  6 29  1  0
  7  8  1  0
  7 30  1  0
  7 31  1  0
  8  9  1  0
  8 32  1  6
  9 10  1  0
  9 18  1  6
 10 33  1  0
 10 34  1  0
 10 11  1  0
 11 12  2  0
 11 18  1  0
 12 13  1  0
 12 15  1  0
 13 14  3  0
 15 16  1  0
 15 17  2  0
 16 36  1  0
 16 37  1  0
 18 35  1  0
M  END
>  <i_m_ct_stereo_status>  (257) 
1

>  <s_m_source_file>  (257) 
/var/tmp/pbs.5076255.sched01/tmpbnv9a_8s/88lo2bg1ru.sdf

>  <i_m_source_file_index>  (257) 
36

>  <i_lp_mmshare_version>  (257) 
48012

>  <i_f3d_flags>  (257) 
0

>  <s_epik_input>  (257) 
W0NIMl0xW0NIMl1bQ0BASF0yW0NASF0oW0NIMl1bQ0gzXSlbQ0gyXVtDQEhdMVtDQEBdMjNbQ0gyXUMoPU4zKVtDQEhdKEMjTilDKD1PKVtOSDJd

>  <s_epik_cmdline>  (257) 
J2VwaWtfcHl0aG9uJywgJy1waHQnLCAnMi4wJywgJy1waCcsICc3LjAnLCAnLXRuJywgJzgnLCAnLW1hJywgJzIwMCcsICctaW1hZScsICc8aW5maWxlLm1hZT4nLCAnLW9tYWUnLCAnPG91dGZpbGUubWFlPic=

>  <r_lp_tautomer_probability>  (257) 
0.5

>  <r_epik_Ionization_Penalty>  (257) 
0.000520418

>  <r_epik_Ionization_Penalty_Charging>  (257) 
0

>  <r_epik_Ionization_Penalty_Neutral>  (257) 
0.000520418

>  <r_epik_State_Penalty>  (257) 
0.41068

>  <r_epik_Charging_Adjusted_Penalty>  (257) 
0.41068

>  <i_epik_Tot_Q>  (257) 
0

>  <i_epik_Tot_abs_Q>  (257) 
0

>  <s_lp_Force_Field>  (257) 
OPLS3e

>  <r_lp_Energy>  (257) 
39.802

>  <b_lp_Chiralities_Consistent>  (257) 
1

>  <s_lp_Variant>  (257) 
86:0-1

>  <s_i_glide_gridfile>  (257) 
pfpi4k_grid

>  <i_i_glide_lignum>  (257) 
36

>  <i_i_glide_rotatable_bonds>  (257) 
3

>  <r_i_docking_score>  (257) 
-2.87887

>  <r_i_glide_ligand_efficiency>  (257) 
-0.159937

>  <r_i_glide_ligand_efficiency_sa>  (257) 
-0.419154

>  <r_i_glide_ligand_efficiency_ln>  (257) 
-0.739999

>  <r_i_glide_gscore>  (257) 
-2.87887

>  <r_i_glide_lipo>  (257) 
-0.739231

>  <r_i_glide_hbond>  (257) 
0

>  <r_i_glide_metal>  (257) 
-0

>  <r_i_glide_rewards>  (257) 
-1.79017

>  <r_i_glide_evdw>  (257) 
-15.8205

>  <r_i_glide_ecoul>  (257) 
-0.631041

>  <r_i_glide_erotb>  (257) 
0.578417

>  <r_i_glide_esite>  (257) 
-0.0422042

>  <r_i_glide_emodel>  (257) 
-11.6269

>  <r_i_glide_energy>  (257) 
-16.4516

>  <r_i_glide_einternal>  (257) 
8.48949

>  <r_i_glide_intrahb_reward>  (257) 
-0

>  <i_i_glide_confnum>  (257) 
2

>  <i_i_glide_posenum>  (257) 
33

>  <r_i_glide_eff_state_penalty>  (257) 
0

>  <ligand_id>  (257) 
86

>  <original_smiles>  (257) 
CCC1CC2CCC1C21CC(C(C#N)C(N)=O)=N1

>  <smiles>  (257) 
[H]N([H])C(=O)C(C#N)=C1N([H])C2(C1([H])[H])C1([H])C([H])([H])C([H])([H])C2([H])C([H])(C([H])([H])C([H])([H])[H])C1([H])[H]

$$$$
86:0:2
     RDKit          3D

 37 39  0  0  1  0  0  0  0  0999 V2000
    2.2598   -0.2625   -4.7980 C   0  0  0  0  0  0  0  0  0  0  0  0
    3.6627   -0.6700   -4.3732 C   0  0  0  0  0  0  0  0  0  0  0  0
    3.7093   -1.2050   -2.9300 C   0  0  2  0  0  0  0  0  0  0  0  0
    5.1170   -1.7265   -2.5642 C   0  0  0  0  0  0  0  0  0  0  0  0
    4.8703   -3.1587   -2.0865 C   0  0  2  0  0  0  0  0  0  0  0  0
    4.5655   -3.9746   -3.3468 C   0  0  0  0  0  0  0  0  0  0  0  0
    3.1315   -3.5003   -3.6961 C   0  0  0  0  0  0  0  0  0  0  0  0
    2.8189   -2.4385   -2.6028 C   0  0  1  0  0  0  0  0  0  0  0  0
    3.5530   -3.0166   -1.4005 C   0  0  2  0  0  0  0  0  0  0  0  0
    3.5537   -2.3512   -0.0232 C   0  0  0  0  0  0  0  0  0  0  0  0
    3.0989   -3.7131    0.4531 C   0  0  0  0  0  0  0  0  0  0  0  0
    2.8292   -4.2375    1.6669 C   0  0  0  0  0  0  0  0  0  0  0  0
    2.3587   -5.5881    1.7859 C   0  0  0  0  0  0  0  0  0  0  0  0
    1.9354   -6.6618    1.8427 N   0  0  0  0  0  0  0  0  0  0  0  0
    2.9762   -3.4797    2.8978 C   0  0  0  0  0  0  0  0  0  0  0  0
    3.3658   -2.2060    2.7390 N   0  0  0  0  0  0  0  0  0  0  0  0
    2.7755   -3.9262    4.0218 O   0  0  0  0  0  0  0  0  0  0  0  0
    3.0262   -4.2453   -0.7872 N   0  0  0  0  0  0  0  0  0  0  0  0
    2.2507    0.0769   -5.8310 H   0  0  0  0  0  0  0  0  0  0  0  0
    1.8670    0.5362   -4.1715 H   0  0  0  0  0  0  0  0  0  0  0  0
    1.5995   -1.1267   -4.7169 H   0  0  0  0  0  0  0  0  0  0  0  0
    4.0680   -1.4005   -5.0685 H   0  0  0  0  0  0  0  0  0  0  0  0
    4.3259    0.1815   -4.4811 H   0  0  0  0  0  0  0  0  0  0  0  0
    3.4643   -0.3796   -2.2653 H   0  0  0  0  0  0  0  0  0  0  0  0
    5.7503   -1.8570   -3.4094 H   0  0  0  0  0  0  0  0  0  0  0  0
    5.6467   -1.0528   -1.8913 H   0  0  0  0  0  0  0  0  0  0  0  0
    5.6801   -3.5568   -1.4760 H   0  0  0  0  0  0  0  0  0  0  0  0
    5.3258   -3.7709   -4.0964 H   0  0  0  0  0  0  0  0  0  0  0  0
    4.6147   -5.0448   -3.2116 H   0  0  0  0  0  0  0  0  0  0  0  0
    3.1074   -3.1593   -4.7222 H   0  0  0  0  0  0  0  0  0  0  0  0
    2.4146   -4.3059   -3.6881 H   0  0  0  0  0  0  0  0  0  0  0  0
    1.7592   -2.1950   -2.4049 H   0  0  0  0  0  0  0  0  0  0  0  0
    4.5629   -2.0363    0.2454 H   0  0  0  0  0  0  0  0  0  0  0  0
    2.8436   -1.5319    0.0434 H   0  0  0  0  0  0  0  0  0  0  0  0
    2.8967   -5.1635   -1.1770 H   0  0  0  0  0  0  0  0  0  0  0  0
    3.5023   -1.6046    3.5297 H   0  0  0  0  0  0  0  0  0  0  0  0
    3.5229   -1.8559    1.7992 H   0  0  0  0  0  0  0  0  0  0  0  0
  1  2  1  0
  1 19  1  0
  1 20  1  0
  1 21  1  0
  2  3  1  0
  2 22  1  0
  2 23  1  0
  3  8  1  0
  3  4  1  0
  3 24  1  1
  4  5  1  0
  4 25  1  0
  4 26  1  0
  5  9  1  0
  5  6  1  0
  5 27  1  1
  6  7  1  0
  6 28  1  0
  6 29  1  0
  7  8  1  0
  7 30  1  0
  7 31  1  0
  8  9  1  0
  8 32  1  1
  9 10  1  0
  9 18  1  1
 10 33  1  0
 10 34  1  0
 10 11  1  0
 11 12  2  0
 11 18  1  0
 12 13  1  0
 12 15  1  0
 13 14  3  0
 15 16  1  0
 15 17  2  0
 16 36  1  0
 16 37  1  0
 18 35  1  0
M  END
>  <i_m_ct_stereo_status>  (258) 
1

>  <s_m_source_file>  (258) 
/var/tmp/pbs.5076255.sched01/tmpbnv9a_8s/88lo2bg1ru.sdf

>  <i_m_source_file_index>  (258) 
36

>  <i_lp_mmshare_version>  (258) 
48012

>  <i_f3d_flags>  (258) 
0

>  <s_epik_input>  (258) 
W0NIMl0xW0NIMl1bQ0BASF0yW0NASF0oW0NIMl1bQ0gzXSlbQ0gyXVtDQEhdMVtDQEBdMjNbQ0gyXUMoPU4zKVtDQEhdKEMjTilDKD1PKVtOSDJd

>  <s_epik_cmdline>  (258) 
J2VwaWtfcHl0aG9uJywgJy1waHQnLCAnMi4wJywgJy1waCcsICc3LjAnLCAnLXRuJywgJzgnLCAnLW1hJywgJzIwMCcsICctaW1hZScsICc8aW5maWxlLm1hZT4nLCAnLW9tYWUnLCAnPG91dGZpbGUubWFlPic=

>  <r_lp_tautomer_probability>  (258) 
0.5

>  <r_epik_Ionization_Penalty>  (258) 
0.000520418

>  <r_epik_Ionization_Penalty_Charging>  (258) 
0

>  <r_epik_Ionization_Penalty_Neutral>  (258) 
0.000520418

>  <r_epik_State_Penalty>  (258) 
0.41068

>  <r_epik_Charging_Adjusted_Penalty>  (258) 
0.41068

>  <i_epik_Tot_Q>  (258) 
0

>  <i_epik_Tot_abs_Q>  (258) 
0

>  <s_lp_Force_Field>  (258) 
OPLS3e

>  <r_lp_Energy>  (258) 
39.802

>  <b_lp_Chiralities_Consistent>  (258) 
1

>  <s_lp_Variant>  (258) 
86:0-1

>  <s_i_glide_gridfile>  (258) 
pfpi4k_grid

>  <i_i_glide_lignum>  (258) 
36

>  <i_i_glide_rotatable_bonds>  (258) 
3

>  <r_i_docking_score>  (258) 
-2.67235

>  <r_i_glide_ligand_efficiency>  (258) 
-0.148464

>  <r_i_glide_ligand_efficiency_sa>  (258) 
-0.389086

>  <r_i_glide_ligand_efficiency_ln>  (258) 
-0.686915

>  <r_i_glide_gscore>  (258) 
-2.67235

>  <r_i_glide_lipo>  (258) 
-0.447506

>  <r_i_glide_hbond>  (258) 
-0.295659

>  <r_i_glide_metal>  (258) 
-0

>  <r_i_glide_rewards>  (258) 
-1.73645

>  <r_i_glide_evdw>  (258) 
-6.99099

>  <r_i_glide_ecoul>  (258) 
-3.12456

>  <r_i_glide_erotb>  (258) 
0.578417

>  <r_i_glide_esite>  (258) 
-0.0617481

>  <r_i_glide_emodel>  (258) 
-7.8588

>  <r_i_glide_energy>  (258) 
-10.1155

>  <r_i_glide_einternal>  (258) 
1.11617

>  <r_i_glide_intrahb_reward>  (258) 
-0

>  <i_i_glide_confnum>  (258) 
2

>  <i_i_glide_posenum>  (258) 
1

>  <r_i_glide_eff_state_penalty>  (258) 
0

>  <ligand_id>  (258) 
86

>  <original_smiles>  (258) 
CCC1CC2CCC1C21CC(C(C#N)C(N)=O)=N1

>  <smiles>  (258) 
[H]N([H])C(=O)C(C#N)=C1N([H])C2(C1([H])[H])C1([H])C([H])([H])C([H])([H])C2([H])C([H])(C([H])([H])C([H])([H])[H])C1([H])[H]

$$$$
86:1:0
     RDKit          3D

 37 39  0  0  1  0  0  0  0  0999 V2000
   -0.5308    3.2027   11.6625 C   0  0  0  0  0  0  0  0  0  0  0  0
   -1.5156    4.0691   10.8655 C   0  0  0  0  0  0  0  0  0  0  0  0
   -1.1002    4.2533    9.3817 C   0  0  2  0  0  0  0  0  0  0  0  0
   -2.2782    4.7885    8.5331 C   0  0  0  0  0  0  0  0  0  0  0  0
   -2.3590    3.7622    7.3846 C   0  0  2  0  0  0  0  0  0  0  0  0
   -2.9945    2.4960    7.9614 C   0  0  0  0  0  0  0  0  0  0  0  0
   -1.8566    1.9248    8.8312 C   0  0  0  0  0  0  0  0  0  0  0  0
   -0.6658    2.9556    8.5947 C   0  0  1  0  0  0  0  0  0  0  0  0
   -0.9187    3.3919    7.1633 C   0  0  2  0  0  0  0  0  0  0  0  0
   -0.0028    4.3956    6.4394 C   0  0  0  0  0  0  0  0  0  0  0  0
    0.0926    3.3008    5.3926 C   0  0  0  0  0  0  0  0  0  0  0  0
    0.6700    3.2291    4.1794 C   0  0  0  0  0  0  0  0  0  0  0  0
    1.3710    4.3562    3.6461 C   0  0  0  0  0  0  0  0  0  0  0  0
    1.9400    5.2898    3.2865 N   0  0  0  0  0  0  0  0  0  0  0  0
    0.6613    1.9815    3.3990 C   0  0  0  0  0  0  0  0  0  0  0  0
    0.7253    2.1579    2.0887 N   0  0  0  0  0  0  0  0  0  0  0  0
    0.5805    0.8611    3.8820 O   0  0  0  0  0  0  0  0  0  0  0  0
   -0.6214    2.4030    6.1325 N   0  0  0  0  0  0  0  0  0  0  0  0
   -0.8774    3.0756   12.6875 H   0  0  0  0  0  0  0  0  0  0  0  0
    0.4615    3.6538   11.6740 H   0  0  0  0  0  0  0  0  0  0  0  0
   -0.4374    2.2040   11.2305 H   0  0  0  0  0  0  0  0  0  0  0  0
   -2.5146    3.6278   10.9254 H   0  0  0  0  0  0  0  0  0  0  0  0
   -1.6203    5.0489   11.3432 H   0  0  0  0  0  0  0  0  0  0  0  0
   -0.2658    4.9618    9.3645 H   0  0  0  0  0  0  0  0  0  0  0  0
   -3.2224    4.7787    9.0656 H   0  0  0  0  0  0  0  0  0  0  0  0
   -2.0864    5.8152    8.2270 H   0  0  0  0  0  0  0  0  0  0  0  0
   -2.8442    4.1283    6.4956 H   0  0  0  0  0  0  0  0  0  0  0  0
   -3.8564    2.7714    8.5543 H   0  0  0  0  0  0  0  0  0  0  0  0
   -3.3033    1.7649    7.2200 H   0  0  0  0  0  0  0  0  0  0  0  0
   -2.1741    1.8690    9.8788 H   0  0  0  0  0  0  0  0  0  0  0  0
   -1.6191    0.8943    8.5441 H   0  0  0  0  0  0  0  0  0  0  0  0
    0.3792    2.6205    8.8458 H   0  0  0  0  0  0  0  0  0  0  0  0
   -0.5561    5.2985    6.1822 H   0  0  0  0  0  0  0  0  0  0  0  0
    0.9049    4.6433    6.9927 H   0  0  0  0  0  0  0  0  0  0  0  0
   -1.0176    1.5038    5.9170 H   0  0  0  0  0  0  0  0  0  0  0  0
    0.6810    1.3544    1.4981 H   0  0  0  0  0  0  0  0  0  0  0  0
    0.6812    3.1099    1.6405 H   0  0  0  0  0  0  0  0  0  0  0  0
  1  2  1  0
  1 19  1  0
  1 20  1  0
  1 21  1  0
  2  3  1  0
  2 22  1  0
  2 23  1  0
  3  8  1  0
  3  4  1  0
  3 24  1  1
  4  5  1  0
  4 25  1  0
  4 26  1  0
  5  9  1  0
  5  6  1  0
  5 27  1  6
  6  7  1  0
  6 28  1  0
  6 29  1  0
  7  8  1  0
  7 30  1  0
  7 31  1  0
  8  9  1  0
  8 32  1  6
  9 10  1  0
  9 18  1  6
 10 33  1  0
 10 34  1  0
 10 11  1  0
 11 12  2  0
 11 18  1  0
 12 13  1  0
 12 15  1  0
 13 14  3  0
 15 16  1  0
 15 17  2  0
 16 36  1  0
 16 37  1  0
 18 35  1  0
M  END
>  <i_m_ct_stereo_status>  (259) 
1

>  <s_m_source_file>  (259) 
/var/tmp/pbs.5076255.sched01/tmpbnv9a_8s/88lo2bg1ru.sdf

>  <i_m_source_file_index>  (259) 
37

>  <i_lp_mmshare_version>  (259) 
48012

>  <i_f3d_flags>  (259) 
0

>  <s_epik_input>  (259) 
W0NIMl0xW0NIMl1bQ0BASF0yW0NASF0oW0NIMl1bQ0gzXSlbQ0gyXVtDQEhdMVtDQEBdMjNbQ0gyXUMoPU4zKVtDQEhdKEMjTilDKD1PKVtOSDJd

>  <s_epik_cmdline>  (259) 
J2VwaWtfcHl0aG9uJywgJy1waHQnLCAnMi4wJywgJy1waCcsICc3LjAnLCAnLXRuJywgJzgnLCAnLW1hJywgJzIwMCcsICctaW1hZScsICc8aW5maWxlLm1hZT4nLCAnLW9tYWUnLCAnPG91dGZpbGUubWFlPic=

>  <r_lp_tautomer_probability>  (259) 
0.5

>  <r_epik_Ionization_Penalty>  (259) 
0.000520418

>  <r_epik_Ionization_Penalty_Charging>  (259) 
0

>  <r_epik_Ionization_Penalty_Neutral>  (259) 
0.000520418

>  <r_epik_State_Penalty>  (259) 
0.41068

>  <r_epik_Charging_Adjusted_Penalty>  (259) 
0.41068

>  <i_epik_Tot_Q>  (259) 
0

>  <i_epik_Tot_abs_Q>  (259) 
0

>  <s_lp_Force_Field>  (259) 
OPLS3e

>  <r_lp_Energy>  (259) 
41.6298

>  <b_lp_Chiralities_Consistent>  (259) 
1

>  <s_lp_Variant>  (259) 
86:0-2

>  <s_i_glide_gridfile>  (259) 
pfpi4k_grid

>  <i_i_glide_lignum>  (259) 
37

>  <i_i_glide_rotatable_bonds>  (259) 
3

>  <r_i_docking_score>  (259) 
-2.96765

>  <r_i_glide_ligand_efficiency>  (259) 
-0.164869

>  <r_i_glide_ligand_efficiency_sa>  (259) 
-0.43208

>  <r_i_glide_ligand_efficiency_ln>  (259) 
-0.762819

>  <r_i_glide_gscore>  (259) 
-2.96765

>  <r_i_glide_lipo>  (259) 
-0.182032

>  <r_i_glide_hbond>  (259) 
-0.16

>  <r_i_glide_metal>  (259) 
-0

>  <r_i_glide_rewards>  (259) 
-1.73645

>  <r_i_glide_evdw>  (259) 
-12.742

>  <r_i_glide_ecoul>  (259) 
-4.18353

>  <r_i_glide_erotb>  (259) 
0.578417

>  <r_i_glide_esite>  (259) 
-0.202954

>  <r_i_glide_emodel>  (259) 
-16.288

>  <r_i_glide_energy>  (259) 
-16.9255

>  <r_i_glide_einternal>  (259) 
2.37574

>  <r_i_glide_intrahb_reward>  (259) 
-0

>  <i_i_glide_confnum>  (259) 
3

>  <i_i_glide_posenum>  (259) 
27

>  <r_i_glide_eff_state_penalty>  (259) 
0

>  <ligand_id>  (259) 
86

>  <original_smiles>  (259) 
CCC1CC2CCC1C21CC(C(C#N)C(N)=O)=N1

>  <smiles>  (259) 
[H]N([H])C(=O)C(C#N)=C1N([H])C2(C1([H])[H])C1([H])C([H])([H])C([H])([H])C2([H])C([H])(C([H])([H])C([H])([H])[H])C1([H])[H]

$$$$
86:1:1
     RDKit          3D

 37 39  0  0  1  0  0  0  0  0999 V2000
   -2.5656    3.6368    8.3630 C   0  0  0  0  0  0  0  0  0  0  0  0
   -2.5740    3.0354    6.9547 C   0  0  0  0  0  0  0  0  0  0  0  0
   -1.1732    2.7262    6.3860 C   0  0  2  0  0  0  0  0  0  0  0  0
   -0.5212    4.0267    5.8240 C   0  0  0  0  0  0  0  0  0  0  0  0
   -0.1387    3.6130    4.3921 C   0  0  2  0  0  0  0  0  0  0  0  0
   -1.4437    3.5875    3.5906 C   0  0  0  0  0  0  0  0  0  0  0  0
   -2.1263    2.3056    4.1305 C   0  0  0  0  0  0  0  0  0  0  0  0
   -1.1034    1.7186    5.1821 C   0  0  1  0  0  0  0  0  0  0  0  0
    0.2207    2.1646    4.5651 C   0  0  2  0  0  0  0  0  0  0  0  0
    1.6003    1.8513    5.1792 C   0  0  0  0  0  0  0  0  0  0  0  0
    1.8894    1.2768    3.8217 C   0  0  0  0  0  0  0  0  0  0  0  0
    2.9870    0.6990    3.2710 C   0  0  0  0  0  0  0  0  0  0  0  0
    4.1944    0.6041    4.0370 C   0  0  0  0  0  0  0  0  0  0  0  0
    5.1537    0.5425    4.6784 N   0  0  0  0  0  0  0  0  0  0  0  0
    3.0214    0.1356    1.9430 C   0  0  0  0  0  0  0  0  0  0  0  0
    1.8415    0.1372    1.2687 N   0  0  0  0  0  0  0  0  0  0  0  0
    4.0026   -0.3541    1.3878 O   0  0  0  0  0  0  0  0  0  0  0  0
    0.6327    1.5059    3.3451 N   0  0  0  0  0  0  0  0  0  0  0  0
   -3.5839    3.8123    8.7124 H   0  0  0  0  0  0  0  0  0  0  0  0
   -2.0395    4.5918    8.4009 H   0  0  0  0  0  0  0  0  0  0  0  0
   -2.0883    2.9596    9.0688 H   0  0  0  0  0  0  0  0  0  0  0  0
   -3.1542    2.1175    6.9537 H   0  0  0  0  0  0  0  0  0  0  0  0
   -3.1043    3.7400    6.3101 H   0  0  0  0  0  0  0  0  0  0  0  0
   -0.5599    2.3540    7.2061 H   0  0  0  0  0  0  0  0  0  0  0  0
   -1.1986    4.8754    5.7417 H   0  0  0  0  0  0  0  0  0  0  0  0
    0.2874    4.3801    6.4705 H   0  0  0  0  0  0  0  0  0  0  0  0
    0.6404    4.2384    3.9505 H   0  0  0  0  0  0  0  0  0  0  0  0
   -1.9774    4.5122    3.8001 H   0  0  0  0  0  0  0  0  0  0  0  0
   -1.3352    3.5588    2.5018 H   0  0  0  0  0  0  0  0  0  0  0  0
   -3.0568    2.6090    4.5835 H   0  0  0  0  0  0  0  0  0  0  0  0
   -2.4255    1.7141    3.2701 H   0  0  0  0  0  0  0  0  0  0  0  0
   -1.1438    0.6343    5.4986 H   0  0  0  0  0  0  0  0  0  0  0  0
    2.0978    2.7801    5.4648 H   0  0  0  0  0  0  0  0  0  0  0  0
    1.5086    1.1716    6.0223 H   0  0  0  0  0  0  0  0  0  0  0  0
    0.2131    1.4407    2.4276 H   0  0  0  0  0  0  0  0  0  0  0  0
    1.7309   -0.2330    0.3523 H   0  0  0  0  0  0  0  0  0  0  0  0
    1.0306    0.5350    1.7318 H   0  0  0  0  0  0  0  0  0  0  0  0
  1  2  1  0
  1 19  1  0
  1 20  1  0
  1 21  1  0
  2  3  1  0
  2 22  1  0
  2 23  1  0
  3  8  1  0
  3  4  1  0
  3 24  1  1
  4  5  1  0
  4 25  1  0
  4 26  1  0
  5  9  1  0
  5  6  1  0
  5 27  1  6
  6  7  1  0
  6 28  1  0
  6 29  1  0
  7  8  1  0
  7 30  1  0
  7 31  1  0
  8  9  1  0
  8 32  1  1
  9 10  1  0
  9 18  1  6
 10 33  1  0
 10 34  1  0
 10 11  1  0
 11 12  2  0
 11 18  1  0
 12 13  1  0
 12 15  1  0
 13 14  3  0
 15 16  1  0
 15 17  2  0
 16 36  1  0
 16 37  1  0
 18 35  1  0
M  END
>  <i_m_ct_stereo_status>  (260) 
1

>  <s_m_source_file>  (260) 
/var/tmp/pbs.5076255.sched01/tmpbnv9a_8s/88lo2bg1ru.sdf

>  <i_m_source_file_index>  (260) 
37

>  <i_lp_mmshare_version>  (260) 
48012

>  <i_f3d_flags>  (260) 
0

>  <s_epik_input>  (260) 
W0NIMl0xW0NIMl1bQ0BASF0yW0NASF0oW0NIMl1bQ0gzXSlbQ0gyXVtDQEhdMVtDQEBdMjNbQ0gyXUMoPU4zKVtDQEhdKEMjTilDKD1PKVtOSDJd

>  <s_epik_cmdline>  (260) 
J2VwaWtfcHl0aG9uJywgJy1waHQnLCAnMi4wJywgJy1waCcsICc3LjAnLCAnLXRuJywgJzgnLCAnLW1hJywgJzIwMCcsICctaW1hZScsICc8aW5maWxlLm1hZT4nLCAnLW9tYWUnLCAnPG91dGZpbGUubWFlPic=

>  <r_lp_tautomer_probability>  (260) 
0.5

>  <r_epik_Ionization_Penalty>  (260) 
0.000520418

>  <r_epik_Ionization_Penalty_Charging>  (260) 
0

>  <r_epik_Ionization_Penalty_Neutral>  (260) 
0.000520418

>  <r_epik_State_Penalty>  (260) 
0.41068

>  <r_epik_Charging_Adjusted_Penalty>  (260) 
0.41068

>  <i_epik_Tot_Q>  (260) 
0

>  <i_epik_Tot_abs_Q>  (260) 
0

>  <s_lp_Force_Field>  (260) 
OPLS3e

>  <r_lp_Energy>  (260) 
41.6298

>  <b_lp_Chiralities_Consistent>  (260) 
1

>  <s_lp_Variant>  (260) 
86:0-2

>  <s_i_glide_gridfile>  (260) 
pfpi4k_grid

>  <i_i_glide_lignum>  (260) 
37

>  <i_i_glide_rotatable_bonds>  (260) 
3

>  <r_i_docking_score>  (260) 
-2.57109

>  <r_i_glide_ligand_efficiency>  (260) 
-0.142839

>  <r_i_glide_ligand_efficiency_sa>  (260) 
-0.374343

>  <r_i_glide_ligand_efficiency_ln>  (260) 
-0.660886

>  <r_i_glide_gscore>  (260) 
-2.57109

>  <r_i_glide_lipo>  (260) 
-0.240644

>  <r_i_glide_hbond>  (260) 
-0.151984

>  <r_i_glide_metal>  (260) 
-0

>  <r_i_glide_rewards>  (260) 
-1.76488

>  <r_i_glide_evdw>  (260) 
-13.4564

>  <r_i_glide_ecoul>  (260) 
-4.65064

>  <r_i_glide_erotb>  (260) 
0.578417

>  <r_i_glide_esite>  (260) 
-0.113135

>  <r_i_glide_emodel>  (260) 
-16.3716

>  <r_i_glide_energy>  (260) 
-18.1071

>  <r_i_glide_einternal>  (260) 
0.192322

>  <r_i_glide_intrahb_reward>  (260) 
-0

>  <i_i_glide_confnum>  (260) 
4

>  <i_i_glide_posenum>  (260) 
29

>  <r_i_glide_eff_state_penalty>  (260) 
0

>  <ligand_id>  (260) 
86

>  <original_smiles>  (260) 
CCC1CC2CCC1C21CC(C(C#N)C(N)=O)=N1

>  <smiles>  (260) 
[H]N([H])C(=O)C(C#N)=C1N([H])C2(C1([H])[H])C1([H])C([H])([H])C([H])([H])C2([H])C([H])(C([H])([H])C([H])([H])[H])C1([H])[H]

$$$$
86:1:2
     RDKit          3D

 37 39  0  0  1  0  0  0  0  0999 V2000
   -2.8917    3.3254   10.5711 C   0  0  0  0  0  0  0  0  0  0  0  0
   -2.3782    3.8878    9.2367 C   0  0  0  0  0  0  0  0  0  0  0  0
   -1.6461    2.8630    8.3498 C   0  0  2  0  0  0  0  0  0  0  0  0
   -0.1791    2.6205    8.8615 C   0  0  0  0  0  0  0  0  0  0  0  0
    0.6594    2.8855    7.5759 C   0  0  2  0  0  0  0  0  0  0  0  0
    0.6639    4.4146    7.3489 C   0  0  0  0  0  0  0  0  0  0  0  0
   -0.8036    4.6810    6.8722 C   0  0  0  0  0  0  0  0  0  0  0  0
   -1.4785    3.2709    6.8613 C   0  0  1  0  0  0  0  0  0  0  0  0
   -0.2786    2.3724    6.5103 C   0  0  2  0  0  0  0  0  0  0  0  0
   -0.3894    0.8200    6.2993 C   0  0  0  0  0  0  0  0  0  0  0  0
    0.2165    1.1224    4.9493 C   0  0  0  0  0  0  0  0  0  0  0  0
    0.6539    0.3258    3.9467 C   0  0  0  0  0  0  0  0  0  0  0  0
    0.5834   -1.0875    4.0656 C   0  0  0  0  0  0  0  0  0  0  0  0
    0.4875   -2.2371    4.2036 N   0  0  0  0  0  0  0  0  0  0  0  0
    1.2023    0.8405    2.6822 C   0  0  0  0  0  0  0  0  0  0  0  0
    0.9357    2.1252    2.4287 N   0  0  0  0  0  0  0  0  0  0  0  0
    1.8555    0.1708    1.8751 O   0  0  0  0  0  0  0  0  0  0  0  0
    0.1684    2.4830    5.1232 N   0  0  0  0  0  0  0  0  0  0  0  0
   -3.3867    4.1084   11.1654 H   0  0  0  0  0  0  0  0  0  0  0  0
   -2.0686    2.9318   11.1792 H   0  0  0  0  0  0  0  0  0  0  0  0
   -3.6129    2.5192   10.4053 H   0  0  0  0  0  0  0  0  0  0  0  0
   -3.2201    4.3224    8.6969 H   0  0  0  0  0  0  0  0  0  0  0  0
   -1.7193    4.7281    9.4954 H   0  0  0  0  0  0  0  0  0  0  0  0
   -2.1956    1.9281    8.4028 H   0  0  0  0  0  0  0  0  0  0  0  0
    0.1236    3.3550    9.6417 H   0  0  0  0  0  0  0  0  0  0  0  0
   -0.0712    1.5912    9.2726 H   0  0  0  0  0  0  0  0  0  0  0  0
    1.6450    2.4185    7.5936 H   0  0  0  0  0  0  0  0  0  0  0  0
    0.8858    4.9249    8.3034 H   0  0  0  0  0  0  0  0  0  0  0  0
    1.4016    4.7266    6.5770 H   0  0  0  0  0  0  0  0  0  0  0  0
   -1.2869    5.3876    7.5372 H   0  0  0  0  0  0  0  0  0  0  0  0
   -0.7712    5.1556    5.8946 H   0  0  0  0  0  0  0  0  0  0  0  0
   -2.3861    3.1121    6.2271 H   0  0  0  0  0  0  0  0  0  0  0  0
    0.2112    0.2872    7.0375 H   0  0  0  0  0  0  0  0  0  0  0  0
   -1.4146    0.4701    6.3161 H   0  0  0  0  0  0  0  0  0  0  0  0
    0.6825    3.2307    4.6810 H   0  0  0  0  0  0  0  0  0  0  0  0
    1.2319    2.5887    1.5713 H   0  0  0  0  0  0  0  0  0  0  0  0
    0.3530    2.6372    3.0849 H   0  0  0  0  0  0  0  0  0  0  0  0
  1  2  1  0
  1 19  1  0
  1 20  1  0
  1 21  1  0
  2  3  1  0
  2 22  1  0
  2 23  1  0
  3  8  1  0
  3  4  1  0
  3 24  1  6
  4  5  1  0
  4 25  1  0
  4 26  1  0
  5  9  1  0
  5  6  1  0
  5 27  1  1
  6  7  1  0
  6 28  1  0
  6 29  1  0
  7  8  1  0
  7 30  1  0
  7 31  1  0
  8  9  1  0
  8 32  1  6
  9 10  1  0
  9 18  1  6
 10 33  1  0
 10 34  1  0
 10 11  1  0
 11 12  2  0
 11 18  1  0
 12 13  1  0
 12 15  1  0
 13 14  3  0
 15 16  1  0
 15 17  2  0
 16 36  1  0
 16 37  1  0
 18 35  1  0
M  END
>  <i_m_ct_stereo_status>  (261) 
1

>  <s_m_source_file>  (261) 
/var/tmp/pbs.5076255.sched01/tmpbnv9a_8s/88lo2bg1ru.sdf

>  <i_m_source_file_index>  (261) 
37

>  <i_lp_mmshare_version>  (261) 
48012

>  <i_f3d_flags>  (261) 
0

>  <s_epik_input>  (261) 
W0NIMl0xW0NIMl1bQ0BASF0yW0NASF0oW0NIMl1bQ0gzXSlbQ0gyXVtDQEhdMVtDQEBdMjNbQ0gyXUMoPU4zKVtDQEhdKEMjTilDKD1PKVtOSDJd

>  <s_epik_cmdline>  (261) 
J2VwaWtfcHl0aG9uJywgJy1waHQnLCAnMi4wJywgJy1waCcsICc3LjAnLCAnLXRuJywgJzgnLCAnLW1hJywgJzIwMCcsICctaW1hZScsICc8aW5maWxlLm1hZT4nLCAnLW9tYWUnLCAnPG91dGZpbGUubWFlPic=

>  <r_lp_tautomer_probability>  (261) 
0.5

>  <r_epik_Ionization_Penalty>  (261) 
0.000520418

>  <r_epik_Ionization_Penalty_Charging>  (261) 
0

>  <r_epik_Ionization_Penalty_Neutral>  (261) 
0.000520418

>  <r_epik_State_Penalty>  (261) 
0.41068

>  <r_epik_Charging_Adjusted_Penalty>  (261) 
0.41068

>  <i_epik_Tot_Q>  (261) 
0

>  <i_epik_Tot_abs_Q>  (261) 
0

>  <s_lp_Force_Field>  (261) 
OPLS3e

>  <r_lp_Energy>  (261) 
41.6298

>  <b_lp_Chiralities_Consistent>  (261) 
1

>  <s_lp_Variant>  (261) 
86:0-2

>  <s_i_glide_gridfile>  (261) 
pfpi4k_grid

>  <i_i_glide_lignum>  (261) 
37

>  <i_i_glide_rotatable_bonds>  (261) 
3

>  <r_i_docking_score>  (261) 
-1.8988

>  <r_i_glide_ligand_efficiency>  (261) 
-0.105489

>  <r_i_glide_ligand_efficiency_sa>  (261) 
-0.276459

>  <r_i_glide_ligand_efficiency_ln>  (261) 
-0.488077

>  <r_i_glide_gscore>  (261) 
-1.8988

>  <r_i_glide_lipo>  (261) 
-0.0352724

>  <r_i_glide_hbond>  (261) 
-0.0368013

>  <r_i_glide_metal>  (261) 
-0

>  <r_i_glide_rewards>  (261) 
-1.73645

>  <r_i_glide_evdw>  (261) 
-13.973

>  <r_i_glide_ecoul>  (261) 
1.05788

>  <r_i_glide_erotb>  (261) 
0.578417

>  <r_i_glide_esite>  (261) 
-0.128725

>  <r_i_glide_emodel>  (261) 
-12.974

>  <r_i_glide_energy>  (261) 
-12.9151

>  <r_i_glide_einternal>  (261) 
0.82218

>  <r_i_glide_intrahb_reward>  (261) 
-0

>  <i_i_glide_confnum>  (261) 
4

>  <i_i_glide_posenum>  (261) 
28

>  <r_i_glide_eff_state_penalty>  (261) 
0

>  <ligand_id>  (261) 
86

>  <original_smiles>  (261) 
CCC1CC2CCC1C21CC(C(C#N)C(N)=O)=N1

>  <smiles>  (261) 
[H]N([H])C(=O)C(C#N)=C1N([H])C2(C1([H])[H])C1([H])C([H])([H])C([H])([H])C2([H])C([H])(C([H])([H])C([H])([H])[H])C1([H])[H]

$$$$
87:0:0
     RDKit          3D

 26 28  0  0  1  0  0  0  0  0999 V2000
   -0.6207   -4.4619   10.9553 C   0  0  0  0  0  0  0  0  0  0  0  0
   -0.5843   -4.6685    9.4808 C   0  0  0  0  0  0  0  0  0  0  0  0
   -0.9717   -3.7200    8.6358 N   0  0  0  0  0  0  0  0  0  0  0  0
   -0.7810   -4.3190    7.3794 O   0  0  0  0  0  0  0  0  0  0  0  0
   -0.2914   -5.5668    7.6151 C   0  0  0  0  0  0  0  0  0  0  0  0
   -0.0218   -6.4083    6.4394 C   0  0  0  0  0  0  0  0  0  0  0  0
    0.3241   -7.7199    6.3367 C   0  0  0  0  0  0  0  0  0  0  0  0
    0.5054   -8.6892    7.4348 C   0  0  0  0  0  0  0  0  0  0  0  0
    0.3551   -8.5549    8.6452 O   0  0  0  0  0  0  0  0  0  0  0  0
    0.8448   -9.8481    6.8670 N   0  0  0  0  0  0  0  0  0  0  0  0
    0.8928   -9.7777    5.4837 C   0  0  0  0  0  0  0  0  0  0  0  0
    1.2005  -10.8060    4.5802 C   0  0  0  0  0  0  0  0  0  0  0  0
    1.1984  -10.4924    3.2076 C   0  0  0  0  0  0  0  0  0  0  0  0
    0.8860   -9.1769    2.7820 C   0  0  0  0  0  0  0  0  0  0  0  0
    0.5723   -8.1607    3.7114 C   0  0  0  0  0  0  0  0  0  0  0  0
    0.2174   -6.5818    3.1051 Cl  0  0  0  0  0  0  0  0  0  0  0  0
    0.5801   -8.4803    5.0934 C   0  0  0  0  0  0  0  0  0  0  0  0
   -0.1834   -5.8357    8.9156 N   0  0  0  0  0  0  0  0  0  0  0  0
   -0.9818   -3.4673   11.2099 H   0  0  0  0  0  0  0  0  0  0  0  0
    0.3816   -4.5796   11.3650 H   0  0  0  0  0  0  0  0  0  0  0  0
   -1.2830   -5.1967   11.4104 H   0  0  0  0  0  0  0  0  0  0  0  0
   -0.1159   -5.8527    5.5224 H   0  0  0  0  0  0  0  0  0  0  0  0
    1.0135  -10.7525    7.3377 H   0  0  0  0  0  0  0  0  0  0  0  0
    1.4368  -11.8039    4.9233 H   0  0  0  0  0  0  0  0  0  0  0  0
    1.4391  -11.2516    2.4807 H   0  0  0  0  0  0  0  0  0  0  0  0
    0.8888   -8.9522    1.7242 H   0  0  0  0  0  0  0  0  0  0  0  0
  1  2  1  0
  1 19  1  0
  1 20  1  0
  1 21  1  0
  2 18  1  0
  2  3  2  0
  3  4  1  0
  4  5  1  0
  5  6  1  0
  5 18  2  0
  6  7  2  3
  6 22  1  0
  7 17  1  0
  7  8  1  0
  8  9  2  0
  8 10  1  0
 10 11  1  0
 10 23  1  0
 11 17  2  0
 11 12  1  0
 12 13  2  0
 12 24  1  0
 13 14  1  0
 13 25  1  0
 14 15  2  0
 14 26  1  0
 15 16  1  0
 15 17  1  0
M  END
>  <i_m_ct_stereo_status>  (262) 
1

>  <s_m_source_file>  (262) 
/var/tmp/pbs.5076255.sched01/tmpbnv9a_8s/88lo2bg1ru.sdf

>  <i_m_source_file_index>  (262) 
38

>  <i_lp_mmshare_version>  (262) 
48012

>  <i_f3d_flags>  (262) 
0

>  <s_epik_input>  (262) 
W0NIM11jMW5vYyhuMSkvW0NIXT1DKFxDKD1PKVtOSF0yKWMoYzIzKWMoQ2wpW2NIXVtjSF1bY0hdMw==

>  <s_epik_cmdline>  (262) 
J2VwaWtfcHl0aG9uJywgJy1waHQnLCAnMi4wJywgJy1waCcsICc3LjAnLCAnLXRuJywgJzgnLCAnLW1hJywgJzIwMCcsICctaW1hZScsICc8aW5maWxlLm1hZT4nLCAnLW9tYWUnLCAnPG91dGZpbGUubWFlPic=

>  <r_lp_tautomer_probability>  (262) 
1

>  <r_epik_Ionization_Penalty>  (262) 
2.06019e-06

>  <r_epik_Ionization_Penalty_Charging>  (262) 
0

>  <r_epik_Ionization_Penalty_Neutral>  (262) 
2.06019e-06

>  <r_epik_State_Penalty>  (262) 
-0

>  <r_epik_Charging_Adjusted_Penalty>  (262) 
0

>  <i_epik_Tot_Q>  (262) 
0

>  <i_epik_Tot_abs_Q>  (262) 
0

>  <s_lp_Force_Field>  (262) 
OPLS3e

>  <r_lp_Energy>  (262) 
11.4314

>  <b_lp_Chiralities_Consistent>  (262) 
1

>  <s_lp_Variant>  (262) 
87:0-1

>  <s_i_glide_gridfile>  (262) 
pfpi4k_grid

>  <i_i_glide_lignum>  (262) 
38

>  <i_i_glide_rotatable_bonds>  (262) 
1

>  <r_i_docking_score>  (262) 
-4.45878

>  <r_i_glide_ligand_efficiency>  (262) 
-0.24771

>  <r_i_glide_ligand_efficiency_sa>  (262) 
-0.649184

>  <r_i_glide_ligand_efficiency_ln>  (262) 
-1.14611

>  <r_i_glide_gscore>  (262) 
-4.45878

>  <r_i_glide_lipo>  (262) 
-0.185318

>  <r_i_glide_hbond>  (262) 
-0.289144

>  <r_i_glide_metal>  (262) 
-0

>  <r_i_glide_rewards>  (262) 
-1.62502

>  <r_i_glide_evdw>  (262) 
-16.9302

>  <r_i_glide_ecoul>  (262) 
-10.0877

>  <r_i_glide_erotb>  (262) 
0.258892

>  <r_i_glide_esite>  (262) 
-0.258534

>  <r_i_glide_emodel>  (262) 
-36.2045

>  <r_i_glide_energy>  (262) 
-27.0178

>  <r_i_glide_einternal>  (262) 
0.0794853

>  <r_i_glide_intrahb_reward>  (262) 
-0

>  <i_i_glide_confnum>  (262) 
3

>  <i_i_glide_posenum>  (262) 
9

>  <r_i_glide_eff_state_penalty>  (262) 
0

>  <ligand_id>  (262) 
87

>  <original_smiles>  (262) 
Cc1noc(C=C2C(=O)Nc3cccc(Cl)c32)n1

>  <smiles>  (262) 
[H]C(=C1C(=O)N([H])c2c([H])c([H])c([H])c(Cl)c21)c1nc(C([H])([H])[H])no1

$$$$
87:0:1
     RDKit          3D

 26 28  0  0  1  0  0  0  0  0999 V2000
   -0.1837   -8.8054    2.5134 C   0  0  0  0  0  0  0  0  0  0  0  0
    0.6930   -7.7435    1.9431 C   0  0  0  0  0  0  0  0  0  0  0  0
    0.1761   -6.6964    1.3169 N   0  0  0  0  0  0  0  0  0  0  0  0
    1.3113   -5.9692    0.9482 O   0  0  0  0  0  0  0  0  0  0  0  0
    2.3854   -6.6413    1.4122 C   0  0  0  0  0  0  0  0  0  0  0  0
    3.7541   -6.1401    1.2050 C   0  0  0  0  0  0  0  0  0  0  0  0
    4.2272   -5.0486    0.5398 C   0  0  0  0  0  0  0  0  0  0  0  0
    3.4389   -4.0421   -0.1956 C   0  0  0  0  0  0  0  0  0  0  0  0
    2.2295   -3.9409   -0.3726 O   0  0  0  0  0  0  0  0  0  0  0  0
    4.2975   -3.1516   -0.6975 N   0  0  0  0  0  0  0  0  0  0  0  0
    5.6108   -3.4561   -0.3718 C   0  0  0  0  0  0  0  0  0  0  0  0
    6.7584   -2.7425   -0.7360 C   0  0  0  0  0  0  0  0  0  0  0  0
    8.0031   -3.2332   -0.2920 C   0  0  0  0  0  0  0  0  0  0  0  0
    8.0573   -4.4099    0.4919 C   0  0  0  0  0  0  0  0  0  0  0  0
    6.8809   -5.1152    0.8449 C   0  0  0  0  0  0  0  0  0  0  0  0
    7.0407   -6.5544    1.7899 Cl  0  0  0  0  0  0  0  0  0  0  0  0
    5.6344   -4.6140    0.3929 C   0  0  0  0  0  0  0  0  0  0  0  0
    2.0515   -7.7662    2.0497 N   0  0  0  0  0  0  0  0  0  0  0  0
   -1.2298   -8.5843    2.3015 H   0  0  0  0  0  0  0  0  0  0  0  0
   -0.0542   -8.8585    3.5936 H   0  0  0  0  0  0  0  0  0  0  0  0
    0.0554   -9.7760    2.0809 H   0  0  0  0  0  0  0  0  0  0  0  0
    4.4752   -6.7735    1.6875 H   0  0  0  0  0  0  0  0  0  0  0  0
    4.0193   -2.3484   -1.2451 H   0  0  0  0  0  0  0  0  0  0  0  0
    6.6730   -1.8533   -1.3414 H   0  0  0  0  0  0  0  0  0  0  0  0
    8.9115   -2.7089   -0.5571 H   0  0  0  0  0  0  0  0  0  0  0  0
    9.0140   -4.7816    0.8248 H   0  0  0  0  0  0  0  0  0  0  0  0
  1  2  1  0
  1 19  1  0
  1 20  1  0
  1 21  1  0
  2 18  1  0
  2  3  2  0
  3  4  1  0
  4  5  1  0
  5  6  1  0
  5 18  2  0
  6  7  2  3
  6 22  1  0
  7 17  1  0
  7  8  1  0
  8  9  2  0
  8 10  1  0
 10 11  1  0
 10 23  1  0
 11 17  2  0
 11 12  1  0
 12 13  2  0
 12 24  1  0
 13 14  1  0
 13 25  1  0
 14 15  2  0
 14 26  1  0
 15 16  1  0
 15 17  1  0
M  END
>  <i_m_ct_stereo_status>  (263) 
1

>  <s_m_source_file>  (263) 
/var/tmp/pbs.5076255.sched01/tmpbnv9a_8s/88lo2bg1ru.sdf

>  <i_m_source_file_index>  (263) 
38

>  <i_lp_mmshare_version>  (263) 
48012

>  <i_f3d_flags>  (263) 
0

>  <s_epik_input>  (263) 
W0NIM11jMW5vYyhuMSkvW0NIXT1DKFxDKD1PKVtOSF0yKWMoYzIzKWMoQ2wpW2NIXVtjSF1bY0hdMw==

>  <s_epik_cmdline>  (263) 
J2VwaWtfcHl0aG9uJywgJy1waHQnLCAnMi4wJywgJy1waCcsICc3LjAnLCAnLXRuJywgJzgnLCAnLW1hJywgJzIwMCcsICctaW1hZScsICc8aW5maWxlLm1hZT4nLCAnLW9tYWUnLCAnPG91dGZpbGUubWFlPic=

>  <r_lp_tautomer_probability>  (263) 
1

>  <r_epik_Ionization_Penalty>  (263) 
2.06019e-06

>  <r_epik_Ionization_Penalty_Charging>  (263) 
0

>  <r_epik_Ionization_Penalty_Neutral>  (263) 
2.06019e-06

>  <r_epik_State_Penalty>  (263) 
-0

>  <r_epik_Charging_Adjusted_Penalty>  (263) 
0

>  <i_epik_Tot_Q>  (263) 
0

>  <i_epik_Tot_abs_Q>  (263) 
0

>  <s_lp_Force_Field>  (263) 
OPLS3e

>  <r_lp_Energy>  (263) 
11.4314

>  <b_lp_Chiralities_Consistent>  (263) 
1

>  <s_lp_Variant>  (263) 
87:0-1

>  <s_i_glide_gridfile>  (263) 
pfpi4k_grid

>  <i_i_glide_lignum>  (263) 
38

>  <i_i_glide_rotatable_bonds>  (263) 
1

>  <r_i_docking_score>  (263) 
-4.05394

>  <r_i_glide_ligand_efficiency>  (263) 
-0.225219

>  <r_i_glide_ligand_efficiency_sa>  (263) 
-0.590241

>  <r_i_glide_ligand_efficiency_ln>  (263) 
-1.04205

>  <r_i_glide_gscore>  (263) 
-4.05394

>  <r_i_glide_lipo>  (263) 
-0.787287

>  <r_i_glide_hbond>  (263) 
0

>  <r_i_glide_metal>  (263) 
-0

>  <r_i_glide_rewards>  (263) 
-1.62502

>  <r_i_glide_evdw>  (263) 
-23.29

>  <r_i_glide_ecoul>  (263) 
-3.11242

>  <r_i_glide_erotb>  (263) 
0.258892

>  <r_i_glide_esite>  (263) 
-0.269166

>  <r_i_glide_emodel>  (263) 
-34.5005

>  <r_i_glide_energy>  (263) 
-26.4024

>  <r_i_glide_einternal>  (263) 
0.29394

>  <r_i_glide_intrahb_reward>  (263) 
-0

>  <i_i_glide_confnum>  (263) 
2

>  <i_i_glide_posenum>  (263) 
26

>  <r_i_glide_eff_state_penalty>  (263) 
0

>  <ligand_id>  (263) 
87

>  <original_smiles>  (263) 
Cc1noc(C=C2C(=O)Nc3cccc(Cl)c32)n1

>  <smiles>  (263) 
[H]C(=C1C(=O)N([H])c2c([H])c([H])c([H])c(Cl)c21)c1nc(C([H])([H])[H])no1

$$$$
87:0:2
     RDKit          3D

 26 28  0  0  1  0  0  0  0  0999 V2000
   -1.8050   -8.9235    2.6559 C   0  0  0  0  0  0  0  0  0  0  0  0
   -0.3258   -9.0756    2.6101 C   0  0  0  0  0  0  0  0  0  0  0  0
    0.2519  -10.2311    2.8939 N   0  0  0  0  0  0  0  0  0  0  0  0
    1.6175   -9.9524    2.7290 O   0  0  0  0  0  0  0  0  0  0  0  0
    1.7002   -8.6480    2.3548 C   0  0  0  0  0  0  0  0  0  0  0  0
    3.0450   -8.1141    2.0924 C   0  0  0  0  0  0  0  0  0  0  0  0
    3.4549   -6.9595    1.5021 C   0  0  0  0  0  0  0  0  0  0  0  0
    2.6052   -5.9172    0.8957 C   0  0  0  0  0  0  0  0  0  0  0  0
    1.3841   -5.8576    0.7632 O   0  0  0  0  0  0  0  0  0  0  0  0
    3.4258   -4.9634    0.4337 N   0  0  0  0  0  0  0  0  0  0  0  0
    4.7650   -5.2749    0.6514 C   0  0  0  0  0  0  0  0  0  0  0  0
    5.8921   -4.5220    0.2864 C   0  0  0  0  0  0  0  0  0  0  0  0
    7.1591   -5.0411    0.6262 C   0  0  0  0  0  0  0  0  0  0  0  0
    7.2666   -6.2805    1.2994 C   0  0  0  0  0  0  0  0  0  0  0  0
    6.1169   -7.0247    1.6521 C   0  0  0  0  0  0  0  0  0  0  0  0
    6.3320   -8.5375    2.4630 Cl  0  0  0  0  0  0  0  0  0  0  0  0
    4.8459   -6.4947    1.3109 C   0  0  0  0  0  0  0  0  0  0  0  0
    0.5094   -8.0515    2.2784 N   0  0  0  0  0  0  0  0  0  0  0  0
   -2.2815   -9.8514    2.9636 H   0  0  0  0  0  0  0  0  0  0  0  0
   -2.1815   -8.6701    1.6710 H   0  0  0  0  0  0  0  0  0  0  0  0
   -2.0757   -8.1539    3.3726 H   0  0  0  0  0  0  0  0  0  0  0  0
    3.8054   -8.7722    2.4732 H   0  0  0  0  0  0  0  0  0  0  0  0
    3.1276   -4.1370   -0.0637 H   0  0  0  0  0  0  0  0  0  0  0  0
    5.7908   -3.5818   -0.2368 H   0  0  0  0  0  0  0  0  0  0  0  0
    8.0512   -4.4947    0.3618 H   0  0  0  0  0  0  0  0  0  0  0  0
    8.2456   -6.6711    1.5415 H   0  0  0  0  0  0  0  0  0  0  0  0
  1  2  1  0
  1 19  1  0
  1 20  1  0
  1 21  1  0
  2 18  1  0
  2  3  2  0
  3  4  1  0
  4  5  1  0
  5  6  1  0
  5 18  2  0
  6  7  2  3
  6 22  1  0
  7 17  1  0
  7  8  1  0
  8  9  2  0
  8 10  1  0
 10 11  1  0
 10 23  1  0
 11 17  2  0
 11 12  1  0
 12 13  2  0
 12 24  1  0
 13 14  1  0
 13 25  1  0
 14 15  2  0
 14 26  1  0
 15 16  1  0
 15 17  1  0
M  END
>  <i_m_ct_stereo_status>  (264) 
1

>  <s_m_source_file>  (264) 
/var/tmp/pbs.5076255.sched01/tmpbnv9a_8s/88lo2bg1ru.sdf

>  <i_m_source_file_index>  (264) 
38

>  <i_lp_mmshare_version>  (264) 
48012

>  <i_f3d_flags>  (264) 
0

>  <s_epik_input>  (264) 
W0NIM11jMW5vYyhuMSkvW0NIXT1DKFxDKD1PKVtOSF0yKWMoYzIzKWMoQ2wpW2NIXVtjSF1bY0hdMw==

>  <s_epik_cmdline>  (264) 
J2VwaWtfcHl0aG9uJywgJy1waHQnLCAnMi4wJywgJy1waCcsICc3LjAnLCAnLXRuJywgJzgnLCAnLW1hJywgJzIwMCcsICctaW1hZScsICc8aW5maWxlLm1hZT4nLCAnLW9tYWUnLCAnPG91dGZpbGUubWFlPic=

>  <r_lp_tautomer_probability>  (264) 
1

>  <r_epik_Ionization_Penalty>  (264) 
2.06019e-06

>  <r_epik_Ionization_Penalty_Charging>  (264) 
0

>  <r_epik_Ionization_Penalty_Neutral>  (264) 
2.06019e-06

>  <r_epik_State_Penalty>  (264) 
-0

>  <r_epik_Charging_Adjusted_Penalty>  (264) 
0

>  <i_epik_Tot_Q>  (264) 
0

>  <i_epik_Tot_abs_Q>  (264) 
0

>  <s_lp_Force_Field>  (264) 
OPLS3e

>  <r_lp_Energy>  (264) 
11.4314

>  <b_lp_Chiralities_Consistent>  (264) 
1

>  <s_lp_Variant>  (264) 
87:0-1

>  <s_i_glide_gridfile>  (264) 
pfpi4k_grid

>  <i_i_glide_lignum>  (264) 
38

>  <i_i_glide_rotatable_bonds>  (264) 
1

>  <r_i_docking_score>  (264) 
-3.91724

>  <r_i_glide_ligand_efficiency>  (264) 
-0.217624

>  <r_i_glide_ligand_efficiency_sa>  (264) 
-0.570337

>  <r_i_glide_ligand_efficiency_ln>  (264) 
-1.00691

>  <r_i_glide_gscore>  (264) 
-3.91724

>  <r_i_glide_lipo>  (264) 
-0.691734

>  <r_i_glide_hbond>  (264) 
-0.158038

>  <r_i_glide_metal>  (264) 
-0

>  <r_i_glide_rewards>  (264) 
-1.62502

>  <r_i_glide_evdw>  (264) 
-23.0904

>  <r_i_glide_ecoul>  (264) 
-3.33206

>  <r_i_glide_erotb>  (264) 
0.258892

>  <r_i_glide_esite>  (264) 
-0.047007

>  <r_i_glide_emodel>  (264) 
-34.3772

>  <r_i_glide_energy>  (264) 
-26.4225

>  <r_i_glide_einternal>  (264) 
0.32785

>  <r_i_glide_intrahb_reward>  (264) 
-0

>  <i_i_glide_confnum>  (264) 
1

>  <i_i_glide_posenum>  (264) 
36

>  <r_i_glide_eff_state_penalty>  (264) 
0

>  <ligand_id>  (264) 
87

>  <original_smiles>  (264) 
Cc1noc(C=C2C(=O)Nc3cccc(Cl)c32)n1

>  <smiles>  (264) 
[H]C(=C1C(=O)N([H])c2c([H])c([H])c([H])c(Cl)c21)c1nc(C([H])([H])[H])no1

$$$$
87:1:0
     RDKit          3D

 26 28  0  0  1  0  0  0  0  0999 V2000
    0.1594   -2.1909    4.3814 C   0  0  0  0  0  0  0  0  0  0  0  0
   -0.1423   -3.2226    5.4090 C   0  0  0  0  0  0  0  0  0  0  0  0
   -0.9321   -2.9600    6.4461 N   0  0  0  0  0  0  0  0  0  0  0  0
   -0.9661   -4.1893    7.1227 O   0  0  0  0  0  0  0  0  0  0  0  0
   -0.1871   -5.0510    6.4098 C   0  0  0  0  0  0  0  0  0  0  0  0
   -0.0693   -6.4079    6.9479 C   0  0  0  0  0  0  0  0  0  0  0  0
    0.2481   -7.6442    6.4661 C   0  0  0  0  0  0  0  0  0  0  0  0
    0.2484   -8.7237    7.4679 C   0  0  0  0  0  0  0  0  0  0  0  0
    0.0008   -8.6414    8.6731 O   0  0  0  0  0  0  0  0  0  0  0  0
    0.5565   -9.8555    6.8420 N   0  0  0  0  0  0  0  0  0  0  0  0
    0.7545   -9.6654    5.4870 C   0  0  0  0  0  0  0  0  0  0  0  0
    1.0746  -10.6826    4.5700 C   0  0  0  0  0  0  0  0  0  0  0  0
    1.2471  -10.3131    3.2275 C   0  0  0  0  0  0  0  0  0  0  0  0
    1.0865   -8.9643    2.8467 C   0  0  0  0  0  0  0  0  0  0  0  0
    0.7560   -7.9537    3.7870 C   0  0  0  0  0  0  0  0  0  0  0  0
    0.5750   -6.3694    3.1385 Cl  0  0  0  0  0  0  0  0  0  0  0  0
    0.5879   -8.3163    5.1589 C   0  0  0  0  0  0  0  0  0  0  0  0
    0.3475   -4.4895    5.3369 N   0  0  0  0  0  0  0  0  0  0  0  0
   -0.3402   -1.2529    4.6139 H   0  0  0  0  0  0  0  0  0  0  0  0
   -0.1805   -2.5400    3.4090 H   0  0  0  0  0  0  0  0  0  0  0  0
    1.2333   -2.0223    4.3411 H   0  0  0  0  0  0  0  0  0  0  0  0
   -0.2557   -6.3614    8.0115 H   0  0  0  0  0  0  0  0  0  0  0  0
    0.6672  -10.7787    7.2737 H   0  0  0  0  0  0  0  0  0  0  0  0
    1.1869  -11.7074    4.8977 H   0  0  0  0  0  0  0  0  0  0  0  0
    1.5038  -11.0601    2.4902 H   0  0  0  0  0  0  0  0  0  0  0  0
    1.2198   -8.7045    1.8072 H   0  0  0  0  0  0  0  0  0  0  0  0
  1  2  1  0
  1 19  1  0
  1 20  1  0
  1 21  1  0
  2 18  1  0
  2  3  2  0
  3  4  1  0
  4  5  1  0
  5  6  1  0
  5 18  2  0
  6  7  2  3
  6 22  1  0
  7 17  1  0
  7  8  1  0
  8  9  2  0
  8 10  1  0
 10 11  1  0
 10 23  1  0
 11 17  2  0
 11 12  1  0
 12 13  2  0
 12 24  1  0
 13 14  1  0
 13 25  1  0
 14 15  2  0
 14 26  1  0
 15 16  1  0
 15 17  1  0
M  END
>  <i_m_ct_stereo_status>  (265) 
1

>  <s_m_source_file>  (265) 
/var/tmp/pbs.5076255.sched01/tmpbnv9a_8s/88lo2bg1ru.sdf

>  <i_m_source_file_index>  (265) 
39

>  <i_lp_mmshare_version>  (265) 
48012

>  <i_f3d_flags>  (265) 
0

>  <s_epik_input>  (265) 
W0NIM11jMW5vYyhuMSkvW0NIXT1DKFxDKD1PKVtOSF0yKWMoYzIzKWMoQ2wpW2NIXVtjSF1bY0hdMw==

>  <s_epik_cmdline>  (265) 
J2VwaWtfcHl0aG9uJywgJy1waHQnLCAnMi4wJywgJy1waCcsICc3LjAnLCAnLXRuJywgJzgnLCAnLW1hJywgJzIwMCcsICctaW1hZScsICc8aW5maWxlLm1hZT4nLCAnLW9tYWUnLCAnPG91dGZpbGUubWFlPic=

>  <r_lp_tautomer_probability>  (265) 
1

>  <r_epik_Ionization_Penalty>  (265) 
2.06019e-06

>  <r_epik_Ionization_Penalty_Charging>  (265) 
0

>  <r_epik_Ionization_Penalty_Neutral>  (265) 
2.06019e-06

>  <r_epik_State_Penalty>  (265) 
-0

>  <r_epik_Charging_Adjusted_Penalty>  (265) 
0

>  <i_epik_Tot_Q>  (265) 
0

>  <i_epik_Tot_abs_Q>  (265) 
0

>  <s_lp_Force_Field>  (265) 
OPLS3e

>  <r_lp_Energy>  (265) 
20.6939

>  <b_lp_Chiralities_Consistent>  (265) 
1

>  <s_lp_Variant>  (265) 
87:0-2

>  <s_i_glide_gridfile>  (265) 
pfpi4k_grid

>  <i_i_glide_lignum>  (265) 
39

>  <i_i_glide_rotatable_bonds>  (265) 
1

>  <r_i_docking_score>  (265) 
-4.04238

>  <r_i_glide_ligand_efficiency>  (265) 
-0.224577

>  <r_i_glide_ligand_efficiency_sa>  (265) 
-0.588557

>  <r_i_glide_ligand_efficiency_ln>  (265) 
-1.03907

>  <r_i_glide_gscore>  (265) 
-4.04238

>  <r_i_glide_lipo>  (265) 
-0.208019

>  <r_i_glide_hbond>  (265) 
-0.16

>  <r_i_glide_metal>  (265) 
-0

>  <r_i_glide_rewards>  (265) 
-1.62502

>  <r_i_glide_evdw>  (265) 
-18.6617

>  <r_i_glide_ecoul>  (265) 
-7.6665

>  <r_i_glide_erotb>  (265) 
0.258892

>  <r_i_glide_esite>  (265) 
-0.22517

>  <r_i_glide_emodel>  (265) 
-33.3045

>  <r_i_glide_energy>  (265) 
-26.3282

>  <r_i_glide_einternal>  (265) 
1.21663

>  <r_i_glide_intrahb_reward>  (265) 
-0

>  <i_i_glide_confnum>  (265) 
2

>  <i_i_glide_posenum>  (265) 
17

>  <r_i_glide_eff_state_penalty>  (265) 
0

>  <ligand_id>  (265) 
87

>  <original_smiles>  (265) 
Cc1noc(C=C2C(=O)Nc3cccc(Cl)c32)n1

>  <smiles>  (265) 
[H]C(=C1C(=O)N([H])c2c([H])c([H])c([H])c(Cl)c21)c1nc(C([H])([H])[H])no1

$$$$
87:1:1
     RDKit          3D

 26 28  0  0  1  0  0  0  0  0999 V2000
    2.2922   -1.9100    1.9067 C   0  0  0  0  0  0  0  0  0  0  0  0
    3.1997   -3.0497    1.6122 C   0  0  0  0  0  0  0  0  0  0  0  0
    4.4541   -2.8552    1.2360 N   0  0  0  0  0  0  0  0  0  0  0  0
    4.9438   -4.1640    1.1010 O   0  0  0  0  0  0  0  0  0  0  0  0
    3.9140   -4.9995    1.4110 C   0  0  0  0  0  0  0  0  0  0  0  0
    4.2027   -6.4353    1.3563 C   0  0  0  0  0  0  0  0  0  0  0  0
    3.5669   -7.5958    1.7073 C   0  0  0  0  0  0  0  0  0  0  0  0
    4.3181   -8.8237    1.4189 C   0  0  0  0  0  0  0  0  0  0  0  0
    5.4252   -8.9391    0.8842 O   0  0  0  0  0  0  0  0  0  0  0  0
    3.5844   -9.8562    1.8199 N   0  0  0  0  0  0  0  0  0  0  0  0
    2.3792   -9.4623    2.3700 C   0  0  0  0  0  0  0  0  0  0  0  0
    1.4016  -10.3311    2.8844 C   0  0  0  0  0  0  0  0  0  0  0  0
    0.2294   -9.7593    3.4032 C   0  0  0  0  0  0  0  0  0  0  0  0
    0.0859   -8.3594    3.4112 C   0  0  0  0  0  0  0  0  0  0  0  0
    1.0892   -7.5077    2.8963 C   0  0  0  0  0  0  0  0  0  0  0  0
    0.7407   -5.8417    3.0471 Cl  0  0  0  0  0  0  0  0  0  0  0  0
    2.2793   -8.0689    2.3427 C   0  0  0  0  0  0  0  0  0  0  0  0
    2.8032   -4.3477    1.7207 N   0  0  0  0  0  0  0  0  0  0  0  0
    2.7931   -0.9614    1.7281 H   0  0  0  0  0  0  0  0  0  0  0  0
    1.9767   -1.9552    2.9473 H   0  0  0  0  0  0  0  0  0  0  0  0
    1.4231   -1.9650    1.2572 H   0  0  0  0  0  0  0  0  0  0  0  0
    5.1761   -6.5715    0.8985 H   0  0  0  0  0  0  0  0  0  0  0  0
    3.8275  -10.8284    1.6434 H   0  0  0  0  0  0  0  0  0  0  0  0
    1.5429  -11.4027    2.8790 H   0  0  0  0  0  0  0  0  0  0  0  0
   -0.5577  -10.3792    3.8080 H   0  0  0  0  0  0  0  0  0  0  0  0
   -0.8069   -7.9249    3.8345 H   0  0  0  0  0  0  0  0  0  0  0  0
  1  2  1  0
  1 19  1  0
  1 20  1  0
  1 21  1  0
  2 18  1  0
  2  3  2  0
  3  4  1  0
  4  5  1  0
  5  6  1  0
  5 18  2  0
  6  7  2  3
  6 22  1  0
  7 17  1  0
  7  8  1  0
  8  9  2  0
  8 10  1  0
 10 11  1  0
 10 23  1  0
 11 17  2  0
 11 12  1  0
 12 13  2  0
 12 24  1  0
 13 14  1  0
 13 25  1  0
 14 15  2  0
 14 26  1  0
 15 16  1  0
 15 17  1  0
M  END
>  <i_m_ct_stereo_status>  (266) 
1

>  <s_m_source_file>  (266) 
/var/tmp/pbs.5076255.sched01/tmpbnv9a_8s/88lo2bg1ru.sdf

>  <i_m_source_file_index>  (266) 
39

>  <i_lp_mmshare_version>  (266) 
48012

>  <i_f3d_flags>  (266) 
0

>  <s_epik_input>  (266) 
W0NIM11jMW5vYyhuMSkvW0NIXT1DKFxDKD1PKVtOSF0yKWMoYzIzKWMoQ2wpW2NIXVtjSF1bY0hdMw==

>  <s_epik_cmdline>  (266) 
J2VwaWtfcHl0aG9uJywgJy1waHQnLCAnMi4wJywgJy1waCcsICc3LjAnLCAnLXRuJywgJzgnLCAnLW1hJywgJzIwMCcsICctaW1hZScsICc8aW5maWxlLm1hZT4nLCAnLW9tYWUnLCAnPG91dGZpbGUubWFlPic=

>  <r_lp_tautomer_probability>  (266) 
1

>  <r_epik_Ionization_Penalty>  (266) 
2.06019e-06

>  <r_epik_Ionization_Penalty_Charging>  (266) 
0

>  <r_epik_Ionization_Penalty_Neutral>  (266) 
2.06019e-06

>  <r_epik_State_Penalty>  (266) 
-0

>  <r_epik_Charging_Adjusted_Penalty>  (266) 
0

>  <i_epik_Tot_Q>  (266) 
0

>  <i_epik_Tot_abs_Q>  (266) 
0

>  <s_lp_Force_Field>  (266) 
OPLS3e

>  <r_lp_Energy>  (266) 
20.6939

>  <b_lp_Chiralities_Consistent>  (266) 
1

>  <s_lp_Variant>  (266) 
87:0-2

>  <s_i_glide_gridfile>  (266) 
pfpi4k_grid

>  <i_i_glide_lignum>  (266) 
39

>  <i_i_glide_rotatable_bonds>  (266) 
1

>  <r_i_docking_score>  (266) 
-3.52351

>  <r_i_glide_ligand_efficiency>  (266) 
-0.19575

>  <r_i_glide_ligand_efficiency_sa>  (266) 
-0.513011

>  <r_i_glide_ligand_efficiency_ln>  (266) 
-0.905699

>  <r_i_glide_gscore>  (266) 
-3.52351

>  <r_i_glide_lipo>  (266) 
-0.281392

>  <r_i_glide_hbond>  (266) 
-0.140154

>  <r_i_glide_metal>  (266) 
-0

>  <r_i_glide_rewards>  (266) 
-1.62502

>  <r_i_glide_evdw>  (266) 
-18.3452

>  <r_i_glide_ecoul>  (266) 
-4.63911

>  <r_i_glide_erotb>  (266) 
0.258892

>  <r_i_glide_esite>  (266) 
-0.122706

>  <r_i_glide_emodel>  (266) 
-29.6749

>  <r_i_glide_energy>  (266) 
-22.9843

>  <r_i_glide_einternal>  (266) 
0.327703

>  <r_i_glide_intrahb_reward>  (266) 
-0

>  <i_i_glide_confnum>  (266) 
2

>  <i_i_glide_posenum>  (266) 
40

>  <r_i_glide_eff_state_penalty>  (266) 
0

>  <ligand_id>  (266) 
87

>  <original_smiles>  (266) 
Cc1noc(C=C2C(=O)Nc3cccc(Cl)c32)n1

>  <smiles>  (266) 
[H]C(=C1C(=O)N([H])c2c([H])c([H])c([H])c(Cl)c21)c1nc(C([H])([H])[H])no1

$$$$
87:1:2
     RDKit          3D

 26 28  0  0  1  0  0  0  0  0999 V2000
    4.1401   -2.6064   -0.9882 C   0  0  0  0  0  0  0  0  0  0  0  0
    3.8331   -3.9074   -0.3401 C   0  0  0  0  0  0  0  0  0  0  0  0
    2.6055   -4.1964    0.0565 N   0  0  0  0  0  0  0  0  0  0  0  0
    2.7408   -5.4863    0.5709 O   0  0  0  0  0  0  0  0  0  0  0  0
    4.0272   -5.8256    0.4618 C   0  0  0  0  0  0  0  0  0  0  0  0
    4.5058   -7.1184    0.9370 C   0  0  0  0  0  0  0  0  0  0  0  0
    3.9543   -8.1926    1.5772 C   0  0  0  0  0  0  0  0  0  0  0  0
    4.8868   -9.2982    1.8534 C   0  0  0  0  0  0  0  0  0  0  0  0
    6.0816   -9.3933    1.5682 O   0  0  0  0  0  0  0  0  0  0  0  0
    4.2075  -10.2526    2.4874 N   0  0  0  0  0  0  0  0  0  0  0  0
    2.8787   -9.9130    2.6638 C   0  0  0  0  0  0  0  0  0  0  0  0
    1.9218  -10.7334    3.2866 C   0  0  0  0  0  0  0  0  0  0  0  0
    0.6131  -10.2492    3.3977 C   0  0  0  0  0  0  0  0  0  0  0  0
    0.3011   -8.9807    2.8831 C   0  0  0  0  0  0  0  0  0  0  0  0
    1.2670   -8.1654    2.2481 C   0  0  0  0  0  0  0  0  0  0  0  0
    0.6166   -6.6674    1.7151 Cl  0  0  0  0  0  0  0  0  0  0  0  0
    2.6180   -8.6423    2.1308 C   0  0  0  0  0  0  0  0  0  0  0  0
    4.7755   -4.8672   -0.0994 N   0  0  0  0  0  0  0  0  0  0  0  0
    3.2384   -2.0039   -1.0593 H   0  0  0  0  0  0  0  0  0  0  0  0
    4.5196   -2.7617   -1.9965 H   0  0  0  0  0  0  0  0  0  0  0  0
    4.8687   -2.0534   -0.3998 H   0  0  0  0  0  0  0  0  0  0  0  0
    5.5578   -7.1903    0.7069 H   0  0  0  0  0  0  0  0  0  0  0  0
    4.5892  -11.1493    2.7524 H   0  0  0  0  0  0  0  0  0  0  0  0
    2.1802  -11.7062    3.6737 H   0  0  0  0  0  0  0  0  0  0  0  0
   -0.1572  -10.8355    3.8738 H   0  0  0  0  0  0  0  0  0  0  0  0
   -0.7072   -8.6170    2.9762 H   0  0  0  0  0  0  0  0  0  0  0  0
  1  2  1  0
  1 19  1  0
  1 20  1  0
  1 21  1  0
  2 18  1  0
  2  3  2  0
  3  4  1  0
  4  5  1  0
  5  6  1  0
  5 18  2  0
  6  7  2  3
  6 22  1  0
  7 17  1  0
  7  8  1  0
  8  9  2  0
  8 10  1  0
 10 11  1  0
 10 23  1  0
 11 17  2  0
 11 12  1  0
 12 13  2  0
 12 24  1  0
 13 14  1  0
 13 25  1  0
 14 15  2  0
 14 26  1  0
 15 16  1  0
 15 17  1  0
M  END
>  <i_m_ct_stereo_status>  (267) 
1

>  <s_m_source_file>  (267) 
/var/tmp/pbs.5076255.sched01/tmpbnv9a_8s/88lo2bg1ru.sdf

>  <i_m_source_file_index>  (267) 
39

>  <i_lp_mmshare_version>  (267) 
48012

>  <i_f3d_flags>  (267) 
0

>  <s_epik_input>  (267) 
W0NIM11jMW5vYyhuMSkvW0NIXT1DKFxDKD1PKVtOSF0yKWMoYzIzKWMoQ2wpW2NIXVtjSF1bY0hdMw==

>  <s_epik_cmdline>  (267) 
J2VwaWtfcHl0aG9uJywgJy1waHQnLCAnMi4wJywgJy1waCcsICc3LjAnLCAnLXRuJywgJzgnLCAnLW1hJywgJzIwMCcsICctaW1hZScsICc8aW5maWxlLm1hZT4nLCAnLW9tYWUnLCAnPG91dGZpbGUubWFlPic=

>  <r_lp_tautomer_probability>  (267) 
1

>  <r_epik_Ionization_Penalty>  (267) 
2.06019e-06

>  <r_epik_Ionization_Penalty_Charging>  (267) 
0

>  <r_epik_Ionization_Penalty_Neutral>  (267) 
2.06019e-06

>  <r_epik_State_Penalty>  (267) 
-0

>  <r_epik_Charging_Adjusted_Penalty>  (267) 
0

>  <i_epik_Tot_Q>  (267) 
0

>  <i_epik_Tot_abs_Q>  (267) 
0

>  <s_lp_Force_Field>  (267) 
OPLS3e

>  <r_lp_Energy>  (267) 
20.6939

>  <b_lp_Chiralities_Consistent>  (267) 
1

>  <s_lp_Variant>  (267) 
87:0-2

>  <s_i_glide_gridfile>  (267) 
pfpi4k_grid

>  <i_i_glide_lignum>  (267) 
39

>  <i_i_glide_rotatable_bonds>  (267) 
1

>  <r_i_docking_score>  (267) 
-3.44221

>  <r_i_glide_ligand_efficiency>  (267) 
-0.191234

>  <r_i_glide_ligand_efficiency_sa>  (267) 
-0.501174

>  <r_i_glide_ligand_efficiency_ln>  (267) 
-0.884802

>  <r_i_glide_gscore>  (267) 
-3.44221

>  <r_i_glide_lipo>  (267) 
-0.275383

>  <r_i_glide_hbond>  (267) 
0

>  <r_i_glide_metal>  (267) 
-0

>  <r_i_glide_rewards>  (267) 
-1.62502

>  <r_i_glide_evdw>  (267) 
-23.9857

>  <r_i_glide_ecoul>  (267) 
-2.64205

>  <r_i_glide_erotb>  (267) 
0.258892

>  <r_i_glide_esite>  (267) 
-0.205104

>  <r_i_glide_emodel>  (267) 
-33.2421

>  <r_i_glide_energy>  (267) 
-26.6277

>  <r_i_glide_einternal>  (267) 
0.0115326

>  <r_i_glide_intrahb_reward>  (267) 
-0

>  <i_i_glide_confnum>  (267) 
3

>  <i_i_glide_posenum>  (267) 
18

>  <r_i_glide_eff_state_penalty>  (267) 
0

>  <ligand_id>  (267) 
87

>  <original_smiles>  (267) 
Cc1noc(C=C2C(=O)Nc3cccc(Cl)c32)n1

>  <smiles>  (267) 
[H]C(=C1C(=O)N([H])c2c([H])c([H])c([H])c(Cl)c21)c1nc(C([H])([H])[H])no1

$$$$
88:0:0
     RDKit          3D

 25 26  0  0  1  0  0  0  0  0999 V2000
    0.2219    1.1885    1.6930 C   0  0  0  0  0  0  0  0  0  0  0  0
   -0.4863    0.6866    2.8244 O   0  0  0  0  0  0  0  0  0  0  0  0
   -0.7006    1.5650    3.8703 C   0  0  0  0  0  0  0  0  0  0  0  0
   -0.3375    2.9306    3.8287 C   0  0  0  0  0  0  0  0  0  0  0  0
   -0.5599    3.7860    4.9194 C   0  0  0  0  0  0  0  0  0  0  0  0
   -0.2125    5.1250    4.8818 O   0  0  0  0  0  0  0  0  0  0  0  0
    0.3522    5.6325    3.6704 C   0  0  0  0  0  0  0  0  0  0  0  0
   -1.1559    3.2526    6.0825 C   0  0  0  0  0  0  0  0  0  0  0  0
   -1.3715    4.0806    7.1981 C   0  0  0  0  0  0  0  0  0  0  0  0
   -1.9756    3.5440    8.3356 C   0  0  0  0  0  0  0  0  0  0  0  0
   -2.3251    2.1877    8.3302 C   0  0  0  0  0  0  0  0  0  0  0  0
   -2.1258    1.3605    7.2738 N   0  0  0  0  0  0  0  0  0  0  0  0
   -1.5453    1.8772    6.1512 C   0  0  0  0  0  0  0  0  0  0  0  0
   -1.3087    1.0618    5.0302 C   0  0  0  0  0  0  0  0  0  0  0  0
    0.3606    0.4423    0.9000 H   0  0  0  0  0  0  0  0  0  0  0  0
    1.2237    1.5220    1.9802 H   0  0  0  0  0  0  0  0  0  0  0  0
   -0.3084    2.0253    1.2335 H   0  0  0  0  0  0  0  0  0  0  0  0
    0.1239    3.3515    2.9476 H   0  0  0  0  0  0  0  0  0  0  0  0
    0.6011    6.6837    3.7772 H   0  0  0  0  0  0  0  0  0  0  0  0
   -0.3587    5.5479    2.8477 H   0  0  0  0  0  0  0  0  0  0  0  0
    1.2730    5.1189    3.3820 H   0  0  0  0  0  0  0  0  0  0  0  0
   -1.0723    5.1190    7.1701 H   0  0  0  0  0  0  0  0  0  0  0  0
   -2.1615    4.1599    9.2078 H   0  0  0  0  0  0  0  0  0  0  0  0
   -2.7854    1.7449    9.2044 H   0  0  0  0  0  0  0  0  0  0  0  0
   -1.5902    0.0173    5.0564 H   0  0  0  0  0  0  0  0  0  0  0  0
  1  2  1  0
  1 15  1  0
  1 16  1  0
  1 17  1  0
  2  3  1  0
  3 14  2  0
  3  4  1  0
  4  5  2  0
  4 18  1  0
  5  6  1  0
  5  8  1  0
  6  7  1  0
  7 19  1  0
  7 20  1  0
  7 21  1  0
  8 13  2  0
  8  9  1  0
  9 10  2  0
  9 22  1  0
 10 11  1  0
 10 23  1  0
 11 12  2  0
 11 24  1  0
 12 13  1  0
 13 14  1  0
 14 25  1  0
M  END
>  <i_m_ct_stereo_status>  (268) 
1

>  <s_m_source_file>  (268) 
/var/tmp/pbs.5076255.sched01/tmpbnv9a_8s/88lo2bg1ru.sdf

>  <i_m_source_file_index>  (268) 
40

>  <i_lp_mmshare_version>  (268) 
48012

>  <i_f3d_flags>  (268) 
0

>  <s_epik_input>  (268) 
W0NIM11PYzFbY0hdYyhPW0NIM10pW2NIXWMoYzEyKW5bY0hdW2NIXVtjSF0y

>  <s_epik_cmdline>  (268) 
J2VwaWtfcHl0aG9uJywgJy1waHQnLCAnMi4wJywgJy1waCcsICc3LjAnLCAnLXRuJywgJzgnLCAnLW1hJywgJzIwMCcsICctaW1hZScsICc8aW5maWxlLm1hZT4nLCAnLW9tYWUnLCAnPG91dGZpbGUubWFlPic=

>  <r_epik_Ionization_Penalty>  (268) 
0.0625254

>  <r_epik_Ionization_Penalty_Charging>  (268) 
0

>  <r_epik_Ionization_Penalty_Neutral>  (268) 
0.0625254

>  <r_epik_State_Penalty>  (268) 
0.054343

>  <r_epik_Charging_Adjusted_Penalty>  (268) 
0.054343

>  <i_epik_Tot_Q>  (268) 
0

>  <i_epik_Tot_abs_Q>  (268) 
0

>  <s_lp_Force_Field>  (268) 
OPLS3e

>  <r_lp_Energy>  (268) 
25.0366

>  <b_lp_Chiralities_Consistent>  (268) 
1

>  <s_lp_Variant>  (268) 
88:0-1

>  <s_i_glide_gridfile>  (268) 
pfpi4k_grid

>  <i_i_glide_lignum>  (268) 
40

>  <i_i_glide_rotatable_bonds>  (268) 
2

>  <r_i_docking_score>  (268) 
-3.6165

>  <r_i_glide_ligand_efficiency>  (268) 
-0.258321

>  <r_i_glide_ligand_efficiency_sa>  (268) 
-0.622591

>  <r_i_glide_ligand_efficiency_ln>  (268) 
-0.993801

>  <r_i_glide_gscore>  (268) 
-3.6165

>  <r_i_glide_lipo>  (268) 
-0.0147108

>  <r_i_glide_hbond>  (268) 
-0.13573

>  <r_i_glide_metal>  (268) 
-0

>  <r_i_glide_rewards>  (268) 
-2.11902

>  <r_i_glide_evdw>  (268) 
-14.529

>  <r_i_glide_ecoul>  (268) 
-4.13728

>  <r_i_glide_erotb>  (268) 
0

>  <r_i_glide_esite>  (268) 
0

>  <r_i_glide_emodel>  (268) 
-21.8936

>  <r_i_glide_energy>  (268) 
-18.6663

>  <r_i_glide_einternal>  (268) 
3.98221

>  <r_i_glide_intrahb_reward>  (268) 
-0

>  <i_i_glide_confnum>  (268) 
1

>  <i_i_glide_posenum>  (268) 
20

>  <r_i_glide_eff_state_penalty>  (268) 
0

>  <ligand_id>  (268) 
88

>  <original_smiles>  (268) 
COc1cc(OC)c2cccnc2c1

>  <smiles>  (268) 
[H]c1nc2c([H])c(OC([H])([H])[H])c([H])c(OC([H])([H])[H])c2c([H])c1[H]

$$$$
88:0:1
     RDKit          3D

 25 26  0  0  1  0  0  0  0  0999 V2000
   -2.9328    2.5047    8.6381 C   0  0  0  0  0  0  0  0  0  0  0  0
   -2.1595    1.4513    8.0488 O   0  0  0  0  0  0  0  0  0  0  0  0
   -1.7937    1.5891    6.7233 C   0  0  0  0  0  0  0  0  0  0  0  0
   -2.1952    2.6925    5.9435 C   0  0  0  0  0  0  0  0  0  0  0  0
   -1.8136    2.7905    4.5894 C   0  0  0  0  0  0  0  0  0  0  0  0
   -2.2076    3.8992    3.8778 O   0  0  0  0  0  0  0  0  0  0  0  0
   -3.2104    3.6873    2.8829 C   0  0  0  0  0  0  0  0  0  0  0  0
   -0.9884    1.8021    4.0216 C   0  0  0  0  0  0  0  0  0  0  0  0
   -0.5404    1.9090    2.6869 C   0  0  0  0  0  0  0  0  0  0  0  0
    0.2611    0.8925    2.1494 C   0  0  0  0  0  0  0  0  0  0  0  0
    0.6271   -0.1828    2.9730 C   0  0  0  0  0  0  0  0  0  0  0  0
    0.2188   -0.2861    4.2567 N   0  0  0  0  0  0  0  0  0  0  0  0
   -0.5698    0.6786    4.7845 C   0  0  0  0  0  0  0  0  0  0  0  0
   -0.9850    0.5923    6.1316 C   0  0  0  0  0  0  0  0  0  0  0  0
   -3.1630    2.2783    9.6783 H   0  0  0  0  0  0  0  0  0  0  0  0
   -3.8826    2.6261    8.1049 H   0  0  0  0  0  0  0  0  0  0  0  0
   -2.3762    3.4471    8.6167 H   0  0  0  0  0  0  0  0  0  0  0  0
   -2.8164    3.4764    6.3456 H   0  0  0  0  0  0  0  0  0  0  0  0
   -3.3964    4.6551    2.3947 H   0  0  0  0  0  0  0  0  0  0  0  0
   -4.1495    3.3354    3.3170 H   0  0  0  0  0  0  0  0  0  0  0  0
   -2.8842    2.9782    2.1251 H   0  0  0  0  0  0  0  0  0  0  0  0
   -0.7904    2.7617    2.0833 H   0  0  0  0  0  0  0  0  0  0  0  0
    0.5833    0.9476    1.1149 H   0  0  0  0  0  0  0  0  0  0  0  0
    1.2521   -0.9757    2.5849 H   0  0  0  0  0  0  0  0  0  0  0  0
   -0.6383   -0.2389    6.7286 H   0  0  0  0  0  0  0  0  0  0  0  0
  1  2  1  0
  1 15  1  0
  1 16  1  0
  1 17  1  0
  2  3  1  0
  3 14  2  0
  3  4  1  0
  4  5  2  0
  4 18  1  0
  5  6  1  0
  5  8  1  0
  6  7  1  0
  7 19  1  0
  7 20  1  0
  7 21  1  0
  8 13  2  0
  8  9  1  0
  9 10  2  0
  9 22  1  0
 10 11  1  0
 10 23  1  0
 11 12  2  0
 11 24  1  0
 12 13  1  0
 13 14  1  0
 14 25  1  0
M  END
>  <i_m_ct_stereo_status>  (269) 
1

>  <s_m_source_file>  (269) 
/var/tmp/pbs.5076255.sched01/tmpbnv9a_8s/88lo2bg1ru.sdf

>  <i_m_source_file_index>  (269) 
40

>  <i_lp_mmshare_version>  (269) 
48012

>  <i_f3d_flags>  (269) 
0

>  <s_epik_input>  (269) 
W0NIM11PYzFbY0hdYyhPW0NIM10pW2NIXWMoYzEyKW5bY0hdW2NIXVtjSF0y

>  <s_epik_cmdline>  (269) 
J2VwaWtfcHl0aG9uJywgJy1waHQnLCAnMi4wJywgJy1waCcsICc3LjAnLCAnLXRuJywgJzgnLCAnLW1hJywgJzIwMCcsICctaW1hZScsICc8aW5maWxlLm1hZT4nLCAnLW9tYWUnLCAnPG91dGZpbGUubWFlPic=

>  <r_epik_Ionization_Penalty>  (269) 
0.0625254

>  <r_epik_Ionization_Penalty_Charging>  (269) 
0

>  <r_epik_Ionization_Penalty_Neutral>  (269) 
0.0625254

>  <r_epik_State_Penalty>  (269) 
0.054343

>  <r_epik_Charging_Adjusted_Penalty>  (269) 
0.054343

>  <i_epik_Tot_Q>  (269) 
0

>  <i_epik_Tot_abs_Q>  (269) 
0

>  <s_lp_Force_Field>  (269) 
OPLS3e

>  <r_lp_Energy>  (269) 
25.0366

>  <b_lp_Chiralities_Consistent>  (269) 
1

>  <s_lp_Variant>  (269) 
88:0-1

>  <s_i_glide_gridfile>  (269) 
pfpi4k_grid

>  <i_i_glide_lignum>  (269) 
40

>  <i_i_glide_rotatable_bonds>  (269) 
2

>  <r_i_docking_score>  (269) 
-3.55886

>  <r_i_glide_ligand_efficiency>  (269) 
-0.254204

>  <r_i_glide_ligand_efficiency_sa>  (269) 
-0.612668

>  <r_i_glide_ligand_efficiency_ln>  (269) 
-0.977961

>  <r_i_glide_gscore>  (269) 
-3.55886

>  <r_i_glide_lipo>  (269) 
-0.0874954

>  <r_i_glide_hbond>  (269) 
-0.0892476

>  <r_i_glide_metal>  (269) 
-0

>  <r_i_glide_rewards>  (269) 
-2.11902

>  <r_i_glide_evdw>  (269) 
-17.5704

>  <r_i_glide_ecoul>  (269) 
-2.56383

>  <r_i_glide_erotb>  (269) 
0

>  <r_i_glide_esite>  (269) 
0

>  <r_i_glide_emodel>  (269) 
-19.9671

>  <r_i_glide_energy>  (269) 
-20.1342

>  <r_i_glide_einternal>  (269) 
10.4768

>  <r_i_glide_intrahb_reward>  (269) 
-0

>  <i_i_glide_confnum>  (269) 
1

>  <i_i_glide_posenum>  (269) 
33

>  <r_i_glide_eff_state_penalty>  (269) 
0

>  <ligand_id>  (269) 
88

>  <original_smiles>  (269) 
COc1cc(OC)c2cccnc2c1

>  <smiles>  (269) 
[H]c1nc2c([H])c(OC([H])([H])[H])c([H])c(OC([H])([H])[H])c2c([H])c1[H]

$$$$
88:0:2
     RDKit          3D

 25 26  0  0  1  0  0  0  0  0999 V2000
    1.1733   -1.3085    7.8664 C   0  0  0  0  0  0  0  0  0  0  0  0
    0.2058   -0.3420    8.2502 O   0  0  0  0  0  0  0  0  0  0  0  0
   -0.3585    0.4483    7.2715 C   0  0  0  0  0  0  0  0  0  0  0  0
   -1.2627    1.4358    7.7049 C   0  0  0  0  0  0  0  0  0  0  0  0
   -1.9184    2.2863    6.7838 C   0  0  0  0  0  0  0  0  0  0  0  0
   -2.8157    3.2635    7.1690 O   0  0  0  0  0  0  0  0  0  0  0  0
   -3.0726    3.4434    8.5580 C   0  0  0  0  0  0  0  0  0  0  0  0
   -1.6467    2.1279    5.4024 C   0  0  0  0  0  0  0  0  0  0  0  0
   -2.2694    2.9567    4.4448 C   0  0  0  0  0  0  0  0  0  0  0  0
   -1.9684    2.7756    3.0824 C   0  0  0  0  0  0  0  0  0  0  0  0
   -1.0599    1.7636    2.7228 C   0  0  0  0  0  0  0  0  0  0  0  0
   -0.4691    0.9565    3.6289 N   0  0  0  0  0  0  0  0  0  0  0  0
   -0.7392    1.1347    4.9412 C   0  0  0  0  0  0  0  0  0  0  0  0
   -0.1093    0.3057    5.8886 C   0  0  0  0  0  0  0  0  0  0  0  0
    1.5283   -1.8264    8.7569 H   0  0  0  0  0  0  0  0  0  0  0  0
    2.0389   -0.8459    7.3901 H   0  0  0  0  0  0  0  0  0  0  0  0
    0.7509   -2.0607    7.1990 H   0  0  0  0  0  0  0  0  0  0  0  0
   -1.4342    1.5252    8.7679 H   0  0  0  0  0  0  0  0  0  0  0  0
   -3.7858    4.2561    8.6981 H   0  0  0  0  0  0  0  0  0  0  0  0
   -2.1681    3.7137    9.1049 H   0  0  0  0  0  0  0  0  0  0  0  0
   -3.5075    2.5492    9.0069 H   0  0  0  0  0  0  0  0  0  0  0  0
   -2.9672    3.7199    4.7477 H   0  0  0  0  0  0  0  0  0  0  0  0
   -2.4216    3.3906    2.3185 H   0  0  0  0  0  0  0  0  0  0  0  0
   -0.8066    1.5948    1.6842 H   0  0  0  0  0  0  0  0  0  0  0  0
    0.5761   -0.4377    5.5134 H   0  0  0  0  0  0  0  0  0  0  0  0
  1  2  1  0
  1 15  1  0
  1 16  1  0
  1 17  1  0
  2  3  1  0
  3 14  2  0
  3  4  1  0
  4  5  2  0
  4 18  1  0
  5  6  1  0
  5  8  1  0
  6  7  1  0
  7 19  1  0
  7 20  1  0
  7 21  1  0
  8 13  2  0
  8  9  1  0
  9 10  2  0
  9 22  1  0
 10 11  1  0
 10 23  1  0
 11 12  2  0
 11 24  1  0
 12 13  1  0
 13 14  1  0
 14 25  1  0
M  END
>  <i_m_ct_stereo_status>  (270) 
1

>  <s_m_source_file>  (270) 
/var/tmp/pbs.5076255.sched01/tmpbnv9a_8s/88lo2bg1ru.sdf

>  <i_m_source_file_index>  (270) 
40

>  <i_lp_mmshare_version>  (270) 
48012

>  <i_f3d_flags>  (270) 
0

>  <s_epik_input>  (270) 
W0NIM11PYzFbY0hdYyhPW0NIM10pW2NIXWMoYzEyKW5bY0hdW2NIXVtjSF0y

>  <s_epik_cmdline>  (270) 
J2VwaWtfcHl0aG9uJywgJy1waHQnLCAnMi4wJywgJy1waCcsICc3LjAnLCAnLXRuJywgJzgnLCAnLW1hJywgJzIwMCcsICctaW1hZScsICc8aW5maWxlLm1hZT4nLCAnLW9tYWUnLCAnPG91dGZpbGUubWFlPic=

>  <r_epik_Ionization_Penalty>  (270) 
0.0625254

>  <r_epik_Ionization_Penalty_Charging>  (270) 
0

>  <r_epik_Ionization_Penalty_Neutral>  (270) 
0.0625254

>  <r_epik_State_Penalty>  (270) 
0.054343

>  <r_epik_Charging_Adjusted_Penalty>  (270) 
0.054343

>  <i_epik_Tot_Q>  (270) 
0

>  <i_epik_Tot_abs_Q>  (270) 
0

>  <s_lp_Force_Field>  (270) 
OPLS3e

>  <r_lp_Energy>  (270) 
25.0366

>  <b_lp_Chiralities_Consistent>  (270) 
1

>  <s_lp_Variant>  (270) 
88:0-1

>  <s_i_glide_gridfile>  (270) 
pfpi4k_grid

>  <i_i_glide_lignum>  (270) 
40

>  <i_i_glide_rotatable_bonds>  (270) 
2

>  <r_i_docking_score>  (270) 
-2.99121

>  <r_i_glide_ligand_efficiency>  (270) 
-0.213658

>  <r_i_glide_ligand_efficiency_sa>  (270) 
-0.514945

>  <r_i_glide_ligand_efficiency_ln>  (270) 
-0.821973

>  <r_i_glide_gscore>  (270) 
-2.99121

>  <r_i_glide_lipo>  (270) 
-0.0642196

>  <r_i_glide_hbond>  (270) 
0

>  <r_i_glide_metal>  (270) 
-0

>  <r_i_glide_rewards>  (270) 
-2.11902

>  <r_i_glide_evdw>  (270) 
-15.3031

>  <r_i_glide_ecoul>  (270) 
-0.285428

>  <r_i_glide_erotb>  (270) 
0

>  <r_i_glide_esite>  (270) 
0

>  <r_i_glide_emodel>  (270) 
-20.1167

>  <r_i_glide_energy>  (270) 
-15.5885

>  <r_i_glide_einternal>  (270) 
0.017463

>  <r_i_glide_intrahb_reward>  (270) 
-0

>  <i_i_glide_confnum>  (270) 
1

>  <i_i_glide_posenum>  (270) 
5

>  <r_i_glide_eff_state_penalty>  (270) 
0

>  <ligand_id>  (270) 
88

>  <original_smiles>  (270) 
COc1cc(OC)c2cccnc2c1

>  <smiles>  (270) 
[H]c1nc2c([H])c(OC([H])([H])[H])c([H])c(OC([H])([H])[H])c2c([H])c1[H]

$$$$
88:1:0
     RDKit          3D

 26 27  0  0  1  0  0  0  0  0999 V2000
   -3.9787    3.1858    2.3211 C   0  0  0  0  0  0  0  0  0  0  0  0
   -3.3561    2.9479    3.5774 O   0  0  0  0  0  0  0  0  0  0  0  0
   -2.0197    2.6170    3.5800 C   0  0  0  0  0  0  0  0  0  0  0  0
   -1.2807    3.0065    4.7137 C   0  0  0  0  0  0  0  0  0  0  0  0
    0.1001    2.7139    4.8345 C   0  0  0  0  0  0  0  0  0  0  0  0
    0.8611    3.0872    5.9256 O   0  0  0  0  0  0  0  0  0  0  0  0
    0.2335    3.8257    6.9663 C   0  0  0  0  0  0  0  0  0  0  0  0
    0.7339    1.9972    3.7915 C   0  0  0  0  0  0  0  0  0  0  0  0
    2.1052    1.6777    3.8685 C   0  0  0  0  0  0  0  0  0  0  0  0
    2.7042    0.9451    2.8231 C   0  0  0  0  0  0  0  0  0  0  0  0
    1.9177    0.5502    1.7227 C   0  0  0  0  0  0  0  0  0  0  0  0
    0.6091    0.8852    1.6765 N   0  0  0  0  0  0  0  0  0  0  0  0
   -0.0096    1.5833    2.6543 C   0  0  0  0  0  0  0  0  0  0  0  0
   -1.3811    1.8804    2.5522 C   0  0  0  0  0  0  0  0  0  0  0  0
   -5.0197    3.4543    2.4770 H   0  0  0  0  0  0  0  0  0  0  0  0
   -3.9699    2.3270    1.6509 H   0  0  0  0  0  0  0  0  0  0  0  0
   -3.5163    4.0350    1.8264 H   0  0  0  0  0  0  0  0  0  0  0  0
   -1.8090    3.5419    5.4863 H   0  0  0  0  0  0  0  0  0  0  0  0
    0.9637    4.0512    7.7424 H   0  0  0  0  0  0  0  0  0  0  0  0
   -0.5720    3.2577    7.4359 H   0  0  0  0  0  0  0  0  0  0  0  0
   -0.1631    4.7786    6.6092 H   0  0  0  0  0  0  0  0  0  0  0  0
    2.6991    1.9807    4.7173 H   0  0  0  0  0  0  0  0  0  0  0  0
    3.7561    0.6965    2.8600 H   0  0  0  0  0  0  0  0  0  0  0  0
    2.3024   -0.0044    0.8800 H   0  0  0  0  0  0  0  0  0  0  0  0
   -1.9312    1.5130    1.7014 H   0  0  0  0  0  0  0  0  0  0  0  0
    0.0875    0.6228    0.8262 H   0  0  0  0  0  0  0  0  0  0  0  0
  1  2  1  0
  1 15  1  0
  1 16  1  0
  1 17  1  0
  2  3  1  0
  3 14  2  0
  3  4  1  0
  4  5  2  0
  4 18  1  0
  5  6  1  0
  5  8  1  0
  6  7  1  0
  7 19  1  0
  7 20  1  0
  7 21  1  0
  8 13  2  0
  8  9  1  0
  9 10  2  0
  9 22  1  0
 10 11  1  0
 10 23  1  0
 11 12  2  0
 11 24  1  0
 12 13  1  0
 12 26  1  0
 13 14  1  0
 14 25  1  0
M  CHG  1  12   1
M  END
>  <i_m_ct_stereo_status>  (271) 
1

>  <s_m_source_file>  (271) 
/var/tmp/pbs.5076255.sched01/tmpbnv9a_8s/88lo2bg1ru.sdf

>  <i_m_source_file_index>  (271) 
41

>  <i_lp_mmshare_version>  (271) 
48012

>  <i_f3d_flags>  (271) 
0

>  <s_epik_input>  (271) 
W0NIM11PYzFbY0hdYyhPW0NIM10pW2NIXWMoYzEyKW5bY0hdW2NIXVtjSF0y

>  <s_epik_cmdline>  (271) 
J2VwaWtfcHl0aG9uJywgJy1waHQnLCAnMi4wJywgJy1waCcsICc3LjAnLCAnLXRuJywgJzgnLCAnLW1hJywgJzIwMCcsICctaW1hZScsICc8aW5maWxlLm1hZT4nLCAnLW9tYWUnLCAnPG91dGZpbGUubWFlPic=

>  <r_epik_Ionization_Penalty>  (271) 
1.36334

>  <r_epik_Ionization_Penalty_Charging>  (271) 
1.36334

>  <r_epik_Ionization_Penalty_Neutral>  (271) 
0

>  <r_epik_State_Penalty>  (271) 
1.44242

>  <r_epik_Charging_Adjusted_Penalty>  (271) 
2.80576

>  <i_epik_Tot_Q>  (271) 
1

>  <i_epik_Tot_abs_Q>  (271) 
1

>  <s_lp_Force_Field>  (271) 
OPLS3e

>  <r_lp_Energy>  (271) 
25.7708

>  <b_lp_Chiralities_Consistent>  (271) 
1

>  <s_lp_Variant>  (271) 
88:0-2

>  <s_i_glide_gridfile>  (271) 
pfpi4k_grid

>  <i_i_glide_lignum>  (271) 
41

>  <i_i_glide_rotatable_bonds>  (271) 
2

>  <r_i_docking_score>  (271) 
-3.7284

>  <r_i_glide_ligand_efficiency>  (271) 
-0.266315

>  <r_i_glide_ligand_efficiency_sa>  (271) 
-0.641856

>  <r_i_glide_ligand_efficiency_ln>  (271) 
-1.02455

>  <r_i_glide_gscore>  (271) 
-3.7284

>  <r_i_glide_lipo>  (271) 
-0.0993579

>  <r_i_glide_hbond>  (271) 
-0.236993

>  <r_i_glide_metal>  (271) 
-0

>  <r_i_glide_rewards>  (271) 
-2.11215

>  <r_i_glide_evdw>  (271) 
-14.8599

>  <r_i_glide_ecoul>  (271) 
-3.01532

>  <r_i_glide_erotb>  (271) 
0

>  <r_i_glide_esite>  (271) 
-0.0846121

>  <r_i_glide_emodel>  (271) 
-23.042

>  <r_i_glide_energy>  (271) 
-17.8752

>  <r_i_glide_einternal>  (271) 
1.76271

>  <r_i_glide_intrahb_reward>  (271) 
-0

>  <i_i_glide_confnum>  (271) 
1

>  <i_i_glide_posenum>  (271) 
13

>  <r_i_glide_eff_state_penalty>  (271) 
0

>  <ligand_id>  (271) 
88

>  <original_smiles>  (271) 
COc1cc(OC)c2cccnc2c1

>  <smiles>  (271) 
[H]c1c(OC([H])([H])[H])c([H])c2c(c([H])c([H])c([H])[n+]2[H])c1OC([H])([H])[H]

$$$$
88:1:1
     RDKit          3D

 26 27  0  0  1  0  0  0  0  0999 V2000
   -4.0103    3.3093    2.4037 C   0  0  0  0  0  0  0  0  0  0  0  0
   -3.7235    2.9497    3.7438 O   0  0  0  0  0  0  0  0  0  0  0  0
   -2.4139    2.7799    4.1396 C   0  0  0  0  0  0  0  0  0  0  0  0
   -2.1760    2.5727    5.5132 C   0  0  0  0  0  0  0  0  0  0  0  0
   -0.8664    2.3606    6.0183 C   0  0  0  0  0  0  0  0  0  0  0  0
   -0.6046    2.1311    7.3523 O   0  0  0  0  0  0  0  0  0  0  0  0
   -1.6824    2.1834    8.2788 C   0  0  0  0  0  0  0  0  0  0  0  0
    0.2186    2.3807    5.1139 C   0  0  0  0  0  0  0  0  0  0  0  0
    1.5450    2.1980    5.5618 C   0  0  0  0  0  0  0  0  0  0  0  0
    2.5981    2.2334    4.6201 C   0  0  0  0  0  0  0  0  0  0  0  0
    2.2856    2.4536    3.2584 C   0  0  0  0  0  0  0  0  0  0  0  0
    1.0071    2.6375    2.8754 N   0  0  0  0  0  0  0  0  0  0  0  0
   -0.0192    2.6039    3.7400 C   0  0  0  0  0  0  0  0  0  0  0  0
   -1.3178    2.8012    3.2523 C   0  0  0  0  0  0  0  0  0  0  0  0
   -5.0904    3.4103    2.2891 H   0  0  0  0  0  0  0  0  0  0  0  0
   -3.6850    2.5473    1.6914 H   0  0  0  0  0  0  0  0  0  0  0  0
   -3.5735    4.2744    2.1509 H   0  0  0  0  0  0  0  0  0  0  0  0
   -3.0282    2.5695    6.1691 H   0  0  0  0  0  0  0  0  0  0  0  0
   -1.2989    1.9967    9.2824 H   0  0  0  0  0  0  0  0  0  0  0  0
   -2.4316    1.4249    8.0689 H   0  0  0  0  0  0  0  0  0  0  0  0
   -2.1566    3.1670    8.2902 H   0  0  0  0  0  0  0  0  0  0  0  0
    1.7513    2.0340    6.6120 H   0  0  0  0  0  0  0  0  0  0  0  0
    3.6219    2.1032    4.9430 H   0  0  0  0  0  0  0  0  0  0  0  0
    3.0137    2.5119    2.4712 H   0  0  0  0  0  0  0  0  0  0  0  0
   -1.4532    2.9492    2.1931 H   0  0  0  0  0  0  0  0  0  0  0  0
    0.8130    2.8691    1.8941 H   0  0  0  0  0  0  0  0  0  0  0  0
  1  2  1  0
  1 15  1  0
  1 16  1  0
  1 17  1  0
  2  3  1  0
  3 14  2  0
  3  4  1  0
  4  5  2  0
  4 18  1  0
  5  6  1  0
  5  8  1  0
  6  7  1  0
  7 19  1  0
  7 20  1  0
  7 21  1  0
  8 13  2  0
  8  9  1  0
  9 10  2  0
  9 22  1  0
 10 11  1  0
 10 23  1  0
 11 12  2  0
 11 24  1  0
 12 13  1  0
 12 26  1  0
 13 14  1  0
 14 25  1  0
M  CHG  1  12   1
M  END
>  <i_m_ct_stereo_status>  (272) 
1

>  <s_m_source_file>  (272) 
/var/tmp/pbs.5076255.sched01/tmpbnv9a_8s/88lo2bg1ru.sdf

>  <i_m_source_file_index>  (272) 
41

>  <i_lp_mmshare_version>  (272) 
48012

>  <i_f3d_flags>  (272) 
0

>  <s_epik_input>  (272) 
W0NIM11PYzFbY0hdYyhPW0NIM10pW2NIXWMoYzEyKW5bY0hdW2NIXVtjSF0y

>  <s_epik_cmdline>  (272) 
J2VwaWtfcHl0aG9uJywgJy1waHQnLCAnMi4wJywgJy1waCcsICc3LjAnLCAnLXRuJywgJzgnLCAnLW1hJywgJzIwMCcsICctaW1hZScsICc8aW5maWxlLm1hZT4nLCAnLW9tYWUnLCAnPG91dGZpbGUubWFlPic=

>  <r_epik_Ionization_Penalty>  (272) 
1.36334

>  <r_epik_Ionization_Penalty_Charging>  (272) 
1.36334

>  <r_epik_Ionization_Penalty_Neutral>  (272) 
0

>  <r_epik_State_Penalty>  (272) 
1.44242

>  <r_epik_Charging_Adjusted_Penalty>  (272) 
2.80576

>  <i_epik_Tot_Q>  (272) 
1

>  <i_epik_Tot_abs_Q>  (272) 
1

>  <s_lp_Force_Field>  (272) 
OPLS3e

>  <r_lp_Energy>  (272) 
25.7708

>  <b_lp_Chiralities_Consistent>  (272) 
1

>  <s_lp_Variant>  (272) 
88:0-2

>  <s_i_glide_gridfile>  (272) 
pfpi4k_grid

>  <i_i_glide_lignum>  (272) 
41

>  <i_i_glide_rotatable_bonds>  (272) 
2

>  <r_i_docking_score>  (272) 
-3.65923

>  <r_i_glide_ligand_efficiency>  (272) 
-0.261373

>  <r_i_glide_ligand_efficiency_sa>  (272) 
-0.629947

>  <r_i_glide_ligand_efficiency_ln>  (272) 
-1.00554

>  <r_i_glide_gscore>  (272) 
-3.65923

>  <r_i_glide_lipo>  (272) 
-0.204443

>  <r_i_glide_hbond>  (272) 
-0.169077

>  <r_i_glide_metal>  (272) 
-0

>  <r_i_glide_rewards>  (272) 
-2.11215

>  <r_i_glide_evdw>  (272) 
-13.1825

>  <r_i_glide_ecoul>  (272) 
-2.83754

>  <r_i_glide_erotb>  (272) 
0

>  <r_i_glide_esite>  (272) 
-0.088803

>  <r_i_glide_emodel>  (272) 
-22.0963

>  <r_i_glide_energy>  (272) 
-16.0201

>  <r_i_glide_einternal>  (272) 
0.116578

>  <r_i_glide_intrahb_reward>  (272) 
-0

>  <i_i_glide_confnum>  (272) 
2

>  <i_i_glide_posenum>  (272) 
38

>  <r_i_glide_eff_state_penalty>  (272) 
0

>  <ligand_id>  (272) 
88

>  <original_smiles>  (272) 
COc1cc(OC)c2cccnc2c1

>  <smiles>  (272) 
[H]c1c(OC([H])([H])[H])c([H])c2c(c([H])c([H])c([H])[n+]2[H])c1OC([H])([H])[H]

$$$$
88:1:2
     RDKit          3D

 26 27  0  0  1  0  0  0  0  0999 V2000
   -3.1497    3.3768    2.5861 C   0  0  0  0  0  0  0  0  0  0  0  0
   -2.7499    2.9645    3.8847 O   0  0  0  0  0  0  0  0  0  0  0  0
   -1.6779    2.1047    3.9967 C   0  0  0  0  0  0  0  0  0  0  0  0
   -1.2830    1.7678    5.3063 C   0  0  0  0  0  0  0  0  0  0  0  0
   -0.1993    0.8878    5.5515 C   0  0  0  0  0  0  0  0  0  0  0  0
    0.2069    0.5230    6.8215 O   0  0  0  0  0  0  0  0  0  0  0  0
   -0.3905    1.1709    7.9382 C   0  0  0  0  0  0  0  0  0  0  0  0
    0.4994    0.3439    4.4457 C   0  0  0  0  0  0  0  0  0  0  0  0
    1.5889   -0.5352    4.6292 C   0  0  0  0  0  0  0  0  0  0  0  0
    2.2581   -1.0583    3.5013 C   0  0  0  0  0  0  0  0  0  0  0  0
    1.8258   -0.6901    2.2112 C   0  0  0  0  0  0  0  0  0  0  0  0
    0.7798    0.1519    2.0742 N   0  0  0  0  0  0  0  0  0  0  0  0
    0.1081    0.6811    3.1227 C   0  0  0  0  0  0  0  0  0  0  0  0
   -0.9761    1.5449    2.9004 C   0  0  0  0  0  0  0  0  0  0  0  0
   -4.0024    4.0473    2.6719 H   0  0  0  0  0  0  0  0  0  0  0  0
   -3.4640    2.5400    1.9649 H   0  0  0  0  0  0  0  0  0  0  0  0
   -2.3510    3.9237    2.0850 H   0  0  0  0  0  0  0  0  0  0  0  0
   -1.8441    2.2079    6.1173 H   0  0  0  0  0  0  0  0  0  0  0  0
    0.0507    0.7874    8.8578 H   0  0  0  0  0  0  0  0  0  0  0  0
   -1.4626    0.9776    7.9941 H   0  0  0  0  0  0  0  0  0  0  0  0
   -0.2227    2.2495    7.9210 H   0  0  0  0  0  0  0  0  0  0  0  0
    1.9125   -0.8069    5.6239 H   0  0  0  0  0  0  0  0  0  0  0  0
    3.0952   -1.7330    3.6279 H   0  0  0  0  0  0  0  0  0  0  0  0
    2.2726   -1.0408    1.2912 H   0  0  0  0  0  0  0  0  0  0  0  0
   -1.2482    1.7603    1.8814 H   0  0  0  0  0  0  0  0  0  0  0  0
    0.4892    0.3873    1.1169 H   0  0  0  0  0  0  0  0  0  0  0  0
  1  2  1  0
  1 15  1  0
  1 16  1  0
  1 17  1  0
  2  3  1  0
  3 14  2  0
  3  4  1  0
  4  5  2  0
  4 18  1  0
  5  6  1  0
  5  8  1  0
  6  7  1  0
  7 19  1  0
  7 20  1  0
  7 21  1  0
  8 13  2  0
  8  9  1  0
  9 10  2  0
  9 22  1  0
 10 11  1  0
 10 23  1  0
 11 12  2  0
 11 24  1  0
 12 13  1  0
 12 26  1  0
 13 14  1  0
 14 25  1  0
M  CHG  1  12   1
M  END
>  <i_m_ct_stereo_status>  (273) 
1

>  <s_m_source_file>  (273) 
/var/tmp/pbs.5076255.sched01/tmpbnv9a_8s/88lo2bg1ru.sdf

>  <i_m_source_file_index>  (273) 
41

>  <i_lp_mmshare_version>  (273) 
48012

>  <i_f3d_flags>  (273) 
0

>  <s_epik_input>  (273) 
W0NIM11PYzFbY0hdYyhPW0NIM10pW2NIXWMoYzEyKW5bY0hdW2NIXVtjSF0y

>  <s_epik_cmdline>  (273) 
J2VwaWtfcHl0aG9uJywgJy1waHQnLCAnMi4wJywgJy1waCcsICc3LjAnLCAnLXRuJywgJzgnLCAnLW1hJywgJzIwMCcsICctaW1hZScsICc8aW5maWxlLm1hZT4nLCAnLW9tYWUnLCAnPG91dGZpbGUubWFlPic=

>  <r_epik_Ionization_Penalty>  (273) 
1.36334

>  <r_epik_Ionization_Penalty_Charging>  (273) 
1.36334

>  <r_epik_Ionization_Penalty_Neutral>  (273) 
0

>  <r_epik_State_Penalty>  (273) 
1.44242

>  <r_epik_Charging_Adjusted_Penalty>  (273) 
2.80576

>  <i_epik_Tot_Q>  (273) 
1

>  <i_epik_Tot_abs_Q>  (273) 
1

>  <s_lp_Force_Field>  (273) 
OPLS3e

>  <r_lp_Energy>  (273) 
25.7708

>  <b_lp_Chiralities_Consistent>  (273) 
1

>  <s_lp_Variant>  (273) 
88:0-2

>  <s_i_glide_gridfile>  (273) 
pfpi4k_grid

>  <i_i_glide_lignum>  (273) 
41

>  <i_i_glide_rotatable_bonds>  (273) 
2

>  <r_i_docking_score>  (273) 
-3.29111

>  <r_i_glide_ligand_efficiency>  (273) 
-0.23508

>  <r_i_glide_ligand_efficiency_sa>  (273) 
-0.566575

>  <r_i_glide_ligand_efficiency_ln>  (273) 
-0.904386

>  <r_i_glide_gscore>  (273) 
-3.29111

>  <r_i_glide_lipo>  (273) 
0

>  <r_i_glide_hbond>  (273) 
-0.0329122

>  <r_i_glide_metal>  (273) 
-0

>  <r_i_glide_rewards>  (273) 
-2.11215

>  <r_i_glide_evdw>  (273) 
-14.4412

>  <r_i_glide_ecoul>  (273) 
-2.36109

>  <r_i_glide_erotb>  (273) 
0

>  <r_i_glide_esite>  (273) 
-0.069832

>  <r_i_glide_emodel>  (273) 
-22.2665

>  <r_i_glide_energy>  (273) 
-16.8023

>  <r_i_glide_einternal>  (273) 
0.0910112

>  <r_i_glide_intrahb_reward>  (273) 
-0

>  <i_i_glide_confnum>  (273) 
1

>  <i_i_glide_posenum>  (273) 
26

>  <r_i_glide_eff_state_penalty>  (273) 
0

>  <ligand_id>  (273) 
88

>  <original_smiles>  (273) 
COc1cc(OC)c2cccnc2c1

>  <smiles>  (273) 
[H]c1c(OC([H])([H])[H])c([H])c2c(c([H])c([H])c([H])[n+]2[H])c1OC([H])([H])[H]

$$$$
90:0:0
     RDKit          3D

 34 37  0  0  1  0  0  0  0  0999 V2000
    0.6432   -6.2548    0.9404 O   0  0  0  0  0  0  0  0  0  0  0  0
    1.8728   -6.2738    1.0117 C   0  0  0  0  0  0  0  0  0  0  0  0
    2.7080   -5.1844    0.3744 C   0  0  0  0  0  0  0  0  0  0  0  0
    4.0940   -5.8341    0.2960 C   0  0  1  0  0  0  0  0  0  0  0  0
    5.2675   -4.8455    0.3597 C   0  0  0  0  0  0  0  0  0  0  0  0
    5.1226   -3.7929   -0.6269 N   0  0  0  0  0  0  0  0  0  0  0  0
    5.0145   -3.8495   -1.9525 C   0  0  0  0  0  0  0  0  0  0  0  0
    4.9093   -2.6408   -2.4851 N   0  0  0  0  0  0  0  0  0  0  0  0
    4.9579   -1.8080   -1.3800 N   0  0  0  0  0  0  0  0  0  0  0  0
    5.0985   -2.4837   -0.2754 N   0  0  0  0  0  0  0  0  0  0  0  0
    4.0665   -6.8772    1.4232 C   0  0  2  0  0  0  0  0  0  0  0  0
    4.9363   -8.1138    1.1616 C   0  0  0  0  0  0  0  0  0  0  0  0
    4.6952   -9.1562    2.2548 C   0  0  0  0  0  0  0  0  0  0  0  0
    3.2143   -9.4196    2.4978 C   0  0  0  0  0  0  0  0  0  0  0  0
    2.8183  -10.6600    3.0432 C   0  0  0  0  0  0  0  0  0  0  0  0
    1.4540  -10.8901    3.2961 C   0  0  0  0  0  0  0  0  0  0  0  0
    0.5413   -9.8659    2.9994 C   0  0  0  0  0  0  0  0  0  0  0  0
    0.9172   -8.6799    2.4809 N   0  0  0  0  0  0  0  0  0  0  0  0
    2.2232   -8.4430    2.2004 C   0  0  0  0  0  0  0  0  0  0  0  0
    2.6511   -7.2208    1.5819 N   0  0  0  0  0  0  0  0  0  0  0  0
    2.3139   -4.8883   -0.6014 H   0  0  0  0  0  0  0  0  0  0  0  0
    2.6981   -4.3123    1.0316 H   0  0  0  0  0  0  0  0  0  0  0  0
    4.1659   -6.3654   -0.6575 H   0  0  0  0  0  0  0  0  0  0  0  0
    5.3322   -4.4026    1.3564 H   0  0  0  0  0  0  0  0  0  0  0  0
    6.2072   -5.3706    0.1797 H   0  0  0  0  0  0  0  0  0  0  0  0
    5.0123   -4.7667   -2.5261 H   0  0  0  0  0  0  0  0  0  0  0  0
    4.3768   -6.4170    2.3623 H   0  0  0  0  0  0  0  0  0  0  0  0
    4.6797   -8.5561    0.1994 H   0  0  0  0  0  0  0  0  0  0  0  0
    5.9927   -7.8401    1.1089 H   0  0  0  0  0  0  0  0  0  0  0  0
    5.2063  -10.0850    2.0060 H   0  0  0  0  0  0  0  0  0  0  0  0
    5.1307   -8.8017    3.1898 H   0  0  0  0  0  0  0  0  0  0  0  0
    3.5570  -11.4183    3.2674 H   0  0  0  0  0  0  0  0  0  0  0  0
    1.1191  -11.8345    3.7001 H   0  0  0  0  0  0  0  0  0  0  0  0
   -0.5172   -9.9968    3.1754 H   0  0  0  0  0  0  0  0  0  0  0  0
  1  2  2  0
  2 20  1  0
  2  3  1  0
  3  4  1  0
  3 21  1  0
  3 22  1  0
  4  5  1  0
  4 11  1  0
  4 23  1  6
  5  6  1  0
  5 24  1  0
  5 25  1  0
  6 10  1  0
  6  7  1  0
  7  8  2  0
  7 26  1  0
  8  9  1  0
  9 10  2  0
 11 20  1  0
 11 12  1  0
 11 27  1  1
 12 13  1  0
 12 28  1  0
 12 29  1  0
 13 14  1  0
 13 30  1  0
 13 31  1  0
 14 19  2  0
 14 15  1  0
 15 16  2  0
 15 32  1  0
 16 17  1  0
 16 33  1  0
 17 18  2  0
 17 34  1  0
 18 19  1  0
 19 20  1  0
M  END
>  <i_m_ct_stereo_status>  (274) 
1

>  <s_m_source_file>  (274) 
/var/tmp/pbs.5076255.sched01/tmpbnv9a_8s/88lo2bg1ru.sdf

>  <i_m_source_file_index>  (274) 
43

>  <i_lp_mmshare_version>  (274) 
48012

>  <i_f3d_flags>  (274) 
0

>  <s_epik_input>  (274) 
bjFbY0hdW2NIXVtjSF1jKFtDSDJdW0NIMl0yKWMxTihbQ0BASF0yMylDKD1PKVtDSDJdW0NASF0zW0NIMl1uNFtjSF1ubm40

>  <s_epik_cmdline>  (274) 
J2VwaWtfcHl0aG9uJywgJy1waHQnLCAnMi4wJywgJy1waCcsICc3LjAnLCAnLXRuJywgJzgnLCAnLW1hJywgJzIwMCcsICctaW1hZScsICc8aW5maWxlLm1hZT4nLCAnLW9tYWUnLCAnPG91dGZpbGUubWFlPic=

>  <r_lp_tautomer_probability>  (274) 
1

>  <r_epik_Ionization_Penalty>  (274) 
0.00269508

>  <r_epik_Ionization_Penalty_Charging>  (274) 
0

>  <r_epik_Ionization_Penalty_Neutral>  (274) 
0.00269508

>  <r_epik_State_Penalty>  (274) 
0.00187688

>  <r_epik_Charging_Adjusted_Penalty>  (274) 
0.00187688

>  <i_epik_Tot_Q>  (274) 
0

>  <i_epik_Tot_abs_Q>  (274) 
0

>  <s_lp_Force_Field>  (274) 
OPLS3e

>  <r_lp_Energy>  (274) 
18.4481

>  <b_lp_Chiralities_Consistent>  (274) 
1

>  <s_lp_Variant>  (274) 
90:0-1

>  <s_i_glide_gridfile>  (274) 
pfpi4k_grid

>  <i_i_glide_lignum>  (274) 
43

>  <i_i_glide_rotatable_bonds>  (274) 
2

>  <r_i_docking_score>  (274) 
-4.00518

>  <r_i_glide_ligand_efficiency>  (274) 
-0.200259

>  <r_i_glide_ligand_efficiency_sa>  (274) 
-0.543587

>  <r_i_glide_ligand_efficiency_ln>  (274) 
-1.00237

>  <r_i_glide_gscore>  (274) 
-4.00518

>  <r_i_glide_lipo>  (274) 
-0.435202

>  <r_i_glide_hbond>  (274) 
-0.16

>  <r_i_glide_metal>  (274) 
-0

>  <r_i_glide_rewards>  (274) 
-1.65336

>  <r_i_glide_evdw>  (274) 
-26.4745

>  <r_i_glide_ecoul>  (274) 
-5.57609

>  <r_i_glide_erotb>  (274) 
0.489581

>  <r_i_glide_esite>  (274) 
-0.0860626

>  <r_i_glide_emodel>  (274) 
-40.445

>  <r_i_glide_energy>  (274) 
-32.0506

>  <r_i_glide_einternal>  (274) 
0.685115

>  <r_i_glide_intrahb_reward>  (274) 
-0

>  <i_i_glide_confnum>  (274) 
4

>  <i_i_glide_posenum>  (274) 
16

>  <r_i_glide_eff_state_penalty>  (274) 
0

>  <ligand_id>  (274) 
90

>  <original_smiles>  (274) 
O=C1CC(Cn2cnnn2)C2CCc3cccnc3N12

>  <smiles>  (274) 
[H]c1nc2c(c([H])c1[H])C([H])([H])C([H])([H])C1([H])N2C(=O)C([H])([H])C1([H])C([H])([H])n1nnnc1[H]

$$$$
90:0:1
     RDKit          3D

 34 37  0  0  1  0  0  0  0  0999 V2000
    1.4289   -5.4603   -0.2208 O   0  0  0  0  0  0  0  0  0  0  0  0
    2.4154   -5.5160    0.5136 C   0  0  0  0  0  0  0  0  0  0  0  0
    3.6664   -4.7095    0.2403 C   0  0  0  0  0  0  0  0  0  0  0  0
    4.7119   -5.3632    1.1495 C   0  0  1  0  0  0  0  0  0  0  0  0
    5.8301   -4.4298    1.6616 C   0  0  0  0  0  0  0  0  0  0  0  0
    6.4710   -3.6716    0.5962 N   0  0  0  0  0  0  0  0  0  0  0  0
    6.0244   -2.6660   -0.1580 C   0  0  0  0  0  0  0  0  0  0  0  0
    6.9422   -2.2529   -1.0162 N   0  0  0  0  0  0  0  0  0  0  0  0
    8.0260   -3.0658   -0.7388 N   0  0  0  0  0  0  0  0  0  0  0  0
    7.7531   -3.9079    0.2239 N   0  0  0  0  0  0  0  0  0  0  0  0
    3.8509   -5.9869    2.2631 C   0  0  2  0  0  0  0  0  0  0  0  0
    4.4369   -7.2553    2.8936 C   0  0  0  0  0  0  0  0  0  0  0  0
    3.4210   -7.8800    3.8534 C   0  0  0  0  0  0  0  0  0  0  0  0
    2.0340   -8.0186    3.2355 C   0  0  0  0  0  0  0  0  0  0  0  0
    1.1541   -9.0039    3.7264 C   0  0  0  0  0  0  0  0  0  0  0  0
   -0.1350   -9.1082    3.1754 C   0  0  0  0  0  0  0  0  0  0  0  0
   -0.4942   -8.2157    2.1541 C   0  0  0  0  0  0  0  0  0  0  0  0
    0.3390   -7.2639    1.6863 N   0  0  0  0  0  0  0  0  0  0  0  0
    1.6047   -7.1748    2.1751 C   0  0  0  0  0  0  0  0  0  0  0  0
    2.5508   -6.2436    1.6374 N   0  0  0  0  0  0  0  0  0  0  0  0
    3.9485   -4.7162   -0.8157 H   0  0  0  0  0  0  0  0  0  0  0  0
    3.4383   -3.6867    0.5424 H   0  0  0  0  0  0  0  0  0  0  0  0
    5.1787   -6.1682    0.5740 H   0  0  0  0  0  0  0  0  0  0  0  0
    5.4211   -3.7165    2.3762 H   0  0  0  0  0  0  0  0  0  0  0  0
    6.5816   -5.0173    2.2041 H   0  0  0  0  0  0  0  0  0  0  0  0
    5.0302   -2.2460   -0.1009 H   0  0  0  0  0  0  0  0  0  0  0  0
    3.6739   -5.2524    3.0514 H   0  0  0  0  0  0  0  0  0  0  0  0
    4.6716   -7.9787    2.1145 H   0  0  0  0  0  0  0  0  0  0  0  0
    5.3750   -7.0360    3.4081 H   0  0  0  0  0  0  0  0  0  0  0  0
    3.7774   -8.8486    4.1959 H   0  0  0  0  0  0  0  0  0  0  0  0
    3.3270   -7.2515    4.7381 H   0  0  0  0  0  0  0  0  0  0  0  0
    1.4644   -9.6652    4.5250 H   0  0  0  0  0  0  0  0  0  0  0  0
   -0.8251   -9.8639    3.5220 H   0  0  0  0  0  0  0  0  0  0  0  0
   -1.4702   -8.2626    1.6917 H   0  0  0  0  0  0  0  0  0  0  0  0
  1  2  2  0
  2 20  1  0
  2  3  1  0
  3  4  1  0
  3 21  1  0
  3 22  1  0
  4  5  1  0
  4 11  1  0
  4 23  1  6
  5  6  1  0
  5 24  1  0
  5 25  1  0
  6 10  1  0
  6  7  1  0
  7  8  2  0
  7 26  1  0
  8  9  1  0
  9 10  2  0
 11 20  1  0
 11 12  1  0
 11 27  1  1
 12 13  1  0
 12 28  1  0
 12 29  1  0
 13 14  1  0
 13 30  1  0
 13 31  1  0
 14 19  2  0
 14 15  1  0
 15 16  2  0
 15 32  1  0
 16 17  1  0
 16 33  1  0
 17 18  2  0
 17 34  1  0
 18 19  1  0
 19 20  1  0
M  END
>  <i_m_ct_stereo_status>  (275) 
1

>  <s_m_source_file>  (275) 
/var/tmp/pbs.5076255.sched01/tmpbnv9a_8s/88lo2bg1ru.sdf

>  <i_m_source_file_index>  (275) 
43

>  <i_lp_mmshare_version>  (275) 
48012

>  <i_f3d_flags>  (275) 
0

>  <s_epik_input>  (275) 
bjFbY0hdW2NIXVtjSF1jKFtDSDJdW0NIMl0yKWMxTihbQ0BASF0yMylDKD1PKVtDSDJdW0NASF0zW0NIMl1uNFtjSF1ubm40

>  <s_epik_cmdline>  (275) 
J2VwaWtfcHl0aG9uJywgJy1waHQnLCAnMi4wJywgJy1waCcsICc3LjAnLCAnLXRuJywgJzgnLCAnLW1hJywgJzIwMCcsICctaW1hZScsICc8aW5maWxlLm1hZT4nLCAnLW9tYWUnLCAnPG91dGZpbGUubWFlPic=

>  <r_lp_tautomer_probability>  (275) 
1

>  <r_epik_Ionization_Penalty>  (275) 
0.00269508

>  <r_epik_Ionization_Penalty_Charging>  (275) 
0

>  <r_epik_Ionization_Penalty_Neutral>  (275) 
0.00269508

>  <r_epik_State_Penalty>  (275) 
0.00187688

>  <r_epik_Charging_Adjusted_Penalty>  (275) 
0.00187688

>  <i_epik_Tot_Q>  (275) 
0

>  <i_epik_Tot_abs_Q>  (275) 
0

>  <s_lp_Force_Field>  (275) 
OPLS3e

>  <r_lp_Energy>  (275) 
18.4481

>  <b_lp_Chiralities_Consistent>  (275) 
1

>  <s_lp_Variant>  (275) 
90:0-1

>  <s_i_glide_gridfile>  (275) 
pfpi4k_grid

>  <i_i_glide_lignum>  (275) 
43

>  <i_i_glide_rotatable_bonds>  (275) 
2

>  <r_i_docking_score>  (275) 
-3.75239

>  <r_i_glide_ligand_efficiency>  (275) 
-0.18762

>  <r_i_glide_ligand_efficiency_sa>  (275) 
-0.509278

>  <r_i_glide_ligand_efficiency_ln>  (275) 
-0.939101

>  <r_i_glide_gscore>  (275) 
-3.75239

>  <r_i_glide_lipo>  (275) 
-0.107813

>  <r_i_glide_hbond>  (275) 
-0.208226

>  <r_i_glide_metal>  (275) 
-0

>  <r_i_glide_rewards>  (275) 
-1.71547

>  <r_i_glide_evdw>  (275) 
-22.4541

>  <r_i_glide_ecoul>  (275) 
-6.44405

>  <r_i_glide_erotb>  (275) 
0.489581

>  <r_i_glide_esite>  (275) 
-0.121158

>  <r_i_glide_emodel>  (275) 
-36.5703

>  <r_i_glide_energy>  (275) 
-28.8982

>  <r_i_glide_einternal>  (275) 
0.656399

>  <r_i_glide_intrahb_reward>  (275) 
-0

>  <i_i_glide_confnum>  (275) 
2

>  <i_i_glide_posenum>  (275) 
15

>  <r_i_glide_eff_state_penalty>  (275) 
0

>  <ligand_id>  (275) 
90

>  <original_smiles>  (275) 
O=C1CC(Cn2cnnn2)C2CCc3cccnc3N12

>  <smiles>  (275) 
[H]c1nc2c(c([H])c1[H])C([H])([H])C([H])([H])C1([H])N2C(=O)C([H])([H])C1([H])C([H])([H])n1nnnc1[H]

$$$$
90:0:2
     RDKit          3D

 34 37  0  0  1  0  0  0  0  0999 V2000
   -1.3568   -3.4562    7.2799 O   0  0  0  0  0  0  0  0  0  0  0  0
   -0.5186   -3.8111    6.4544 C   0  0  0  0  0  0  0  0  0  0  0  0
    0.0642   -5.2098    6.5076 C   0  0  0  0  0  0  0  0  0  0  0  0
    1.2045   -5.1339    5.4801 C   0  0  1  0  0  0  0  0  0  0  0  0
    1.5533   -6.4446    4.7255 C   0  0  0  0  0  0  0  0  0  0  0  0
    0.5394   -6.9179    3.7918 N   0  0  0  0  0  0  0  0  0  0  0  0
    0.6172   -7.2285    2.4907 C   0  0  0  0  0  0  0  0  0  0  0  0
   -0.5589   -7.5375    1.9810 N   0  0  0  0  0  0  0  0  0  0  0  0
   -1.4084   -7.5115    3.0834 N   0  0  0  0  0  0  0  0  0  0  0  0
   -0.7479   -7.1354    4.1753 N   0  0  0  0  0  0  0  0  0  0  0  0
    0.8214   -3.9566    4.5704 C   0  0  2  0  0  0  0  0  0  0  0  0
    2.0046   -3.1400    4.0155 C   0  0  0  0  0  0  0  0  0  0  0  0
    1.4848   -1.9100    3.2599 C   0  0  0  0  0  0  0  0  0  0  0  0
    0.4506   -1.1313    4.0574 C   0  0  0  0  0  0  0  0  0  0  0  0
    0.2565    0.2358    3.7847 C   0  0  0  0  0  0  0  0  0  0  0  0
   -0.7211    0.9477    4.4960 C   0  0  0  0  0  0  0  0  0  0  0  0
   -1.4854    0.2547    5.4447 C   0  0  0  0  0  0  0  0  0  0  0  0
   -1.3050   -1.0552    5.7213 N   0  0  0  0  0  0  0  0  0  0  0  0
   -0.3381   -1.7515    5.0635 C   0  0  0  0  0  0  0  0  0  0  0  0
   -0.0606   -3.1222    5.3926 N   0  0  0  0  0  0  0  0  0  0  0  0
    0.3972   -5.5050    7.5147 H   0  0  0  0  0  0  0  0  0  0  0  0
   -0.7732   -5.8619    6.2331 H   0  0  0  0  0  0  0  0  0  0  0  0
    2.0981   -4.8377    6.0436 H   0  0  0  0  0  0  0  0  0  0  0  0
    2.4697   -6.2739    4.1613 H   0  0  0  0  0  0  0  0  0  0  0  0
    1.7833   -7.2352    5.4415 H   0  0  0  0  0  0  0  0  0  0  0  0
    1.5244   -7.1743    1.9025 H   0  0  0  0  0  0  0  0  0  0  0  0
    0.2256   -4.2908    3.7232 H   0  0  0  0  0  0  0  0  0  0  0  0
    2.6397   -2.8049    4.8327 H   0  0  0  0  0  0  0  0  0  0  0  0
    2.6325   -3.7560    3.3639 H   0  0  0  0  0  0  0  0  0  0  0  0
    2.3158   -1.2634    2.9844 H   0  0  0  0  0  0  0  0  0  0  0  0
    1.0201   -2.2284    2.3278 H   0  0  0  0  0  0  0  0  0  0  0  0
    0.8587    0.7347    3.0316 H   0  0  0  0  0  0  0  0  0  0  0  0
   -0.8800    2.0010    4.3246 H   0  0  0  0  0  0  0  0  0  0  0  0
   -2.2509    0.7521    6.0227 H   0  0  0  0  0  0  0  0  0  0  0  0
  1  2  2  0
  2 20  1  0
  2  3  1  0
  3  4  1  0
  3 21  1  0
  3 22  1  0
  4  5  1  0
  4 11  1  0
  4 23  1  1
  5  6  1  0
  5 24  1  0
  5 25  1  0
  6 10  1  0
  6  7  1  0
  7  8  2  0
  7 26  1  0
  8  9  1  0
  9 10  2  0
 11 20  1  0
 11 12  1  0
 11 27  1  6
 12 13  1  0
 12 28  1  0
 12 29  1  0
 13 14  1  0
 13 30  1  0
 13 31  1  0
 14 19  2  0
 14 15  1  0
 15 16  2  0
 15 32  1  0
 16 17  1  0
 16 33  1  0
 17 18  2  0
 17 34  1  0
 18 19  1  0
 19 20  1  0
M  END
>  <i_m_ct_stereo_status>  (276) 
1

>  <s_m_source_file>  (276) 
/var/tmp/pbs.5076255.sched01/tmpbnv9a_8s/88lo2bg1ru.sdf

>  <i_m_source_file_index>  (276) 
43

>  <i_lp_mmshare_version>  (276) 
48012

>  <i_f3d_flags>  (276) 
0

>  <s_epik_input>  (276) 
bjFbY0hdW2NIXVtjSF1jKFtDSDJdW0NIMl0yKWMxTihbQ0BASF0yMylDKD1PKVtDSDJdW0NASF0zW0NIMl1uNFtjSF1ubm40

>  <s_epik_cmdline>  (276) 
J2VwaWtfcHl0aG9uJywgJy1waHQnLCAnMi4wJywgJy1waCcsICc3LjAnLCAnLXRuJywgJzgnLCAnLW1hJywgJzIwMCcsICctaW1hZScsICc8aW5maWxlLm1hZT4nLCAnLW9tYWUnLCAnPG91dGZpbGUubWFlPic=

>  <r_lp_tautomer_probability>  (276) 
1

>  <r_epik_Ionization_Penalty>  (276) 
0.00269508

>  <r_epik_Ionization_Penalty_Charging>  (276) 
0

>  <r_epik_Ionization_Penalty_Neutral>  (276) 
0.00269508

>  <r_epik_State_Penalty>  (276) 
0.00187688

>  <r_epik_Charging_Adjusted_Penalty>  (276) 
0.00187688

>  <i_epik_Tot_Q>  (276) 
0

>  <i_epik_Tot_abs_Q>  (276) 
0

>  <s_lp_Force_Field>  (276) 
OPLS3e

>  <r_lp_Energy>  (276) 
18.4481

>  <b_lp_Chiralities_Consistent>  (276) 
1

>  <s_lp_Variant>  (276) 
90:0-1

>  <s_i_glide_gridfile>  (276) 
pfpi4k_grid

>  <i_i_glide_lignum>  (276) 
43

>  <i_i_glide_rotatable_bonds>  (276) 
2

>  <r_i_docking_score>  (276) 
-3.22504

>  <r_i_glide_ligand_efficiency>  (276) 
-0.161252

>  <r_i_glide_ligand_efficiency_sa>  (276) 
-0.437705

>  <r_i_glide_ligand_efficiency_ln>  (276) 
-0.807121

>  <r_i_glide_gscore>  (276) 
-3.22504

>  <r_i_glide_lipo>  (276) 
-0.0187674

>  <r_i_glide_hbond>  (276) 
-0.00800327

>  <r_i_glide_metal>  (276) 
-0

>  <r_i_glide_rewards>  (276) 
-1.56621

>  <r_i_glide_evdw>  (276) 
-21.1243

>  <r_i_glide_ecoul>  (276) 
-4.98913

>  <r_i_glide_erotb>  (276) 
0.489581

>  <r_i_glide_esite>  (276) 
-0.317063

>  <r_i_glide_emodel>  (276) 
-31.6921

>  <r_i_glide_energy>  (276) 
-26.1134

>  <r_i_glide_einternal>  (276) 
2.31531

>  <r_i_glide_intrahb_reward>  (276) 
-0

>  <i_i_glide_confnum>  (276) 
2

>  <i_i_glide_posenum>  (276) 
6

>  <r_i_glide_eff_state_penalty>  (276) 
0

>  <ligand_id>  (276) 
90

>  <original_smiles>  (276) 
O=C1CC(Cn2cnnn2)C2CCc3cccnc3N12

>  <smiles>  (276) 
[H]c1nc2c(c([H])c1[H])C([H])([H])C([H])([H])C1([H])N2C(=O)C([H])([H])C1([H])C([H])([H])n1nnnc1[H]

$$$$
91:0:0
     RDKit          3D

 34 36  0  0  1  0  0  0  0  0999 V2000
    4.1436   -3.1341    2.6692 C   0  0  0  0  0  0  0  0  0  0  0  0
    3.6645   -2.8454    1.2239 C   0  0  2  0  0  0  0  0  0  0  0  0
    3.2697   -4.1312    0.4928 C   0  0  1  0  0  0  0  0  0  0  0  0
    2.4279   -3.7701   -0.7330 C   0  0  0  0  0  0  0  0  0  0  0  0
    3.0704   -2.7297   -1.6247 C   0  0  0  0  0  0  0  0  0  0  0  0
    2.6174   -2.6134   -2.9506 C   0  0  0  0  0  0  0  0  0  0  0  0
    3.1693   -1.6305   -3.7894 C   0  0  0  0  0  0  0  0  0  0  0  0
    4.1797   -0.7888   -3.3136 C   0  0  0  0  0  0  0  0  0  0  0  0
    4.6399   -0.9128   -1.9928 C   0  0  0  0  0  0  0  0  0  0  0  0
    4.0839   -1.8708   -1.1201 C   0  0  0  0  0  0  0  0  0  0  0  0
    4.6450   -2.0560    0.3095 C   0  0  1  0  0  0  0  0  0  0  0  0
    5.0072   -0.6964    0.9591 C   0  0  0  0  0  0  0  0  0  0  0  0
    5.8474   -2.8861    0.2581 N   0  0  0  0  0  0  0  0  0  0  0  0
    5.6339   -4.1719   -0.4149 C   0  0  0  0  0  0  0  0  0  0  0  0
    4.4764   -4.9229    0.1359 N   0  0  0  0  0  0  0  0  0  0  0  0
    5.0817   -3.6910    2.7004 H   0  0  0  0  0  0  0  0  0  0  0  0
    3.3993   -3.7194    3.2105 H   0  0  0  0  0  0  0  0  0  0  0  0
    4.2825   -2.2184    3.2433 H   0  0  0  0  0  0  0  0  0  0  0  0
    2.7619   -2.2426    1.3284 H   0  0  0  0  0  0  0  0  0  0  0  0
    2.6552   -4.7571    1.1418 H   0  0  0  0  0  0  0  0  0  0  0  0
    2.1462   -4.6513   -1.3001 H   0  0  0  0  0  0  0  0  0  0  0  0
    1.4892   -3.3339   -0.4077 H   0  0  0  0  0  0  0  0  0  0  0  0
    1.8220   -3.2490   -3.3177 H   0  0  0  0  0  0  0  0  0  0  0  0
    2.8109   -1.5098   -4.7938 H   0  0  0  0  0  0  0  0  0  0  0  0
    4.5964   -0.0408   -3.9679 H   0  0  0  0  0  0  0  0  0  0  0  0
    5.4239   -0.2543   -1.6660 H   0  0  0  0  0  0  0  0  0  0  0  0
    4.1269   -0.0547    1.0105 H   0  0  0  0  0  0  0  0  0  0  0  0
    5.7763   -0.1529    0.4156 H   0  0  0  0  0  0  0  0  0  0  0  0
    5.3898   -0.8071    1.9721 H   0  0  0  0  0  0  0  0  0  0  0  0
    6.6066   -2.3809   -0.1690 H   0  0  0  0  0  0  0  0  0  0  0  0
    5.5131   -4.0334   -1.4915 H   0  0  0  0  0  0  0  0  0  0  0  0
    6.5266   -4.7808   -0.2752 H   0  0  0  0  0  0  0  0  0  0  0  0
    4.7901   -5.3872    0.9767 H   0  0  0  0  0  0  0  0  0  0  0  0
    4.2036   -5.6218   -0.5438 H   0  0  0  0  0  0  0  0  0  0  0  0
  1  2  1  0
  1 16  1  0
  1 17  1  0
  1 18  1  0
  2 11  1  0
  2  3  1  0
  2 19  1  1
  3 15  1  0
  3  4  1  0
  3 20  1  1
  4  5  1  0
  4 21  1  0
  4 22  1  0
  5 10  2  0
  5  6  1  0
  6  7  2  0
  6 23  1  0
  7  8  1  0
  7 24  1  0
  8  9  2  0
  8 25  1  0
  9 10  1  0
  9 26  1  0
 10 11  1  0
 11 12  1  1
 11 13  1  0
 12 27  1  0
 12 28  1  0
 12 29  1  0
 13 14  1  0
 13 30  1  0
 14 15  1  0
 14 31  1  0
 14 32  1  0
 15 33  1  0
 15 34  1  0
M  CHG  1  15   1
M  END
>  <i_m_ct_stereo_status>  (277) 
1

>  <s_m_source_file>  (277) 
/var/tmp/pbs.5076255.sched01/tmpbnv9a_8s/88lo2bg1ru.sdf

>  <i_m_source_file_index>  (277) 
44

>  <i_lp_mmshare_version>  (277) 
48012

>  <i_f3d_flags>  (277) 
0

>  <s_epik_input>  (277) 
W05IXTFbQ0gyXVtOSF1bQ0BASF0oW0NASF0yW0NIM10pW0NIMl1jKGMzW0NAXTEyW0NIM10pW2NIXVtjSF1bY0hdW2NIXTM=

>  <s_epik_cmdline>  (277) 
J2VwaWtfcHl0aG9uJywgJy1waHQnLCAnMi4wJywgJy1waCcsICc3LjAnLCAnLXRuJywgJzgnLCAnLW1hJywgJzIwMCcsICctaW1hZScsICc8aW5maWxlLm1hZT4nLCAnLW9tYWUnLCAnPG91dGZpbGUubWFlPic=

>  <r_epik_Ionization_Penalty>  (277) 
0.0258927

>  <r_epik_Ionization_Penalty_Charging>  (277) 
0.0258906

>  <r_epik_Ionization_Penalty_Neutral>  (277) 
2.13095e-06

>  <r_epik_State_Penalty>  (277) 
0.140552

>  <r_epik_Charging_Adjusted_Penalty>  (277) 
0.166442

>  <i_epik_Tot_Q>  (277) 
1

>  <i_epik_Tot_abs_Q>  (277) 
1

>  <s_epik_Chemistry_Notes>  (277) 
This compound contains an acetal/aminal-like group ( X-CH(R)-Y where X, Y are N, S, or O) that may be acid/base labile, releasing an aldehyde.

>  <s_lp_Force_Field>  (277) 
OPLS3e

>  <r_lp_Energy>  (277) 
34.8264

>  <b_lp_Chiralities_Consistent>  (277) 
1

>  <s_lp_Variant>  (277) 
91:0-1

>  <s_i_glide_gridfile>  (277) 
pfpi4k_grid

>  <i_i_glide_lignum>  (277) 
44

>  <i_i_glide_rotatable_bonds>  (277) 
0

>  <r_i_docking_score>  (277) 
-3.89842

>  <r_i_glide_ligand_efficiency>  (277) 
-0.259895

>  <r_i_glide_ligand_efficiency_sa>  (277) 
-0.640955

>  <r_i_glide_ligand_efficiency_ln>  (277) 
-1.05134

>  <r_i_glide_gscore>  (277) 
-3.89842

>  <r_i_glide_lipo>  (277) 
-0.500771

>  <r_i_glide_hbond>  (277) 
0

>  <r_i_glide_metal>  (277) 
-0

>  <r_i_glide_rewards>  (277) 
-2.08989

>  <r_i_glide_evdw>  (277) 
-18.5479

>  <r_i_glide_ecoul>  (277) 
-2.53574

>  <r_i_glide_erotb>  (277) 
0

>  <r_i_glide_esite>  (277) 
0

>  <r_i_glide_emodel>  (277) 
-25.2748

>  <r_i_glide_energy>  (277) 
-21.0837

>  <r_i_glide_einternal>  (277) 
0

>  <r_i_glide_intrahb_reward>  (277) 
-0

>  <i_i_glide_confnum>  (277) 
2

>  <i_i_glide_posenum>  (277) 
4

>  <r_i_glide_eff_state_penalty>  (277) 
0

>  <ligand_id>  (277) 
91

>  <original_smiles>  (277) 
CC1C2Cc3ccccc3C1(C)NCN2

>  <smiles>  (277) 
[H]c1c([H])c([H])c2c(c1[H])C([H])([H])C1([H])C([H])(C([H])([H])[H])C2(C([H])([H])[H])N([H])C([H])([H])[N+]1([H])[H]

$$$$
91:1:0
     RDKit          3D

 34 36  0  0  1  0  0  0  0  0999 V2000
    3.7607   -2.1434    2.9686 C   0  0  0  0  0  0  0  0  0  0  0  0
    3.4967   -2.3070    1.4522 C   0  0  2  0  0  0  0  0  0  0  0  0
    3.2499   -3.7812    1.0810 C   0  0  1  0  0  0  0  0  0  0  0  0
    2.6876   -3.9157   -0.3474 C   0  0  0  0  0  0  0  0  0  0  0  0
    3.2433   -2.9235   -1.3548 C   0  0  0  0  0  0  0  0  0  0  0  0
    2.8349   -3.0578   -2.6973 C   0  0  0  0  0  0  0  0  0  0  0  0
    3.3247   -2.1928   -3.6844 C   0  0  0  0  0  0  0  0  0  0  0  0
    4.2129   -1.1706   -3.3244 C   0  0  0  0  0  0  0  0  0  0  0  0
    4.6143   -1.0218   -1.9816 C   0  0  0  0  0  0  0  0  0  0  0  0
    4.1294   -1.8800   -0.9698 C   0  0  0  0  0  0  0  0  0  0  0  0
    4.5877   -1.7437    0.5015 C   0  0  1  0  0  0  0  0  0  0  0  0
    4.9360   -0.2819    0.8786 C   0  0  0  0  0  0  0  0  0  0  0  0
    5.8057   -2.5641    0.6813 N   0  0  0  0  0  0  0  0  0  0  0  0
    5.6189   -4.0194    0.4697 C   0  0  0  0  0  0  0  0  0  0  0  0
    4.4931   -4.5390    1.2462 N   0  0  0  0  0  0  0  0  0  0  0  0
    4.7262   -2.5511    3.2708 H   0  0  0  0  0  0  0  0  0  0  0  0
    2.9936   -2.6576    3.5508 H   0  0  0  0  0  0  0  0  0  0  0  0
    3.7249   -1.0971    3.2730 H   0  0  0  0  0  0  0  0  0  0  0  0
    2.5694   -1.7642    1.2542 H   0  0  0  0  0  0  0  0  0  0  0  0
    2.5304   -4.2256    1.7727 H   0  0  0  0  0  0  0  0  0  0  0  0
    2.7969   -4.9377   -0.7115 H   0  0  0  0  0  0  0  0  0  0  0  0
    1.6206   -3.7193   -0.3321 H   0  0  0  0  0  0  0  0  0  0  0  0
    2.1527   -3.8502   -2.9811 H   0  0  0  0  0  0  0  0  0  0  0  0
    3.0286   -2.3337   -4.7122 H   0  0  0  0  0  0  0  0  0  0  0  0
    4.5957   -0.5043   -4.0819 H   0  0  0  0  0  0  0  0  0  0  0  0
    5.3078   -0.2310   -1.7532 H   0  0  0  0  0  0  0  0  0  0  0  0
    4.0815    0.3840    0.7393 H   0  0  0  0  0  0  0  0  0  0  0  0
    5.7648    0.1091    0.2902 H   0  0  0  0  0  0  0  0  0  0  0  0
    5.2633   -0.1933    1.9149 H   0  0  0  0  0  0  0  0  0  0  0  0
    6.4983   -2.2413    0.0255 H   0  0  0  0  0  0  0  0  0  0  0  0
    5.4857   -4.2373   -0.5903 H   0  0  0  0  0  0  0  0  0  0  0  0
    6.5259   -4.5337    0.7855 H   0  0  0  0  0  0  0  0  0  0  0  0
    4.7328   -4.5932    2.2266 H   0  0  0  0  0  0  0  0  0  0  0  0
    6.1416   -2.4083    1.6191 H   0  0  0  0  0  0  0  0  0  0  0  0
  1  2  1  0
  1 16  1  0
  1 17  1  0
  1 18  1  0
  2 11  1  0
  2  3  1  0
  2 19  1  6
  3 15  1  0
  3  4  1  0
  3 20  1  1
  4  5  1  0
  4 21  1  0
  4 22  1  0
  5 10  2  0
  5  6  1  0
  6  7  2  0
  6 23  1  0
  7  8  1  0
  7 24  1  0
  8  9  2  0
  8 25  1  0
  9 10  1  0
  9 26  1  0
 10 11  1  0
 11 12  1  1
 11 13  1  0
 12 27  1  0
 12 28  1  0
 12 29  1  0
 13 14  1  0
 13 30  1  0
 13 34  1  0
 14 15  1  0
 14 31  1  0
 14 32  1  0
 15 33  1  0
M  CHG  1  13   1
M  END
>  <i_m_ct_stereo_status>  (278) 
1

>  <s_m_source_file>  (278) 
/var/tmp/pbs.5076255.sched01/tmphrhi8tfx/132_dydaaau.sdf

>  <i_m_source_file_index>  (278) 
1

>  <i_lp_mmshare_version>  (278) 
48012

>  <i_f3d_flags>  (278) 
0

>  <s_epik_input>  (278) 
W05IXTFbQ0gyXVtOSF1bQ0BASF0oW0NASF0yW0NIM10pW0NIMl1jKGMzW0NAXTEyW0NIM10pW2NIXVtjSF1bY0hdW2NIXTM=

>  <s_epik_cmdline>  (278) 
J2VwaWtfcHl0aG9uJywgJy1waHQnLCAnMi4wJywgJy1waCcsICc3LjAnLCAnLXRuJywgJzgnLCAnLW1hJywgJzIwMCcsICctaW1hZScsICc8aW5maWxlLm1hZT4nLCAnLW9tYWUnLCAnPG91dGZpbGUubWFlPic=

>  <r_epik_Ionization_Penalty>  (278) 
0.0960686

>  <r_epik_Ionization_Penalty_Charging>  (278) 
0.096061

>  <r_epik_Ionization_Penalty_Neutral>  (278) 
7.63825e-06

>  <r_epik_State_Penalty>  (278) 
1.00755

>  <r_epik_Charging_Adjusted_Penalty>  (278) 
1.10361

>  <i_epik_Tot_Q>  (278) 
1

>  <i_epik_Tot_abs_Q>  (278) 
1

>  <s_epik_Chemistry_Notes>  (278) 
This compound contains an acetal/aminal-like group ( X-CH(R)-Y where X, Y are N, S, or O) that may be acid/base labile, releasing an aldehyde.

>  <s_lp_Force_Field>  (278) 
OPLS3e

>  <r_lp_Energy>  (278) 
33.1223

>  <b_lp_Chiralities_Consistent>  (278) 
1

>  <s_lp_Variant>  (278) 
91:0-2

>  <s_i_glide_gridfile>  (278) 
pfpi4k_grid

>  <i_i_glide_lignum>  (278) 
1

>  <i_i_glide_rotatable_bonds>  (278) 
0

>  <r_i_docking_score>  (278) 
-3.82861

>  <r_i_glide_ligand_efficiency>  (278) 
-0.25524

>  <r_i_glide_ligand_efficiency_sa>  (278) 
-0.629477

>  <r_i_glide_ligand_efficiency_ln>  (278) 
-1.03251

>  <r_i_glide_gscore>  (278) 
-3.82861

>  <r_i_glide_lipo>  (278) 
-0.5022

>  <r_i_glide_hbond>  (278) 
0

>  <r_i_glide_metal>  (278) 
-0

>  <r_i_glide_rewards>  (278) 
-2.11506

>  <r_i_glide_evdw>  (278) 
-20.0321

>  <r_i_glide_ecoul>  (278) 
-1.39825

>  <r_i_glide_erotb>  (278) 
0

>  <r_i_glide_esite>  (278) 
0

>  <r_i_glide_emodel>  (278) 
-25.5183

>  <r_i_glide_energy>  (278) 
-21.4303

>  <r_i_glide_einternal>  (278) 
0

>  <r_i_glide_intrahb_reward>  (278) 
-0

>  <i_i_glide_confnum>  (278) 
2

>  <i_i_glide_posenum>  (278) 
29

>  <r_i_glide_eff_state_penalty>  (278) 
0

>  <ligand_id>  (278) 
91

>  <original_smiles>  (278) 
CC1C2Cc3ccccc3C1(C)NCN2

>  <smiles>  (278) 
[H]c1c([H])c([H])c2c(c1[H])C([H])([H])C1([H])N([H])C([H])([H])[N+]([H])([H])C2(C([H])([H])[H])C1([H])C([H])([H])[H]

$$$$
91:1:1
     RDKit          3D

 34 36  0  0  1  0  0  0  0  0999 V2000
    6.7122   -3.2911    1.3676 C   0  0  0  0  0  0  0  0  0  0  0  0
    5.7961   -2.5879    0.3666 C   0  0  2  0  0  0  0  0  0  0  0  0
    4.3672   -2.5043    0.9133 C   0  0  1  0  0  0  0  0  0  0  0  0
    3.5339   -1.5596    0.0540 C   0  0  0  0  0  0  0  0  0  0  0  0
    3.8186   -1.6053   -1.4470 C   0  0  0  0  0  0  0  0  0  0  0  0
    3.0170   -0.8618   -2.3167 C   0  0  0  0  0  0  0  0  0  0  0  0
    3.1876   -0.8371   -3.7043 C   0  0  0  0  0  0  0  0  0  0  0  0
    4.2167   -1.6022   -4.2156 C   0  0  0  0  0  0  0  0  0  0  0  0
    4.9952   -2.4398   -3.3834 C   0  0  0  0  0  0  0  0  0  0  0  0
    4.8632   -2.3991   -1.9767 C   0  0  0  0  0  0  0  0  0  0  0  0
    5.7733   -3.1971   -1.0458 C   0  0  1  0  0  0  0  0  0  0  0  0
    7.2210   -3.2913   -1.5772 C   0  0  0  0  0  0  0  0  0  0  0  0
    5.1691   -4.5387   -0.9271 N   0  0  0  0  0  0  0  0  0  0  0  0
    3.8239   -4.5533   -0.2996 C   0  0  0  0  0  0  0  0  0  0  0  0
    3.7903   -3.8493    0.9619 N   0  0  0  0  0  0  0  0  0  0  0  0
    6.5202   -4.3606    1.4721 H   0  0  0  0  0  0  0  0  0  0  0  0
    6.5595   -2.8291    2.3385 H   0  0  0  0  0  0  0  0  0  0  0  0
    7.7640   -3.1407    1.1239 H   0  0  0  0  0  0  0  0  0  0  0  0
    6.1647   -1.5631    0.2837 H   0  0  0  0  0  0  0  0  0  0  0  0
    4.3536   -2.1206    1.9394 H   0  0  0  0  0  0  0  0  0  0  0  0
    2.4869   -1.7781    0.2434 H   0  0  0  0  0  0  0  0  0  0  0  0
    3.7109   -0.5367    0.3712 H   0  0  0  0  0  0  0  0  0  0  0  0
    2.2437   -0.2563   -1.9257 H   0  0  0  0  0  0  0  0  0  0  0  0
    2.5709   -0.2055   -4.3270 H   0  0  0  0  0  0  0  0  0  0  0  0
    4.4286   -1.4122   -5.2555 H   0  0  0  0  0  0  0  0  0  0  0  0
    5.7867   -3.0194   -3.8043 H   0  0  0  0  0  0  0  0  0  0  0  0
    7.7086   -2.3224   -1.6709 H   0  0  0  0  0  0  0  0  0  0  0  0
    7.2519   -3.8066   -2.5495 H   0  0  0  0  0  0  0  0  0  0  0  0
    7.8523   -3.9051   -0.9382 H   0  0  0  0  0  0  0  0  0  0  0  0
    5.0568   -4.9060   -1.8613 H   0  0  0  0  0  0  0  0  0  0  0  0
    3.0875   -4.1485   -0.9986 H   0  0  0  0  0  0  0  0  0  0  0  0
    3.5516   -5.5845   -0.1459 H   0  0  0  0  0  0  0  0  0  0  0  0
    4.2613   -4.3902    1.6645 H   0  0  0  0  0  0  0  0  0  0  0  0
    5.7915   -5.1178   -0.3808 H   0  0  0  0  0  0  0  0  0  0  0  0
  1  2  1  0
  1 16  1  0
  1 17  1  0
  1 18  1  0
  2 11  1  0
  2  3  1  0
  2 19  1  6
  3 15  1  0
  3  4  1  0
  3 20  1  1
  4  5  1  0
  4 21  1  0
  4 22  1  0
  5 10  2  0
  5  6  1  0
  6  7  2  0
  6 23  1  0
  7  8  1  0
  7 24  1  0
  8  9  2  0
  8 25  1  0
  9 10  1  0
  9 26  1  0
 10 11  1  0
 11 12  1  6
 11 13  1  0
 12 27  1  0
 12 28  1  0
 12 29  1  0
 13 14  1  0
 13 30  1  0
 13 34  1  0
 14 15  1  0
 14 31  1  0
 14 32  1  0
 15 33  1  0
M  CHG  1  13   1
M  END
>  <i_m_ct_stereo_status>  (279) 
1

>  <s_m_source_file>  (279) 
/var/tmp/pbs.5076255.sched01/tmphrhi8tfx/132_dydaaau.sdf

>  <i_m_source_file_index>  (279) 
1

>  <i_lp_mmshare_version>  (279) 
48012

>  <i_f3d_flags>  (279) 
0

>  <s_epik_input>  (279) 
W05IXTFbQ0gyXVtOSF1bQ0BASF0oW0NASF0yW0NIM10pW0NIMl1jKGMzW0NAXTEyW0NIM10pW2NIXVtjSF1bY0hdW2NIXTM=

>  <s_epik_cmdline>  (279) 
J2VwaWtfcHl0aG9uJywgJy1waHQnLCAnMi4wJywgJy1waCcsICc3LjAnLCAnLXRuJywgJzgnLCAnLW1hJywgJzIwMCcsICctaW1hZScsICc8aW5maWxlLm1hZT4nLCAnLW9tYWUnLCAnPG91dGZpbGUubWFlPic=

>  <r_epik_Ionization_Penalty>  (279) 
0.0960686

>  <r_epik_Ionization_Penalty_Charging>  (279) 
0.096061

>  <r_epik_Ionization_Penalty_Neutral>  (279) 
7.63825e-06

>  <r_epik_State_Penalty>  (279) 
1.00755

>  <r_epik_Charging_Adjusted_Penalty>  (279) 
1.10361

>  <i_epik_Tot_Q>  (279) 
1

>  <i_epik_Tot_abs_Q>  (279) 
1

>  <s_epik_Chemistry_Notes>  (279) 
This compound contains an acetal/aminal-like group ( X-CH(R)-Y where X, Y are N, S, or O) that may be acid/base labile, releasing an aldehyde.

>  <s_lp_Force_Field>  (279) 
OPLS3e

>  <r_lp_Energy>  (279) 
33.1223

>  <b_lp_Chiralities_Consistent>  (279) 
1

>  <s_lp_Variant>  (279) 
91:0-2

>  <s_i_glide_gridfile>  (279) 
pfpi4k_grid

>  <i_i_glide_lignum>  (279) 
1

>  <i_i_glide_rotatable_bonds>  (279) 
0

>  <r_i_docking_score>  (279) 
-3.1191

>  <r_i_glide_ligand_efficiency>  (279) 
-0.20794

>  <r_i_glide_ligand_efficiency_sa>  (279) 
-0.512824

>  <r_i_glide_ligand_efficiency_ln>  (279) 
-0.841169

>  <r_i_glide_gscore>  (279) 
-3.1191

>  <r_i_glide_lipo>  (279) 
-0.525863

>  <r_i_glide_hbond>  (279) 
0

>  <r_i_glide_metal>  (279) 
-0

>  <r_i_glide_rewards>  (279) 
-2.02293

>  <r_i_glide_evdw>  (279) 
-5.41683

>  <r_i_glide_ecoul>  (279) 
-1.79395

>  <r_i_glide_erotb>  (279) 
0

>  <r_i_glide_esite>  (279) 
-0.0303698

>  <r_i_glide_emodel>  (279) 
-9.63644

>  <r_i_glide_energy>  (279) 
-7.21079

>  <r_i_glide_einternal>  (279) 
0

>  <r_i_glide_intrahb_reward>  (279) 
-0

>  <i_i_glide_confnum>  (279) 
2

>  <i_i_glide_posenum>  (279) 
13

>  <r_i_glide_eff_state_penalty>  (279) 
0

>  <ligand_id>  (279) 
91

>  <original_smiles>  (279) 
CC1C2Cc3ccccc3C1(C)NCN2

>  <smiles>  (279) 
[H]c1c([H])c([H])c2c(c1[H])C([H])([H])C1([H])N([H])C([H])([H])[N+]([H])([H])C2(C([H])([H])[H])C1([H])C([H])([H])[H]

$$$$
91:2:0
     RDKit          3D

 33 35  0  0  1  0  0  0  0  0999 V2000
    5.1645   -2.7949    2.5447 C   0  0  0  0  0  0  0  0  0  0  0  0
    4.7914   -2.8958    1.0466 C   0  0  2  0  0  0  0  0  0  0  0  0
    5.4477   -4.1140    0.3862 C   0  0  1  0  0  0  0  0  0  0  0  0
    4.8029   -4.3939   -0.9808 C   0  0  0  0  0  0  0  0  0  0  0  0
    4.4465   -3.1671   -1.8005 C   0  0  0  0  0  0  0  0  0  0  0  0
    3.9739   -3.3489   -3.1183 C   0  0  0  0  0  0  0  0  0  0  0  0
    3.6380   -2.2490   -3.9194 C   0  0  0  0  0  0  0  0  0  0  0  0
    3.8112   -0.9494   -3.4271 C   0  0  0  0  0  0  0  0  0  0  0  0
    4.2857   -0.7700   -2.1159 C   0  0  0  0  0  0  0  0  0  0  0  0
    4.5803   -1.8614   -1.2703 C   0  0  0  0  0  0  0  0  0  0  0  0
    5.0966   -1.6502    0.1683 C   0  0  1  0  0  0  0  0  0  0  0  0
    4.4680   -0.3954    0.8267 C   0  0  0  0  0  0  0  0  0  0  0  0
    6.5507   -1.4751    0.1579 N   0  0  0  0  0  0  0  0  0  0  0  0
    7.2611   -2.6447   -0.3770 C   0  0  0  0  0  0  0  0  0  0  0  0
    6.8933   -3.8904    0.2969 N   0  0  0  0  0  0  0  0  0  0  0  0
    6.2096   -2.5193    2.6871 H   0  0  0  0  0  0  0  0  0  0  0  0
    5.0085   -3.7525    3.0449 H   0  0  0  0  0  0  0  0  0  0  0  0
    4.5501   -2.0654    3.0734 H   0  0  0  0  0  0  0  0  0  0  0  0
    3.7106   -3.0539    1.0310 H   0  0  0  0  0  0  0  0  0  0  0  0
    5.3017   -5.0002    1.0076 H   0  0  0  0  0  0  0  0  0  0  0  0
    5.4164   -5.0722   -1.5735 H   0  0  0  0  0  0  0  0  0  0  0  0
    3.8723   -4.9230   -0.7879 H   0  0  0  0  0  0  0  0  0  0  0  0
    3.8571   -4.3331   -3.5299 H   0  0  0  0  0  0  0  0  0  0  0  0
    3.2541   -2.4078   -4.9133 H   0  0  0  0  0  0  0  0  0  0  0  0
    3.5737   -0.0944   -4.0424 H   0  0  0  0  0  0  0  0  0  0  0  0
    4.4181    0.2291   -1.7745 H   0  0  0  0  0  0  0  0  0  0  0  0
    3.3793   -0.4759    0.8443 H   0  0  0  0  0  0  0  0  0  0  0  0
    4.7074    0.5269    0.3062 H   0  0  0  0  0  0  0  0  0  0  0  0
    4.8083   -0.2401    1.8515 H   0  0  0  0  0  0  0  0  0  0  0  0
    6.8558   -1.2716    1.0997 H   0  0  0  0  0  0  0  0  0  0  0  0
    7.1010   -2.7360   -1.4531 H   0  0  0  0  0  0  0  0  0  0  0  0
    8.3310   -2.4971   -0.2473 H   0  0  0  0  0  0  0  0  0  0  0  0
    7.2827   -3.9133    1.2266 H   0  0  0  0  0  0  0  0  0  0  0  0
  1  2  1  0
  1 16  1  0
  1 17  1  0
  1 18  1  0
  2 11  1  0
  2  3  1  0
  2 19  1  1
  3 15  1  0
  3  4  1  0
  3 20  1  1
  4  5  1  0
  4 21  1  0
  4 22  1  0
  5 10  2  0
  5  6  1  0
  6  7  2  0
  6 23  1  0
  7  8  1  0
  7 24  1  0
  8  9  2  0
  8 25  1  0
  9 10  1  0
  9 26  1  0
 10 11  1  0
 11 12  1  1
 11 13  1  0
 12 27  1  0
 12 28  1  0
 12 29  1  0
 13 14  1  0
 13 30  1  0
 14 15  1  0
 14 31  1  0
 14 32  1  0
 15 33  1  0
M  END
>  <i_m_ct_stereo_status>  (280) 
1

>  <s_m_source_file>  (280) 
/var/tmp/pbs.5076255.sched01/tmphrhi8tfx/132_dydaaau.sdf

>  <i_m_source_file_index>  (280) 
2

>  <i_lp_mmshare_version>  (280) 
48012

>  <i_f3d_flags>  (280) 
0

>  <s_epik_input>  (280) 
W05IXTFbQ0gyXVtOSF1bQ0BASF0oW0NASF0yW0NIM10pW0NIMl1jKGMzW0NAXTEyW0NIM10pW2NIXVtjSF1bY0hdW2NIXTM=

>  <s_epik_cmdline>  (280) 
J2VwaWtfcHl0aG9uJywgJy1waHQnLCAnMi4wJywgJy1waCcsICc3LjAnLCAnLXRuJywgJzgnLCAnLW1hJywgJzIwMCcsICctaW1hZScsICc8aW5maWxlLm1hZT4nLCAnLW9tYWUnLCAnPG91dGZpbGUubWFlPic=

>  <r_epik_Ionization_Penalty>  (280) 
2.99296

>  <r_epik_Ionization_Penalty_Charging>  (280) 
0

>  <r_epik_Ionization_Penalty_Neutral>  (280) 
2.99296

>  <r_epik_State_Penalty>  (280) 
2.10585

>  <r_epik_Charging_Adjusted_Penalty>  (280) 
2.10585

>  <i_epik_Tot_Q>  (280) 
0

>  <i_epik_Tot_abs_Q>  (280) 
0

>  <s_epik_Chemistry_Notes>  (280) 
This compound contains an acetal/aminal-like group ( X-CH(R)-Y where X, Y are N, S, or O) that may be acid/base labile, releasing an aldehyde.

>  <s_lp_Force_Field>  (280) 
OPLS3e

>  <r_lp_Energy>  (280) 
22.477

>  <b_lp_Chiralities_Consistent>  (280) 
1

>  <s_lp_Variant>  (280) 
91:0-3

>  <s_i_glide_gridfile>  (280) 
pfpi4k_grid

>  <i_i_glide_lignum>  (280) 
2

>  <i_i_glide_rotatable_bonds>  (280) 
0

>  <r_i_docking_score>  (280) 
-3.96748

>  <r_i_glide_ligand_efficiency>  (280) 
-0.264499

>  <r_i_glide_ligand_efficiency_sa>  (280) 
-0.652311

>  <r_i_glide_ligand_efficiency_ln>  (280) 
-1.06997

>  <r_i_glide_gscore>  (280) 
-3.96748

>  <r_i_glide_lipo>  (280) 
-0.604397

>  <r_i_glide_hbond>  (280) 
-0.0187453

>  <r_i_glide_metal>  (280) 
-0

>  <r_i_glide_rewards>  (280) 
-2.0298

>  <r_i_glide_evdw>  (280) 
-19.9925

>  <r_i_glide_ecoul>  (280) 
-2.0673

>  <r_i_glide_erotb>  (280) 
0

>  <r_i_glide_esite>  (280) 
-0.00481992

>  <r_i_glide_emodel>  (280) 
-27.4077

>  <r_i_glide_energy>  (280) 
-22.0598

>  <r_i_glide_einternal>  (280) 
0

>  <r_i_glide_intrahb_reward>  (280) 
-0

>  <i_i_glide_confnum>  (280) 
2

>  <i_i_glide_posenum>  (280) 
4

>  <r_i_glide_eff_state_penalty>  (280) 
0

>  <ligand_id>  (280) 
91

>  <original_smiles>  (280) 
CC1C2Cc3ccccc3C1(C)NCN2

>  <smiles>  (280) 
[H]c1c([H])c([H])c2c(c1[H])C([H])([H])C1([H])N([H])C([H])([H])N([H])C2(C([H])([H])[H])C1([H])C([H])([H])[H]

$$$$
91:2:1
     RDKit          3D

 33 35  0  0  1  0  0  0  0  0999 V2000
    4.7814   -2.5047    2.9359 C   0  0  0  0  0  0  0  0  0  0  0  0
    4.2366   -2.5838    1.4903 C   0  0  2  0  0  0  0  0  0  0  0  0
    4.0169   -4.0338    1.0481 C   0  0  1  0  0  0  0  0  0  0  0  0
    3.1731   -4.0964   -0.2380 C   0  0  0  0  0  0  0  0  0  0  0  0
    3.4564   -3.0015   -1.2553 C   0  0  0  0  0  0  0  0  0  0  0  0
    2.7928   -3.0564   -2.5022 C   0  0  0  0  0  0  0  0  0  0  0  0
    3.0638   -2.1077   -3.5012 C   0  0  0  0  0  0  0  0  0  0  0  0
    3.9888   -1.0819   -3.2508 C   0  0  0  0  0  0  0  0  0  0  0  0
    4.6326   -1.0126   -2.0019 C   0  0  0  0  0  0  0  0  0  0  0  0
    4.3657   -1.9478   -0.9774 C   0  0  0  0  0  0  0  0  0  0  0  0
    5.0746   -1.8699    0.3925 C   0  0  1  0  0  0  0  0  0  0  0  0
    5.3463   -0.4072    0.8143 C   0  0  0  0  0  0  0  0  0  0  0  0
    6.3682   -2.5512    0.3356 N   0  0  0  0  0  0  0  0  0  0  0  0
    6.2408   -3.9752    0.0079 C   0  0  0  0  0  0  0  0  0  0  0  0
    5.3218   -4.6838    0.8990 N   0  0  0  0  0  0  0  0  0  0  0  0
    5.8091   -2.8585    3.0157 H   0  0  0  0  0  0  0  0  0  0  0  0
    4.1807   -3.1172    3.6075 H   0  0  0  0  0  0  0  0  0  0  0  0
    4.7483   -1.4903    3.3313 H   0  0  0  0  0  0  0  0  0  0  0  0
    3.2580   -2.0986    1.5251 H   0  0  0  0  0  0  0  0  0  0  0  0
    3.4829   -4.5829    1.8234 H   0  0  0  0  0  0  0  0  0  0  0  0
    3.2717   -5.0726   -0.7080 H   0  0  0  0  0  0  0  0  0  0  0  0
    2.1264   -3.9882    0.0355 H   0  0  0  0  0  0  0  0  0  0  0  0
    2.0858   -3.8499   -2.7051 H   0  0  0  0  0  0  0  0  0  0  0  0
    2.5654   -2.1763   -4.4569 H   0  0  0  0  0  0  0  0  0  0  0  0
    4.2049   -0.3522   -4.0158 H   0  0  0  0  0  0  0  0  0  0  0  0
    5.3525   -0.2292   -1.8540 H   0  0  0  0  0  0  0  0  0  0  0  0
    4.4133    0.1574    0.8596 H   0  0  0  0  0  0  0  0  0  0  0  0
    6.0124    0.1058    0.1246 H   0  0  0  0  0  0  0  0  0  0  0  0
    5.8303   -0.3298    1.7875 H   0  0  0  0  0  0  0  0  0  0  0  0
    6.8354   -2.4418    1.2230 H   0  0  0  0  0  0  0  0  0  0  0  0
    5.9322   -4.1054   -1.0311 H   0  0  0  0  0  0  0  0  0  0  0  0
    7.2198   -4.4443    0.0915 H   0  0  0  0  0  0  0  0  0  0  0  0
    5.7445   -4.7990    1.8080 H   0  0  0  0  0  0  0  0  0  0  0  0
  1  2  1  0
  1 16  1  0
  1 17  1  0
  1 18  1  0
  2 11  1  0
  2  3  1  0
  2 19  1  1
  3 15  1  0
  3  4  1  0
  3 20  1  1
  4  5  1  0
  4 21  1  0
  4 22  1  0
  5 10  2  0
  5  6  1  0
  6  7  2  0
  6 23  1  0
  7  8  1  0
  7 24  1  0
  8  9  2  0
  8 25  1  0
  9 10  1  0
  9 26  1  0
 10 11  1  0
 11 12  1  1
 11 13  1  0
 12 27  1  0
 12 28  1  0
 12 29  1  0
 13 14  1  0
 13 30  1  0
 14 15  1  0
 14 31  1  0
 14 32  1  0
 15 33  1  0
M  END
>  <i_m_ct_stereo_status>  (281) 
1

>  <s_m_source_file>  (281) 
/var/tmp/pbs.5076255.sched01/tmphrhi8tfx/132_dydaaau.sdf

>  <i_m_source_file_index>  (281) 
2

>  <i_lp_mmshare_version>  (281) 
48012

>  <i_f3d_flags>  (281) 
0

>  <s_epik_input>  (281) 
W05IXTFbQ0gyXVtOSF1bQ0BASF0oW0NASF0yW0NIM10pW0NIMl1jKGMzW0NAXTEyW0NIM10pW2NIXVtjSF1bY0hdW2NIXTM=

>  <s_epik_cmdline>  (281) 
J2VwaWtfcHl0aG9uJywgJy1waHQnLCAnMi4wJywgJy1waCcsICc3LjAnLCAnLXRuJywgJzgnLCAnLW1hJywgJzIwMCcsICctaW1hZScsICc8aW5maWxlLm1hZT4nLCAnLW9tYWUnLCAnPG91dGZpbGUubWFlPic=

>  <r_epik_Ionization_Penalty>  (281) 
2.99296

>  <r_epik_Ionization_Penalty_Charging>  (281) 
0

>  <r_epik_Ionization_Penalty_Neutral>  (281) 
2.99296

>  <r_epik_State_Penalty>  (281) 
2.10585

>  <r_epik_Charging_Adjusted_Penalty>  (281) 
2.10585

>  <i_epik_Tot_Q>  (281) 
0

>  <i_epik_Tot_abs_Q>  (281) 
0

>  <s_epik_Chemistry_Notes>  (281) 
This compound contains an acetal/aminal-like group ( X-CH(R)-Y where X, Y are N, S, or O) that may be acid/base labile, releasing an aldehyde.

>  <s_lp_Force_Field>  (281) 
OPLS3e

>  <r_lp_Energy>  (281) 
22.477

>  <b_lp_Chiralities_Consistent>  (281) 
1

>  <s_lp_Variant>  (281) 
91:0-3

>  <s_i_glide_gridfile>  (281) 
pfpi4k_grid

>  <i_i_glide_lignum>  (281) 
2

>  <i_i_glide_rotatable_bonds>  (281) 
0

>  <r_i_docking_score>  (281) 
-3.93294

>  <r_i_glide_ligand_efficiency>  (281) 
-0.262196

>  <r_i_glide_ligand_efficiency_sa>  (281) 
-0.646631

>  <r_i_glide_ligand_efficiency_ln>  (281) 
-1.06065

>  <r_i_glide_gscore>  (281) 
-3.93294

>  <r_i_glide_lipo>  (281) 
-0.589888

>  <r_i_glide_hbond>  (281) 
0

>  <r_i_glide_metal>  (281) 
-0

>  <r_i_glide_rewards>  (281) 
-2.13157

>  <r_i_glide_evdw>  (281) 
-21.5753

>  <r_i_glide_ecoul>  (281) 
-0.88475

>  <r_i_glide_erotb>  (281) 
0

>  <r_i_glide_esite>  (281) 
0

>  <r_i_glide_emodel>  (281) 
-27.7571

>  <r_i_glide_energy>  (281) 
-22.4601

>  <r_i_glide_einternal>  (281) 
0

>  <r_i_glide_intrahb_reward>  (281) 
-0

>  <i_i_glide_confnum>  (281) 
1

>  <i_i_glide_posenum>  (281) 
34

>  <r_i_glide_eff_state_penalty>  (281) 
0

>  <ligand_id>  (281) 
91

>  <original_smiles>  (281) 
CC1C2Cc3ccccc3C1(C)NCN2

>  <smiles>  (281) 
[H]c1c([H])c([H])c2c(c1[H])C([H])([H])C1([H])N([H])C([H])([H])N([H])C2(C([H])([H])[H])C1([H])C([H])([H])[H]

$$$$
91:2:2
     RDKit          3D

 33 35  0  0  1  0  0  0  0  0999 V2000
    5.2812   -4.1204    2.3813 C   0  0  0  0  0  0  0  0  0  0  0  0
    5.0729   -3.2953    1.0897 C   0  0  2  0  0  0  0  0  0  0  0  0
    5.2452   -1.7930    1.3427 C   0  0  1  0  0  0  0  0  0  0  0  0
    5.3654   -1.0193    0.0194 C   0  0  0  0  0  0  0  0  0  0  0  0
    4.4883   -1.5300   -1.1145 C   0  0  0  0  0  0  0  0  0  0  0  0
    4.4557   -0.7980   -2.3185 C   0  0  0  0  0  0  0  0  0  0  0  0
    3.6301   -1.1956   -3.3851 C   0  0  0  0  0  0  0  0  0  0  0  0
    2.8167   -2.3307   -3.2418 C   0  0  0  0  0  0  0  0  0  0  0  0
    2.8419   -3.0633   -2.0433 C   0  0  0  0  0  0  0  0  0  0  0  0
    3.6938   -2.6995   -0.9701 C   0  0  0  0  0  0  0  0  0  0  0  0
    3.7232   -3.5054    0.3481 C   0  0  1  0  0  0  0  0  0  0  0  0
    3.4883   -5.0139    0.1028 C   0  0  0  0  0  0  0  0  0  0  0  0
    2.6748   -3.0485    1.2612 N   0  0  0  0  0  0  0  0  0  0  0  0
    2.8128   -1.6329    1.6194 C   0  0  0  0  0  0  0  0  0  0  0  0
    4.1324   -1.3194    2.1695 N   0  0  0  0  0  0  0  0  0  0  0  0
    4.4748   -3.9840    3.1032 H   0  0  0  0  0  0  0  0  0  0  0  0
    6.2068   -3.8304    2.8733 H   0  0  0  0  0  0  0  0  0  0  0  0
    5.3650   -5.1869    2.1787 H   0  0  0  0  0  0  0  0  0  0  0  0
    5.8723   -3.6125    0.4162 H   0  0  0  0  0  0  0  0  0  0  0  0
    6.1557   -1.6154    1.9148 H   0  0  0  0  0  0  0  0  0  0  0  0
    5.1859    0.0435    0.1830 H   0  0  0  0  0  0  0  0  0  0  0  0
    6.3919   -1.1147   -0.3279 H   0  0  0  0  0  0  0  0  0  0  0  0
    5.0464    0.0987   -2.4181 H   0  0  0  0  0  0  0  0  0  0  0  0
    3.5876   -0.6092   -4.2950 H   0  0  0  0  0  0  0  0  0  0  0  0
    2.1447   -2.6251   -4.0369 H   0  0  0  0  0  0  0  0  0  0  0  0
    2.1735   -3.9027   -1.9586 H   0  0  0  0  0  0  0  0  0  0  0  0
    4.2398   -5.4113   -0.5824 H   0  0  0  0  0  0  0  0  0  0  0  0
    2.5061   -5.2150   -0.3176 H   0  0  0  0  0  0  0  0  0  0  0  0
    3.5308   -5.6033    1.0175 H   0  0  0  0  0  0  0  0  0  0  0  0
    2.6826   -3.6209    2.0909 H   0  0  0  0  0  0  0  0  0  0  0  0
    2.5969   -0.9951    0.7607 H   0  0  0  0  0  0  0  0  0  0  0  0
    2.0628   -1.3878    2.3692 H   0  0  0  0  0  0  0  0  0  0  0  0
    4.2122   -1.7127    3.0942 H   0  0  0  0  0  0  0  0  0  0  0  0
  1  2  1  0
  1 16  1  0
  1 17  1  0
  1 18  1  0
  2 11  1  0
  2  3  1  0
  2 19  1  6
  3 15  1  0
  3  4  1  0
  3 20  1  1
  4  5  1  0
  4 21  1  0
  4 22  1  0
  5 10  2  0
  5  6  1  0
  6  7  2  0
  6 23  1  0
  7  8  1  0
  7 24  1  0
  8  9  2  0
  8 25  1  0
  9 10  1  0
  9 26  1  0
 10 11  1  0
 11 12  1  6
 11 13  1  0
 12 27  1  0
 12 28  1  0
 12 29  1  0
 13 14  1  0
 13 30  1  0
 14 15  1  0
 14 31  1  0
 14 32  1  0
 15 33  1  0
M  END
>  <i_m_ct_stereo_status>  (282) 
1

>  <s_m_source_file>  (282) 
/var/tmp/pbs.5076255.sched01/tmphrhi8tfx/132_dydaaau.sdf

>  <i_m_source_file_index>  (282) 
2

>  <i_lp_mmshare_version>  (282) 
48012

>  <i_f3d_flags>  (282) 
0

>  <s_epik_input>  (282) 
W05IXTFbQ0gyXVtOSF1bQ0BASF0oW0NASF0yW0NIM10pW0NIMl1jKGMzW0NAXTEyW0NIM10pW2NIXVtjSF1bY0hdW2NIXTM=

>  <s_epik_cmdline>  (282) 
J2VwaWtfcHl0aG9uJywgJy1waHQnLCAnMi4wJywgJy1waCcsICc3LjAnLCAnLXRuJywgJzgnLCAnLW1hJywgJzIwMCcsICctaW1hZScsICc8aW5maWxlLm1hZT4nLCAnLW9tYWUnLCAnPG91dGZpbGUubWFlPic=

>  <r_epik_Ionization_Penalty>  (282) 
2.99296

>  <r_epik_Ionization_Penalty_Charging>  (282) 
0

>  <r_epik_Ionization_Penalty_Neutral>  (282) 
2.99296

>  <r_epik_State_Penalty>  (282) 
2.10585

>  <r_epik_Charging_Adjusted_Penalty>  (282) 
2.10585

>  <i_epik_Tot_Q>  (282) 
0

>  <i_epik_Tot_abs_Q>  (282) 
0

>  <s_epik_Chemistry_Notes>  (282) 
This compound contains an acetal/aminal-like group ( X-CH(R)-Y where X, Y are N, S, or O) that may be acid/base labile, releasing an aldehyde.

>  <s_lp_Force_Field>  (282) 
OPLS3e

>  <r_lp_Energy>  (282) 
22.477

>  <b_lp_Chiralities_Consistent>  (282) 
1

>  <s_lp_Variant>  (282) 
91:0-3

>  <s_i_glide_gridfile>  (282) 
pfpi4k_grid

>  <i_i_glide_lignum>  (282) 
2

>  <i_i_glide_rotatable_bonds>  (282) 
0

>  <r_i_docking_score>  (282) 
-3.47214

>  <r_i_glide_ligand_efficiency>  (282) 
-0.231476

>  <r_i_glide_ligand_efficiency_sa>  (282) 
-0.570868

>  <r_i_glide_ligand_efficiency_ln>  (282) 
-0.936378

>  <r_i_glide_gscore>  (282) 
-3.47214

>  <r_i_glide_lipo>  (282) 
-0.412251

>  <r_i_glide_hbond>  (282) 
0

>  <r_i_glide_metal>  (282) 
-0

>  <r_i_glide_rewards>  (282) 
-2.0298

>  <r_i_glide_evdw>  (282) 
-20.7422

>  <r_i_glide_ecoul>  (282) 
0.298679

>  <r_i_glide_erotb>  (282) 
0

>  <r_i_glide_esite>  (282) 
-0.0377714

>  <r_i_glide_emodel>  (282) 
-25.1584

>  <r_i_glide_energy>  (282) 
-20.4435

>  <r_i_glide_einternal>  (282) 
0

>  <r_i_glide_intrahb_reward>  (282) 
-0

>  <i_i_glide_confnum>  (282) 
1

>  <i_i_glide_posenum>  (282) 
9

>  <r_i_glide_eff_state_penalty>  (282) 
0

>  <ligand_id>  (282) 
91

>  <original_smiles>  (282) 
CC1C2Cc3ccccc3C1(C)NCN2

>  <smiles>  (282) 
[H]c1c([H])c([H])c2c(c1[H])C([H])([H])C1([H])N([H])C([H])([H])N([H])C2(C([H])([H])[H])C1([H])C([H])([H])[H]

$$$$
93:0:0
     RDKit          3D

 26 29  0  0  1  0  0  0  0  0999 V2000
    1.7118   -9.4632    2.5864 C   0  0  0  0  0  0  0  0  0  0  0  0
    3.0008   -9.7491    2.0926 C   0  0  0  0  0  0  0  0  0  0  0  0
    3.8142   -8.7073    1.6045 C   0  0  0  0  0  0  0  0  0  0  0  0
    3.3473   -7.3755    1.6068 C   0  0  0  0  0  0  0  0  0  0  0  0
    4.1783   -6.3387    1.1241 N   0  0  0  0  0  0  0  0  0  0  0  0
    5.5610   -6.3914    1.2469 N   0  0  0  0  0  0  0  0  0  0  0  0
    6.1129   -5.2852    0.6897 C   0  0  0  0  0  0  0  0  0  0  0  0
    5.0561   -4.4992    0.1729 C   0  0  0  0  0  0  0  0  0  0  0  0
    3.8794   -5.1778    0.4671 C   0  0  0  0  0  0  0  0  0  0  0  0
    2.6607   -4.6545    0.0792 N   0  0  0  0  0  0  0  0  0  0  0  0
    2.6446   -3.4754   -0.6087 C   0  0  0  0  0  0  0  0  0  0  0  0
    3.8324   -2.8138   -0.8900 N   0  0  0  0  0  0  0  0  0  0  0  0
    4.0817   -1.6509   -1.5301 C   0  0  0  0  0  0  0  0  0  0  0  0
    5.4342   -1.4706   -1.5197 N   0  0  0  0  0  0  0  0  0  0  0  0
    6.0598   -2.5652   -0.8567 N   0  0  0  0  0  0  0  0  0  0  0  0
    5.0145   -3.2642   -0.5393 C   0  0  0  0  0  0  0  0  0  0  0  0
    2.0526   -7.0939    2.1008 C   0  0  0  0  0  0  0  0  0  0  0  0
    1.2371   -8.1340    2.5912 C   0  0  0  0  0  0  0  0  0  0  0  0
    1.0913  -10.2661    2.9661 H   0  0  0  0  0  0  0  0  0  0  0  0
    3.3710  -10.7678    2.0832 H   0  0  0  0  0  0  0  0  0  0  0  0
    4.7966   -8.9405    1.2212 H   0  0  0  0  0  0  0  0  0  0  0  0
    7.1886   -5.1504    0.6926 H   0  0  0  0  0  0  0  0  0  0  0  0
    1.7087   -3.0553   -0.9450 H   0  0  0  0  0  0  0  0  0  0  0  0
    3.3388   -0.9956   -1.9557 H   0  0  0  0  0  0  0  0  0  0  0  0
    1.6888   -6.0794    2.1247 H   0  0  0  0  0  0  0  0  0  0  0  0
    0.2533   -7.9169    2.9841 H   0  0  0  0  0  0  0  0  0  0  0  0
  1 18  2  0
  1  2  1  0
  1 19  1  0
  2  3  2  0
  2 20  1  0
  3  4  1  0
  3 21  1  0
  4  5  1  0
  4 17  2  0
  5  9  1  0
  5  6  1  0
  6  7  2  0
  7  8  1  0
  7 22  1  0
  8 16  1  0
  8  9  2  0
  9 10  1  0
 10 11  2  0
 11 12  1  0
 11 23  1  0
 12 16  1  0
 12 13  1  0
 13 14  2  0
 13 24  1  0
 14 15  1  0
 15 16  2  0
 17 18  1  0
 17 25  1  0
 18 26  1  0
M  END
>  <i_m_ct_stereo_status>  (283) 
1

>  <s_m_source_file>  (283) 
/var/tmp/pbs.5076255.sched01/tmphrhi8tfx/132_dydaaau.sdf

>  <i_m_source_file_index>  (283) 
4

>  <i_lp_mmshare_version>  (283) 
48012

>  <i_f3d_flags>  (283) 
0

>  <s_epik_input>  (283) 
W2NIXTFbY0hdW2NIXVtjSF1bY0hdYzEtbihuW2NIXTIpYyhjMjMpbltjSF1uNGMzbm5bY0hdNA==

>  <s_epik_cmdline>  (283) 
J2VwaWtfcHl0aG9uJywgJy1waHQnLCAnMi4wJywgJy1waCcsICc3LjAnLCAnLXRuJywgJzgnLCAnLW1hJywgJzIwMCcsICctaW1hZScsICc8aW5maWxlLm1hZT4nLCAnLW9tYWUnLCAnPG91dGZpbGUubWFlPic=

>  <r_lp_tautomer_probability>  (283) 
1

>  <r_epik_Ionization_Penalty>  (283) 
1.32337e-07

>  <r_epik_Ionization_Penalty_Charging>  (283) 
0

>  <r_epik_Ionization_Penalty_Neutral>  (283) 
1.32337e-07

>  <r_epik_State_Penalty>  (283) 
-0

>  <r_epik_Charging_Adjusted_Penalty>  (283) 
0

>  <i_epik_Tot_Q>  (283) 
0

>  <i_epik_Tot_abs_Q>  (283) 
0

>  <s_lp_Force_Field>  (283) 
OPLS3e

>  <r_lp_Energy>  (283) 
28.0007

>  <b_lp_Chiralities_Consistent>  (283) 
1

>  <s_lp_Variant>  (283) 
93:0-1

>  <s_i_glide_gridfile>  (283) 
pfpi4k_grid

>  <i_i_glide_lignum>  (283) 
4

>  <i_i_glide_rotatable_bonds>  (283) 
1

>  <r_i_docking_score>  (283) 
-3.83406

>  <r_i_glide_ligand_efficiency>  (283) 
-0.213003

>  <r_i_glide_ligand_efficiency_sa>  (283) 
-0.558226

>  <r_i_glide_ligand_efficiency_ln>  (283) 
-0.985525

>  <r_i_glide_gscore>  (283) 
-3.83406

>  <r_i_glide_lipo>  (283) 
-0.291048

>  <r_i_glide_hbond>  (283) 
0

>  <r_i_glide_metal>  (283) 
-0

>  <r_i_glide_rewards>  (283) 
-1.99155

>  <r_i_glide_evdw>  (283) 
-23.4632

>  <r_i_glide_ecoul>  (283) 
-3.5

>  <r_i_glide_erotb>  (283) 
0.308452

>  <r_i_glide_esite>  (283) 
-0.161751

>  <r_i_glide_emodel>  (283) 
-33.9992

>  <r_i_glide_energy>  (283) 
-26.9632

>  <r_i_glide_einternal>  (283) 
0.0811688

>  <r_i_glide_intrahb_reward>  (283) 
-0

>  <i_i_glide_confnum>  (283) 
2

>  <i_i_glide_posenum>  (283) 
14

>  <r_i_glide_eff_state_penalty>  (283) 
0

>  <ligand_id>  (283) 
93

>  <original_smiles>  (283) 
c1ccc(-n2ncc3c2ncn2cnnc32)cc1

>  <smiles>  (283) 
[H]c1c([H])c([H])c(-n2nc([H])c3c2nc([H])n2c([H])nnc32)c([H])c1[H]

$$$$
93:0:1
     RDKit          3D

 26 29  0  0  1  0  0  0  0  0999 V2000
    0.0430   -7.8997    3.9294 C   0  0  0  0  0  0  0  0  0  0  0  0
    0.6398   -6.7379    4.4642 C   0  0  0  0  0  0  0  0  0  0  0  0
    1.3726   -5.8743    3.6273 C   0  0  0  0  0  0  0  0  0  0  0  0
    1.5209   -6.1653    2.2531 C   0  0  0  0  0  0  0  0  0  0  0  0
    2.2236   -5.2777    1.4091 N   0  0  0  0  0  0  0  0  0  0  0  0
    1.9050   -5.1530    0.0659 N   0  0  0  0  0  0  0  0  0  0  0  0
    2.6757   -4.1865   -0.5019 C   0  0  0  0  0  0  0  0  0  0  0  0
    3.5430   -3.6930    0.5018 C   0  0  0  0  0  0  0  0  0  0  0  0
    3.2345   -4.3921    1.6616 C   0  0  0  0  0  0  0  0  0  0  0  0
    3.9216   -4.1271    2.8297 N   0  0  0  0  0  0  0  0  0  0  0  0
    4.8902   -3.1678    2.8202 C   0  0  0  0  0  0  0  0  0  0  0  0
    5.1802   -2.4817    1.6466 N   0  0  0  0  0  0  0  0  0  0  0  0
    6.0744   -1.5093    1.3724 C   0  0  0  0  0  0  0  0  0  0  0  0
    5.9477   -1.1999    0.0517 N   0  0  0  0  0  0  0  0  0  0  0  0
    4.9226   -2.0052   -0.5268 N   0  0  0  0  0  0  0  0  0  0  0  0
    4.5642   -2.6977    0.5073 C   0  0  0  0  0  0  0  0  0  0  0  0
    0.9137   -7.3270    1.7209 C   0  0  0  0  0  0  0  0  0  0  0  0
    0.1801   -8.1953    2.5561 C   0  0  0  0  0  0  0  0  0  0  0  0
   -0.5152   -8.5694    4.5723 H   0  0  0  0  0  0  0  0  0  0  0  0
    0.5389   -6.5041    5.5146 H   0  0  0  0  0  0  0  0  0  0  0  0
    1.8069   -4.9825    4.0487 H   0  0  0  0  0  0  0  0  0  0  0  0
    2.5617   -3.9304   -1.5492 H   0  0  0  0  0  0  0  0  0  0  0  0
    5.4334   -2.9446    3.7267 H   0  0  0  0  0  0  0  0  0  0  0  0
    6.7653   -1.0688    2.0777 H   0  0  0  0  0  0  0  0  0  0  0  0
    1.0121   -7.5689    0.6743 H   0  0  0  0  0  0  0  0  0  0  0  0
   -0.2704   -9.0880    2.1399 H   0  0  0  0  0  0  0  0  0  0  0  0
  1 18  2  0
  1  2  1  0
  1 19  1  0
  2  3  2  0
  2 20  1  0
  3  4  1  0
  3 21  1  0
  4  5  1  0
  4 17  2  0
  5  9  1  0
  5  6  1  0
  6  7  2  0
  7  8  1  0
  7 22  1  0
  8 16  1  0
  8  9  2  0
  9 10  1  0
 10 11  2  0
 11 12  1  0
 11 23  1  0
 12 16  1  0
 12 13  1  0
 13 14  2  0
 13 24  1  0
 14 15  1  0
 15 16  2  0
 17 18  1  0
 17 25  1  0
 18 26  1  0
M  END
>  <i_m_ct_stereo_status>  (284) 
1

>  <s_m_source_file>  (284) 
/var/tmp/pbs.5076255.sched01/tmphrhi8tfx/132_dydaaau.sdf

>  <i_m_source_file_index>  (284) 
4

>  <i_lp_mmshare_version>  (284) 
48012

>  <i_f3d_flags>  (284) 
0

>  <s_epik_input>  (284) 
W2NIXTFbY0hdW2NIXVtjSF1bY0hdYzEtbihuW2NIXTIpYyhjMjMpbltjSF1uNGMzbm5bY0hdNA==

>  <s_epik_cmdline>  (284) 
J2VwaWtfcHl0aG9uJywgJy1waHQnLCAnMi4wJywgJy1waCcsICc3LjAnLCAnLXRuJywgJzgnLCAnLW1hJywgJzIwMCcsICctaW1hZScsICc8aW5maWxlLm1hZT4nLCAnLW9tYWUnLCAnPG91dGZpbGUubWFlPic=

>  <r_lp_tautomer_probability>  (284) 
1

>  <r_epik_Ionization_Penalty>  (284) 
1.32337e-07

>  <r_epik_Ionization_Penalty_Charging>  (284) 
0

>  <r_epik_Ionization_Penalty_Neutral>  (284) 
1.32337e-07

>  <r_epik_State_Penalty>  (284) 
-0

>  <r_epik_Charging_Adjusted_Penalty>  (284) 
0

>  <i_epik_Tot_Q>  (284) 
0

>  <i_epik_Tot_abs_Q>  (284) 
0

>  <s_lp_Force_Field>  (284) 
OPLS3e

>  <r_lp_Energy>  (284) 
28.0007

>  <b_lp_Chiralities_Consistent>  (284) 
1

>  <s_lp_Variant>  (284) 
93:0-1

>  <s_i_glide_gridfile>  (284) 
pfpi4k_grid

>  <i_i_glide_lignum>  (284) 
4

>  <i_i_glide_rotatable_bonds>  (284) 
1

>  <r_i_docking_score>  (284) 
-3.38916

>  <r_i_glide_ligand_efficiency>  (284) 
-0.188287

>  <r_i_glide_ligand_efficiency_sa>  (284) 
-0.493451

>  <r_i_glide_ligand_efficiency_ln>  (284) 
-0.871167

>  <r_i_glide_gscore>  (284) 
-3.38916

>  <r_i_glide_lipo>  (284) 
0

>  <r_i_glide_hbond>  (284) 
-0.0584835

>  <r_i_glide_metal>  (284) 
-0

>  <r_i_glide_rewards>  (284) 
-2.20652

>  <r_i_glide_evdw>  (284) 
-17.692

>  <r_i_glide_ecoul>  (284) 
-3.28663

>  <r_i_glide_erotb>  (284) 
0.308452

>  <r_i_glide_esite>  (284) 
-0.0550199

>  <r_i_glide_emodel>  (284) 
-27.1925

>  <r_i_glide_energy>  (284) 
-20.9786

>  <r_i_glide_einternal>  (284) 
0.040833

>  <r_i_glide_intrahb_reward>  (284) 
-0

>  <i_i_glide_confnum>  (284) 
6

>  <i_i_glide_posenum>  (284) 
36

>  <r_i_glide_eff_state_penalty>  (284) 
0

>  <ligand_id>  (284) 
93

>  <original_smiles>  (284) 
c1ccc(-n2ncc3c2ncn2cnnc32)cc1

>  <smiles>  (284) 
[H]c1c([H])c([H])c(-n2nc([H])c3c2nc([H])n2c([H])nnc32)c([H])c1[H]

$$$$
93:0:2
     RDKit          3D

 26 29  0  0  1  0  0  0  0  0999 V2000
   -0.4449   -7.2582    3.6909 C   0  0  0  0  0  0  0  0  0  0  0  0
   -0.0322   -7.9308    2.5211 C   0  0  0  0  0  0  0  0  0  0  0  0
    1.0549   -7.4347    1.7738 C   0  0  0  0  0  0  0  0  0  0  0  0
    1.7269   -6.2633    2.1834 C   0  0  0  0  0  0  0  0  0  0  0  0
    2.8216   -5.7843    1.4353 N   0  0  0  0  0  0  0  0  0  0  0  0
    3.7379   -6.6503    0.8608 N   0  0  0  0  0  0  0  0  0  0  0  0
    4.6593   -5.9372    0.1730 C   0  0  0  0  0  0  0  0  0  0  0  0
    4.3387   -4.5667    0.3085 C   0  0  0  0  0  0  0  0  0  0  0  0
    3.1991   -4.5149    1.0983 C   0  0  0  0  0  0  0  0  0  0  0  0
    2.6255   -3.2977    1.4087 N   0  0  0  0  0  0  0  0  0  0  0  0
    3.2008   -2.1587    0.9209 C   0  0  0  0  0  0  0  0  0  0  0  0
    4.3412   -2.2372    0.1298 N   0  0  0  0  0  0  0  0  0  0  0  0
    5.0882   -1.2830   -0.4635 C   0  0  0  0  0  0  0  0  0  0  0  0
    6.1051   -1.9115   -1.1190 N   0  0  0  0  0  0  0  0  0  0  0  0
    5.9867   -3.3198   -0.9379 N   0  0  0  0  0  0  0  0  0  0  0  0
    4.9256   -3.3675   -0.1952 C   0  0  0  0  0  0  0  0  0  0  0  0
    1.3086   -5.5894    3.3513 C   0  0  0  0  0  0  0  0  0  0  0  0
    0.2286   -6.0895    4.1073 C   0  0  0  0  0  0  0  0  0  0  0  0
   -1.2675   -7.6532    4.2751 H   0  0  0  0  0  0  0  0  0  0  0  0
   -0.5330   -8.8366    2.2015 H   0  0  0  0  0  0  0  0  0  0  0  0
    1.3718   -7.9638    0.8872 H   0  0  0  0  0  0  0  0  0  0  0  0
    5.4515   -6.4480   -0.3490 H   0  0  0  0  0  0  0  0  0  0  0  0
    2.7718   -1.1925    1.1436 H   0  0  0  0  0  0  0  0  0  0  0  0
    4.9073   -0.2224   -0.4112 H   0  0  0  0  0  0  0  0  0  0  0  0
    1.8270   -4.7022    3.6798 H   0  0  0  0  0  0  0  0  0  0  0  0
   -0.0758   -5.5813    5.0112 H   0  0  0  0  0  0  0  0  0  0  0  0
  1 18  2  0
  1  2  1  0
  1 19  1  0
  2  3  2  0
  2 20  1  0
  3  4  1  0
  3 21  1  0
  4  5  1  0
  4 17  2  0
  5  9  1  0
  5  6  1  0
  6  7  2  0
  7  8  1  0
  7 22  1  0
  8 16  1  0
  8  9  2  0
  9 10  1  0
 10 11  2  0
 11 12  1  0
 11 23  1  0
 12 16  1  0
 12 13  1  0
 13 14  2  0
 13 24  1  0
 14 15  1  0
 15 16  2  0
 17 18  1  0
 17 25  1  0
 18 26  1  0
M  END
>  <i_m_ct_stereo_status>  (285) 
1

>  <s_m_source_file>  (285) 
/var/tmp/pbs.5076255.sched01/tmphrhi8tfx/132_dydaaau.sdf

>  <i_m_source_file_index>  (285) 
4

>  <i_lp_mmshare_version>  (285) 
48012

>  <i_f3d_flags>  (285) 
0

>  <s_epik_input>  (285) 
W2NIXTFbY0hdW2NIXVtjSF1bY0hdYzEtbihuW2NIXTIpYyhjMjMpbltjSF1uNGMzbm5bY0hdNA==

>  <s_epik_cmdline>  (285) 
J2VwaWtfcHl0aG9uJywgJy1waHQnLCAnMi4wJywgJy1waCcsICc3LjAnLCAnLXRuJywgJzgnLCAnLW1hJywgJzIwMCcsICctaW1hZScsICc8aW5maWxlLm1hZT4nLCAnLW9tYWUnLCAnPG91dGZpbGUubWFlPic=

>  <r_lp_tautomer_probability>  (285) 
1

>  <r_epik_Ionization_Penalty>  (285) 
1.32337e-07

>  <r_epik_Ionization_Penalty_Charging>  (285) 
0

>  <r_epik_Ionization_Penalty_Neutral>  (285) 
1.32337e-07

>  <r_epik_State_Penalty>  (285) 
-0

>  <r_epik_Charging_Adjusted_Penalty>  (285) 
0

>  <i_epik_Tot_Q>  (285) 
0

>  <i_epik_Tot_abs_Q>  (285) 
0

>  <s_lp_Force_Field>  (285) 
OPLS3e

>  <r_lp_Energy>  (285) 
28.0007

>  <b_lp_Chiralities_Consistent>  (285) 
1

>  <s_lp_Variant>  (285) 
93:0-1

>  <s_i_glide_gridfile>  (285) 
pfpi4k_grid

>  <i_i_glide_lignum>  (285) 
4

>  <i_i_glide_rotatable_bonds>  (285) 
1

>  <r_i_docking_score>  (285) 
-3.37202

>  <r_i_glide_ligand_efficiency>  (285) 
-0.187334

>  <r_i_glide_ligand_efficiency_sa>  (285) 
-0.490955

>  <r_i_glide_ligand_efficiency_ln>  (285) 
-0.86676

>  <r_i_glide_gscore>  (285) 
-3.37202

>  <r_i_glide_lipo>  (285) 
-0.104873

>  <r_i_glide_hbond>  (285) 
0

>  <r_i_glide_metal>  (285) 
-0

>  <r_i_glide_rewards>  (285) 
-1.85631

>  <r_i_glide_evdw>  (285) 
-21.3642

>  <r_i_glide_ecoul>  (285) 
-3.42099

>  <r_i_glide_erotb>  (285) 
0.308452

>  <r_i_glide_esite>  (285) 
-0.137927

>  <r_i_glide_emodel>  (285) 
-30.8609

>  <r_i_glide_energy>  (285) 
-24.7852

>  <r_i_glide_einternal>  (285) 
0.268715

>  <r_i_glide_intrahb_reward>  (285) 
-0

>  <i_i_glide_confnum>  (285) 
1

>  <i_i_glide_posenum>  (285) 
24

>  <r_i_glide_eff_state_penalty>  (285) 
0

>  <ligand_id>  (285) 
93

>  <original_smiles>  (285) 
c1ccc(-n2ncc3c2ncn2cnnc32)cc1

>  <smiles>  (285) 
[H]c1c([H])c([H])c(-n2nc([H])c3c2nc([H])n2c([H])nnc32)c([H])c1[H]

$$$$
94:0:0
     RDKit          3D

 52 55  0  0  1  0  0  0  0  0999 V2000
    8.0161   -3.2059   -0.1296 C   0  0  0  0  0  0  0  0  0  0  0  0
    6.6891   -3.1855   -0.3330 C   0  0  0  0  0  0  0  0  0  0  0  0
    6.1434   -2.8702   -1.7242 C   0  0  0  0  0  0  0  0  0  0  0  0
    4.7107   -2.4254   -1.6502 C   0  0  2  0  0  0  0  0  0  0  0  0
    4.4866   -1.1073   -0.9423 C   0  0  0  0  0  0  0  0  0  0  0  0
    4.5066   -1.2298    0.6092 C   0  0  0  0  0  0  0  0  0  0  0  0
    5.7863   -0.5562    1.1682 C   0  0  0  0  0  0  0  0  0  0  0  0
    3.3793   -0.2939    1.1002 C   0  0  0  0  0  0  0  0  0  0  0  0
    4.3280   -2.7715    1.0335 C   0  0  2  0  0  0  0  0  0  0  0  0
    3.8551   -2.9481    2.5563 C   0  0  2  0  0  0  0  0  0  0  0  0
    4.2859   -4.2781    3.2548 C   0  0  0  0  0  0  0  0  0  0  0  0
    2.3125   -2.7584    2.8474 C   0  0  0  0  0  0  0  0  0  0  0  0
    1.9269   -2.6112    4.3336 C   0  0  2  0  0  0  0  0  0  0  0  0
    0.4882   -2.3442    4.4419 O   0  0  0  0  0  0  0  0  0  0  0  0
    0.7344   -1.1268    5.2110 C   0  0  0  0  0  0  0  0  0  0  0  0
    2.1902   -1.2389    4.9019 C   0  0  0  0  0  0  0  0  0  0  0  0
    3.2529   -0.4303    5.0133 C   0  0  0  0  0  0  0  0  0  0  0  0
    5.7114   -3.5376    0.8201 C   0  0  0  0  0  0  0  0  0  0  0  0
    3.2487   -3.4258    0.0967 C   0  0  0  0  0  0  0  0  0  0  0  0
    3.8109   -3.6653   -1.2828 C   0  0  1  0  0  0  0  0  0  0  0  0
    3.6095   -2.8704   -2.5163 C   0  0  0  0  0  0  0  0  0  0  0  0
    2.9284   -2.6941   -3.6546 C   0  0  0  0  0  0  0  0  0  0  0  0
    8.4422   -3.4496    0.8354 H   0  0  0  0  0  0  0  0  0  0  0  0
    8.7181   -2.9965   -0.9261 H   0  0  0  0  0  0  0  0  0  0  0  0
    6.7637   -2.1127   -2.2075 H   0  0  0  0  0  0  0  0  0  0  0  0
    6.2075   -3.7691   -2.3326 H   0  0  0  0  0  0  0  0  0  0  0  0
    5.1944   -0.3648   -1.3136 H   0  0  0  0  0  0  0  0  0  0  0  0
    3.5060   -0.7394   -1.2569 H   0  0  0  0  0  0  0  0  0  0  0  0
    5.8418   -0.6147    2.2552 H   0  0  0  0  0  0  0  0  0  0  0  0
    5.7889    0.4995    0.8930 H   0  0  0  0  0  0  0  0  0  0  0  0
    6.7219   -0.9382    0.7735 H   0  0  0  0  0  0  0  0  0  0  0  0
    3.3690   -0.2056    2.1880 H   0  0  0  0  0  0  0  0  0  0  0  0
    2.4007   -0.6229    0.7507 H   0  0  0  0  0  0  0  0  0  0  0  0
    3.5169    0.7199    0.7144 H   0  0  0  0  0  0  0  0  0  0  0  0
    4.4095   -2.1835    3.0934 H   0  0  0  0  0  0  0  0  0  0  0  0
    3.7113   -5.1298    2.8877 H   0  0  0  0  0  0  0  0  0  0  0  0
    4.1262   -4.2180    4.3329 H   0  0  0  0  0  0  0  0  0  0  0  0
    5.3411   -4.5346    3.1720 H   0  0  0  0  0  0  0  0  0  0  0  0
    1.8596   -1.9306    2.3038 H   0  0  0  0  0  0  0  0  0  0  0  0
    1.7848   -3.6254    2.4457 H   0  0  0  0  0  0  0  0  0  0  0  0
    2.1627   -3.4604    4.9825 H   0  0  0  0  0  0  0  0  0  0  0  0
    0.1991   -0.2756    4.7763 H   0  0  0  0  0  0  0  0  0  0  0  0
    0.4664   -1.2521    6.2684 H   0  0  0  0  0  0  0  0  0  0  0  0
    4.2377   -0.7223    4.6810 H   0  0  0  0  0  0  0  0  0  0  0  0
    3.1452    0.5562    5.4529 H   0  0  0  0  0  0  0  0  0  0  0  0
    5.5359   -4.6159    0.7667 H   0  0  0  0  0  0  0  0  0  0  0  0
    6.3161   -3.3640    1.7089 H   0  0  0  0  0  0  0  0  0  0  0  0
    2.9376   -4.3993    0.4800 H   0  0  0  0  0  0  0  0  0  0  0  0
    2.3540   -2.8125    0.0147 H   0  0  0  0  0  0  0  0  0  0  0  0
    4.2558   -4.6488   -1.4002 H   0  0  0  0  0  0  0  0  0  0  0  0
    3.1691   -1.8914   -4.3379 H   0  0  0  0  0  0  0  0  0  0  0  0
    2.1101   -3.3571   -3.8961 H   0  0  0  0  0  0  0  0  0  0  0  0
  1  2  2  0
  1 23  1  0
  1 24  1  0
  2 18  1  0
  2  3  1  0
  3  4  1  0
  3 25  1  0
  3 26  1  0
  4 20  1  0
  4 21  1  6
  4  5  1  0
  5  6  1  0
  5 27  1  0
  5 28  1  0
  6  7  1  0
  6  8  1  0
  9  6  1  6
  7 29  1  0
  7 30  1  0
  7 31  1  0
  8 32  1  0
  8 33  1  0
  8 34  1  0
  9 10  1  0
  9 18  1  0
  9 19  1  0
 10 11  1  0
 10 12  1  0
 10 35  1  1
 11 36  1  0
 11 37  1  0
 11 38  1  0
 12 13  1  0
 12 39  1  0
 12 40  1  0
 13 16  1  0
 13 14  1  0
 13 41  1  1
 14 15  1  0
 15 16  1  0
 15 42  1  0
 15 43  1  0
 16 17  2  0
 17 44  1  0
 17 45  1  0
 18 46  1  0
 18 47  1  0
 19 20  1  0
 19 48  1  0
 19 49  1  0
 20 21  1  0
 20 50  1  6
 21 22  2  0
 22 51  1  0
 22 52  1  0
M  END
>  <i_m_ct_stereo_status>  (286) 
1

>  <s_m_source_file>  (286) 
/var/tmp/pbs.5076255.sched01/tmphrhi8tfx/132_dydaaau.sdf

>  <i_m_source_file_index>  (286) 
5

>  <i_lp_mmshare_version>  (286) 
48012

>  <i_f3d_flags>  (286) 
0

>  <s_epik_input>  (286) 
W0NIMl09QzFbQ0hdKEMxMjMpW0NIMl1bQ0BAXShDKFtDSDJdMykoW0NIM10pW0NIM10pKFtDSDJdQyg9W0NIMl0pW0NIMl0yKVtDQEhdKFtDSDNdKVtDSDJdW0NAQEhdNE9bQ0gyXUM0PVtDSDJd

>  <s_epik_cmdline>  (286) 
J2VwaWtfcHl0aG9uJywgJy1waHQnLCAnMi4wJywgJy1waCcsICc3LjAnLCAnLXRuJywgJzgnLCAnLW1hJywgJzIwMCcsICctaW1hZScsICc8aW5maWxlLm1hZT4nLCAnLW9tYWUnLCAnPG91dGZpbGUubWFlPic=

>  <r_lp_tautomer_probability>  (286) 
1

>  <r_epik_Ionization_Penalty>  (286) 
2.79772e-12

>  <r_epik_Ionization_Penalty_Charging>  (286) 
0

>  <r_epik_Ionization_Penalty_Neutral>  (286) 
2.79772e-12

>  <r_epik_State_Penalty>  (286) 
-0

>  <r_epik_Charging_Adjusted_Penalty>  (286) 
0

>  <i_epik_Tot_Q>  (286) 
0

>  <i_epik_Tot_abs_Q>  (286) 
0

>  <s_lp_Force_Field>  (286) 
OPLS3e

>  <r_lp_Energy>  (286) 
57.438

>  <b_lp_Chiralities_Consistent>  (286) 
1

>  <s_lp_Variant>  (286) 
94:0-1

>  <s_i_glide_gridfile>  (286) 
pfpi4k_grid

>  <i_i_glide_lignum>  (286) 
5

>  <i_i_glide_rotatable_bonds>  (286) 
3

>  <r_i_docking_score>  (286) 
-2.49168

>  <r_i_glide_ligand_efficiency>  (286) 
-0.113258

>  <r_i_glide_ligand_efficiency_sa>  (286) 
-0.317354

>  <r_i_glide_ligand_efficiency_ln>  (286) 
-0.609058

>  <r_i_glide_gscore>  (286) 
-2.49168

>  <r_i_glide_lipo>  (286) 
-0.727457

>  <r_i_glide_hbond>  (286) 
0

>  <r_i_glide_metal>  (286) 
-0

>  <r_i_glide_rewards>  (286) 
-1.37412

>  <r_i_glide_evdw>  (286) 
-22.4302

>  <r_i_glide_ecoul>  (286) 
0.755809

>  <r_i_glide_erotb>  (286) 
0.618032

>  <r_i_glide_esite>  (286) 
0

>  <r_i_glide_emodel>  (286) 
-22.9693

>  <r_i_glide_energy>  (286) 
-21.6744

>  <r_i_glide_einternal>  (286) 
3.65273

>  <r_i_glide_intrahb_reward>  (286) 
-0

>  <i_i_glide_confnum>  (286) 
2

>  <i_i_glide_posenum>  (286) 
28

>  <r_i_glide_eff_state_penalty>  (286) 
0

>  <ligand_id>  (286) 
94

>  <original_smiles>  (286) 
C=C1CC23CC(C)(C)C(C(C)CC4OCC4=C)(C1)CC2C3=C

>  <smiles>  (286) 
[H]C([H])=C1C([H])([H])C23C(=C([H])[H])C2([H])C([H])([H])C(C([H])(C([H])([H])[H])C([H])([H])C2([H])OC([H])([H])C2=C([H])[H])(C1([H])[H])C(C([H])([H])[H])(C([H])([H])[H])C3([H])[H]

$$$$
94:0:1
     RDKit          3D

 52 55  0  0  1  0  0  0  0  0999 V2000
    6.1959   -5.5241    1.3613 C   0  0  0  0  0  0  0  0  0  0  0  0
    5.3610   -4.6469    0.7722 C   0  0  0  0  0  0  0  0  0  0  0  0
    5.5764   -4.2678   -0.6878 C   0  0  0  0  0  0  0  0  0  0  0  0
    4.8880   -2.9826   -1.0263 C   0  0  2  0  0  0  0  0  0  0  0  0
    5.4450   -1.7620   -0.3344 C   0  0  0  0  0  0  0  0  0  0  0  0
    4.9606   -1.6280    1.1335 C   0  0  0  0  0  0  0  0  0  0  0  0
    6.1409   -1.8899    2.0980 C   0  0  0  0  0  0  0  0  0  0  0  0
    4.6956   -0.1145    1.3146 C   0  0  0  0  0  0  0  0  0  0  0  0
    3.6828   -2.5662    1.3925 C   0  0  2  0  0  0  0  0  0  0  0  0
    2.8191   -2.1340    2.6839 C   0  0  2  0  0  0  0  0  0  0  0  0
    2.0223   -3.2893    3.3789 C   0  0  0  0  0  0  0  0  0  0  0  0
    1.7878   -0.9500    2.4776 C   0  0  0  0  0  0  0  0  0  0  0  0
    1.1763   -0.3590    3.7692 C   0  0  2  0  0  0  0  0  0  0  0  0
    0.0564   -1.1100    4.2990 O   0  0  0  0  0  0  0  0  0  0  0  0
   -0.8117    0.0470    4.2323 C   0  0  0  0  0  0  0  0  0  0  0  0
    0.2511    0.7864    3.4972 C   0  0  0  0  0  0  0  0  0  0  0  0
    0.3119    1.9438    2.8347 C   0  0  0  0  0  0  0  0  0  0  0  0
    4.1514   -4.0787    1.5509 C   0  0  0  0  0  0  0  0  0  0  0  0
    2.7676   -2.4754    0.1310 C   0  0  0  0  0  0  0  0  0  0  0  0
    3.3350   -3.2281   -1.0331 C   0  0  1  0  0  0  0  0  0  0  0  0
    4.0641   -2.7087   -2.2129 C   0  0  0  0  0  0  0  0  0  0  0  0
    4.0223   -2.3141   -3.4841 C   0  0  0  0  0  0  0  0  0  0  0  0
    6.0649   -5.8355    2.3883 H   0  0  0  0  0  0  0  0  0  0  0  0
    7.0291   -5.9571    0.8280 H   0  0  0  0  0  0  0  0  0  0  0  0
    6.6461   -4.1881   -0.8828 H   0  0  0  0  0  0  0  0  0  0  0  0
    5.1752   -5.0636   -1.3176 H   0  0  0  0  0  0  0  0  0  0  0  0
    6.5302   -1.7726   -0.4101 H   0  0  0  0  0  0  0  0  0  0  0  0
    5.1222   -0.8869   -0.9045 H   0  0  0  0  0  0  0  0  0  0  0  0
    5.8284   -1.8024    3.1389 H   0  0  0  0  0  0  0  0  0  0  0  0
    6.9405   -1.1673    1.9256 H   0  0  0  0  0  0  0  0  0  0  0  0
    6.6096   -2.8622    1.9768 H   0  0  0  0  0  0  0  0  0  0  0  0
    4.4725    0.1350    2.3586 H   0  0  0  0  0  0  0  0  0  0  0  0
    3.8785    0.2316    0.6739 H   0  0  0  0  0  0  0  0  0  0  0  0
    5.5726    0.4702    1.0190 H   0  0  0  0  0  0  0  0  0  0  0  0
    3.5405   -1.8170    3.4331 H   0  0  0  0  0  0  0  0  0  0  0  0
    1.1430   -3.5663    2.7994 H   0  0  0  0  0  0  0  0  0  0  0  0
    1.6708   -2.9650    4.3596 H   0  0  0  0  0  0  0  0  0  0  0  0
    2.5826   -4.2000    3.5942 H   0  0  0  0  0  0  0  0  0  0  0  0
    2.2498   -0.1177    1.9701 H   0  0  0  0  0  0  0  0  0  0  0  0
    0.9918   -1.2665    1.7949 H   0  0  0  0  0  0  0  0  0  0  0  0
    1.9170   -0.1680    4.5510 H   0  0  0  0  0  0  0  0  0  0  0  0
   -1.7260   -0.1742    3.6723 H   0  0  0  0  0  0  0  0  0  0  0  0
   -1.0559    0.4280    5.2362 H   0  0  0  0  0  0  0  0  0  0  0  0
    1.2134    2.2925    2.3280 H   0  0  0  0  0  0  0  0  0  0  0  0
   -0.5555    2.5951    2.7645 H   0  0  0  0  0  0  0  0  0  0  0  0
    3.3101   -4.7516    1.3639 H   0  0  0  0  0  0  0  0  0  0  0  0
    4.4457   -4.2192    2.5913 H   0  0  0  0  0  0  0  0  0  0  0  0
    1.8087   -2.9191    0.3349 H   0  0  0  0  0  0  0  0  0  0  0  0
    2.6319   -1.4421   -0.1569 H   0  0  0  0  0  0  0  0  0  0  0  0
    2.9933   -4.2557   -1.0929 H   0  0  0  0  0  0  0  0  0  0  0  0
    4.9263   -1.9946   -3.9973 H   0  0  0  0  0  0  0  0  0  0  0  0
    3.0780   -2.2877   -4.0235 H   0  0  0  0  0  0  0  0  0  0  0  0
  1  2  2  0
  1 23  1  0
  1 24  1  0
  2 18  1  0
  2  3  1  0
  3  4  1  0
  3 25  1  0
  3 26  1  0
  4 20  1  0
  4 21  1  6
  4  5  1  0
  5  6  1  0
  5 27  1  0
  5 28  1  0
  6  7  1  0
  6  8  1  0
  9  6  1  6
  7 29  1  0
  7 30  1  0
  7 31  1  0
  8 32  1  0
  8 33  1  0
  8 34  1  0
  9 10  1  0
  9 18  1  0
  9 19  1  0
 10 11  1  0
 10 12  1  0
 10 35  1  1
 11 36  1  0
 11 37  1  0
 11 38  1  0
 12 13  1  0
 12 39  1  0
 12 40  1  0
 13 16  1  0
 13 14  1  0
 13 41  1  1
 14 15  1  0
 15 16  1  0
 15 42  1  0
 15 43  1  0
 16 17  2  0
 17 44  1  0
 17 45  1  0
 18 46  1  0
 18 47  1  0
 19 20  1  0
 19 48  1  0
 19 49  1  0
 20 21  1  0
 20 50  1  6
 21 22  2  0
 22 51  1  0
 22 52  1  0
M  END
>  <i_m_ct_stereo_status>  (287) 
1

>  <s_m_source_file>  (287) 
/var/tmp/pbs.5076255.sched01/tmphrhi8tfx/132_dydaaau.sdf

>  <i_m_source_file_index>  (287) 
5

>  <i_lp_mmshare_version>  (287) 
48012

>  <i_f3d_flags>  (287) 
0

>  <s_epik_input>  (287) 
W0NIMl09QzFbQ0hdKEMxMjMpW0NIMl1bQ0BAXShDKFtDSDJdMykoW0NIM10pW0NIM10pKFtDSDJdQyg9W0NIMl0pW0NIMl0yKVtDQEhdKFtDSDNdKVtDSDJdW0NAQEhdNE9bQ0gyXUM0PVtDSDJd

>  <s_epik_cmdline>  (287) 
J2VwaWtfcHl0aG9uJywgJy1waHQnLCAnMi4wJywgJy1waCcsICc3LjAnLCAnLXRuJywgJzgnLCAnLW1hJywgJzIwMCcsICctaW1hZScsICc8aW5maWxlLm1hZT4nLCAnLW9tYWUnLCAnPG91dGZpbGUubWFlPic=

>  <r_lp_tautomer_probability>  (287) 
1

>  <r_epik_Ionization_Penalty>  (287) 
2.79772e-12

>  <r_epik_Ionization_Penalty_Charging>  (287) 
0

>  <r_epik_Ionization_Penalty_Neutral>  (287) 
2.79772e-12

>  <r_epik_State_Penalty>  (287) 
-0

>  <r_epik_Charging_Adjusted_Penalty>  (287) 
0

>  <i_epik_Tot_Q>  (287) 
0

>  <i_epik_Tot_abs_Q>  (287) 
0

>  <s_lp_Force_Field>  (287) 
OPLS3e

>  <r_lp_Energy>  (287) 
57.438

>  <b_lp_Chiralities_Consistent>  (287) 
1

>  <s_lp_Variant>  (287) 
94:0-1

>  <s_i_glide_gridfile>  (287) 
pfpi4k_grid

>  <i_i_glide_lignum>  (287) 
5

>  <i_i_glide_rotatable_bonds>  (287) 
3

>  <r_i_docking_score>  (287) 
-2.46067

>  <r_i_glide_ligand_efficiency>  (287) 
-0.111849

>  <r_i_glide_ligand_efficiency_sa>  (287) 
-0.313405

>  <r_i_glide_ligand_efficiency_ln>  (287) 
-0.601478

>  <r_i_glide_gscore>  (287) 
-2.46067

>  <r_i_glide_lipo>  (287) 
-0.722769

>  <r_i_glide_hbond>  (287) 
0

>  <r_i_glide_metal>  (287) 
-0

>  <r_i_glide_rewards>  (287) 
-1.37412

>  <r_i_glide_evdw>  (287) 
-20.9878

>  <r_i_glide_ecoul>  (287) 
0.450514

>  <r_i_glide_erotb>  (287) 
0.618032

>  <r_i_glide_esite>  (287) 
0

>  <r_i_glide_emodel>  (287) 
-22.1116

>  <r_i_glide_energy>  (287) 
-20.5373

>  <r_i_glide_einternal>  (287) 
3.0515

>  <r_i_glide_intrahb_reward>  (287) 
-0

>  <i_i_glide_confnum>  (287) 
2

>  <i_i_glide_posenum>  (287) 
1

>  <r_i_glide_eff_state_penalty>  (287) 
0

>  <ligand_id>  (287) 
94

>  <original_smiles>  (287) 
C=C1CC23CC(C)(C)C(C(C)CC4OCC4=C)(C1)CC2C3=C

>  <smiles>  (287) 
[H]C([H])=C1C([H])([H])C23C(=C([H])[H])C2([H])C([H])([H])C(C([H])(C([H])([H])[H])C([H])([H])C2([H])OC([H])([H])C2=C([H])[H])(C1([H])[H])C(C([H])([H])[H])(C([H])([H])[H])C3([H])[H]

$$$$
94:0:2
     RDKit          3D

 52 55  0  0  1  0  0  0  0  0999 V2000
    1.9281   -9.4447    6.3571 C   0  0  0  0  0  0  0  0  0  0  0  0
    1.6937   -8.3743    5.5733 C   0  0  0  0  0  0  0  0  0  0  0  0
    2.4103   -8.2683    4.2304 C   0  0  0  0  0  0  0  0  0  0  0  0
    2.4146   -6.8522    3.7284 C   0  0  2  0  0  0  0  0  0  0  0  0
    3.2178   -5.8742    4.5654 C   0  0  0  0  0  0  0  0  0  0  0  0
    2.4890   -5.4210    5.8672 C   0  0  0  0  0  0  0  0  0  0  0  0
    3.2177   -6.0576    7.0888 C   0  0  0  0  0  0  0  0  0  0  0  0
    2.7572   -3.9016    5.9891 C   0  0  0  0  0  0  0  0  0  0  0  0
    0.9280   -5.7561    5.7539 C   0  0  2  0  0  0  0  0  0  0  0  0
   -0.0496   -4.9327    6.7373 C   0  0  2  0  0  0  0  0  0  0  0  0
   -0.3730   -3.4698    6.3158 C   0  0  0  0  0  0  0  0  0  0  0  0
    0.2443   -4.9865    8.2773 C   0  0  0  0  0  0  0  0  0  0  0  0
   -0.7840   -4.2972    9.1973 C   0  0  2  0  0  0  0  0  0  0  0  0
   -0.5597   -2.8535    9.2803 O   0  0  0  0  0  0  0  0  0  0  0  0
   -0.4716   -2.9141   10.7299 C   0  0  0  0  0  0  0  0  0  0  0  0
   -0.4519   -4.3999   10.6553 C   0  0  0  0  0  0  0  0  0  0  0  0
   -0.1816   -5.3866   11.5125 C   0  0  0  0  0  0  0  0  0  0  0  0
    0.6517   -7.3046    5.9957 C   0  0  0  0  0  0  0  0  0  0  0  0
    0.4736   -5.4403    4.2720 C   0  0  0  0  0  0  0  0  0  0  0  0
    0.9559   -6.4745    3.2956 C   0  0  1  0  0  0  0  0  0  0  0  0
    2.0989   -6.3996    2.3668 C   0  0  0  0  0  0  0  0  0  0  0  0
    2.5428   -6.1433    1.1266 C   0  0  0  0  0  0  0  0  0  0  0  0
    1.4284   -9.5918    7.3044 H   0  0  0  0  0  0  0  0  0  0  0  0
    2.6191  -10.2214    6.0546 H   0  0  0  0  0  0  0  0  0  0  0  0
    3.4322   -8.6445    4.3129 H   0  0  0  0  0  0  0  0  0  0  0  0
    1.9018   -8.9059    3.5053 H   0  0  0  0  0  0  0  0  0  0  0  0
    4.1916   -6.3113    4.7714 H   0  0  0  0  0  0  0  0  0  0  0  0
    3.4225   -4.9990    3.9429 H   0  0  0  0  0  0  0  0  0  0  0  0
    2.7889   -5.8095    8.0541 H   0  0  0  0  0  0  0  0  0  0  0  0
    4.2566   -5.7294    7.1284 H   0  0  0  0  0  0  0  0  0  0  0  0
    3.2590   -7.1403    7.0610 H   0  0  0  0  0  0  0  0  0  0  0  0
    2.4540   -3.5012    6.9564 H   0  0  0  0  0  0  0  0  0  0  0  0
    2.2509   -3.3316    5.2095 H   0  0  0  0  0  0  0  0  0  0  0  0
    3.8214   -3.6830    5.8904 H   0  0  0  0  0  0  0  0  0  0  0  0
   -1.0121   -5.4330    6.6272 H   0  0  0  0  0  0  0  0  0  0  0  0
    0.4133   -2.7691    6.5893 H   0  0  0  0  0  0  0  0  0  0  0  0
   -1.2713   -3.1206    6.8216 H   0  0  0  0  0  0  0  0  0  0  0  0
   -0.5780   -3.3407    5.2543 H   0  0  0  0  0  0  0  0  0  0  0  0
    0.3218   -6.0258    8.5807 H   0  0  0  0  0  0  0  0  0  0  0  0
    1.2051   -4.5267    8.4897 H   0  0  0  0  0  0  0  0  0  0  0  0
   -1.8286   -4.4946    8.9479 H   0  0  0  0  0  0  0  0  0  0  0  0
    0.4315   -2.4222   11.0861 H   0  0  0  0  0  0  0  0  0  0  0  0
   -1.3458   -2.4556   11.1972 H   0  0  0  0  0  0  0  0  0  0  0  0
   -0.1952   -6.4200   11.2111 H   0  0  0  0  0  0  0  0  0  0  0  0
    0.0590   -5.1603   12.5400 H   0  0  0  0  0  0  0  0  0  0  0  0
   -0.3088   -7.5820    5.5582 H   0  0  0  0  0  0  0  0  0  0  0  0
    0.5198   -7.4746    7.0584 H   0  0  0  0  0  0  0  0  0  0  0  0
   -0.6081   -5.4538    4.2141 H   0  0  0  0  0  0  0  0  0  0  0  0
    0.8094   -4.4635    3.9264 H   0  0  0  0  0  0  0  0  0  0  0  0
    0.2515   -7.2893    3.1412 H   0  0  0  0  0  0  0  0  0  0  0  0
    3.5853   -6.2667    0.8683 H   0  0  0  0  0  0  0  0  0  0  0  0
    1.8715   -5.8092    0.3513 H   0  0  0  0  0  0  0  0  0  0  0  0
  1  2  2  0
  1 23  1  0
  1 24  1  0
  2 18  1  0
  2  3  1  0
  3  4  1  0
  3 25  1  0
  3 26  1  0
  4 20  1  0
  4 21  1  6
  4  5  1  0
  5  6  1  0
  5 27  1  0
  5 28  1  0
  6  7  1  0
  6  8  1  0
  9  6  1  6
  7 29  1  0
  7 30  1  0
  7 31  1  0
  8 32  1  0
  8 33  1  0
  8 34  1  0
  9 10  1  0
  9 18  1  0
  9 19  1  0
 10 11  1  0
 10 12  1  0
 10 35  1  1
 11 36  1  0
 11 37  1  0
 11 38  1  0
 12 13  1  0
 12 39  1  0
 12 40  1  0
 13 16  1  0
 13 14  1  0
 13 41  1  1
 14 15  1  0
 15 16  1  0
 15 42  1  0
 15 43  1  0
 16 17  2  0
 17 44  1  0
 17 45  1  0
 18 46  1  0
 18 47  1  0
 19 20  1  0
 19 48  1  0
 19 49  1  0
 20 21  1  0
 20 50  1  6
 21 22  2  0
 22 51  1  0
 22 52  1  0
M  END
>  <i_m_ct_stereo_status>  (288) 
1

>  <s_m_source_file>  (288) 
/var/tmp/pbs.5076255.sched01/tmphrhi8tfx/132_dydaaau.sdf

>  <i_m_source_file_index>  (288) 
5

>  <i_lp_mmshare_version>  (288) 
48012

>  <i_f3d_flags>  (288) 
0

>  <s_epik_input>  (288) 
W0NIMl09QzFbQ0hdKEMxMjMpW0NIMl1bQ0BAXShDKFtDSDJdMykoW0NIM10pW0NIM10pKFtDSDJdQyg9W0NIMl0pW0NIMl0yKVtDQEhdKFtDSDNdKVtDSDJdW0NAQEhdNE9bQ0gyXUM0PVtDSDJd

>  <s_epik_cmdline>  (288) 
J2VwaWtfcHl0aG9uJywgJy1waHQnLCAnMi4wJywgJy1waCcsICc3LjAnLCAnLXRuJywgJzgnLCAnLW1hJywgJzIwMCcsICctaW1hZScsICc8aW5maWxlLm1hZT4nLCAnLW9tYWUnLCAnPG91dGZpbGUubWFlPic=

>  <r_lp_tautomer_probability>  (288) 
1

>  <r_epik_Ionization_Penalty>  (288) 
2.79772e-12

>  <r_epik_Ionization_Penalty_Charging>  (288) 
0

>  <r_epik_Ionization_Penalty_Neutral>  (288) 
2.79772e-12

>  <r_epik_State_Penalty>  (288) 
-0

>  <r_epik_Charging_Adjusted_Penalty>  (288) 
0

>  <i_epik_Tot_Q>  (288) 
0

>  <i_epik_Tot_abs_Q>  (288) 
0

>  <s_lp_Force_Field>  (288) 
OPLS3e

>  <r_lp_Energy>  (288) 
57.438

>  <b_lp_Chiralities_Consistent>  (288) 
1

>  <s_lp_Variant>  (288) 
94:0-1

>  <s_i_glide_gridfile>  (288) 
pfpi4k_grid

>  <i_i_glide_lignum>  (288) 
5

>  <i_i_glide_rotatable_bonds>  (288) 
3

>  <r_i_docking_score>  (288) 
-2.02792

>  <r_i_glide_ligand_efficiency>  (288) 
-0.0921782

>  <r_i_glide_ligand_efficiency_sa>  (288) 
-0.258287

>  <r_i_glide_ligand_efficiency_ln>  (288) 
-0.495698

>  <r_i_glide_gscore>  (288) 
-2.02792

>  <r_i_glide_lipo>  (288) 
0

>  <r_i_glide_hbond>  (288) 
-0.16

>  <r_i_glide_metal>  (288) 
-0

>  <r_i_glide_rewards>  (288) 
-1.37412

>  <r_i_glide_evdw>  (288) 
-12.5473

>  <r_i_glide_ecoul>  (288) 
-3.22979

>  <r_i_glide_erotb>  (288) 
0.618032

>  <r_i_glide_esite>  (288) 
0

>  <r_i_glide_emodel>  (288) 
-18.3003

>  <r_i_glide_energy>  (288) 
-15.7771

>  <r_i_glide_einternal>  (288) 
0.257526

>  <r_i_glide_intrahb_reward>  (288) 
-0

>  <i_i_glide_confnum>  (288) 
2

>  <i_i_glide_posenum>  (288) 
35

>  <r_i_glide_eff_state_penalty>  (288) 
0

>  <ligand_id>  (288) 
94

>  <original_smiles>  (288) 
C=C1CC23CC(C)(C)C(C(C)CC4OCC4=C)(C1)CC2C3=C

>  <smiles>  (288) 
[H]C([H])=C1C([H])([H])C23C(=C([H])[H])C2([H])C([H])([H])C(C([H])(C([H])([H])[H])C([H])([H])C2([H])OC([H])([H])C2=C([H])[H])(C1([H])[H])C(C([H])([H])[H])(C([H])([H])[H])C3([H])[H]

$$$$
95:0:0
     RDKit          3D

 76 80  0  0  1  0  0  0  0  0999 V2000
    1.5173   -6.0468    0.2778 C   0  0  0  0  0  0  0  0  0  0  0  0
    2.2712   -5.4731    1.3277 O   0  0  0  0  0  0  0  0  0  0  0  0
    2.4362   -4.0621    1.3524 C   0  0  2  0  0  0  0  0  0  0  0  0
    2.6168   -3.3211   -0.0495 C   0  0  0  0  0  0  0  0  0  0  0  0
    3.8637   -3.4000   -1.0226 C   0  0  1  0  0  0  0  0  0  0  0  0
    3.4476   -2.9192   -2.4949 C   0  0  0  0  0  0  0  0  0  0  0  0
    4.3452   -3.5411   -3.5924 C   0  0  0  0  0  0  0  0  0  0  0  0
    2.0075   -3.2861   -2.9401 C   0  0  0  0  0  0  0  0  0  0  0  0
    3.5494   -1.3808   -2.5972 C   0  0  0  0  0  0  0  0  0  0  0  0
    2.7731   -0.7222   -3.2741 O   0  0  0  0  0  0  0  0  0  0  0  0
    4.7661   -0.6804   -2.0280 C   0  0  0  0  0  0  0  0  0  0  0  0
    5.1105   -1.1462   -0.6198 C   0  0  0  0  0  0  0  0  0  0  0  0
    5.2138   -2.6890   -0.4865 C   0  0  2  0  0  0  0  0  0  0  0  0
    6.4324   -3.1125   -1.3551 C   0  0  0  0  0  0  0  0  0  0  0  0
    5.6181   -3.1577    0.9464 C   0  0  2  0  0  0  0  0  0  0  0  0
    5.2371   -4.5256    0.8993 O   0  0  0  0  0  0  0  0  0  0  0  0
    5.2782   -5.3195    2.0568 C   0  0  0  0  0  0  0  0  0  0  0  0
    4.7238   -6.7075    1.6464 C   0  0  0  0  0  0  0  0  0  0  0  0
    6.7813   -5.5873    2.3226 C   0  0  0  0  0  0  0  0  0  0  0  0
    4.3601   -4.6234    3.1505 C   0  0  1  0  0  0  0  0  0  0  0  0
    5.2166   -3.7756    4.1290 C   0  0  1  0  0  0  0  0  0  0  0  0
    6.1184   -4.5152    4.8821 O   0  0  0  0  0  0  0  0  0  0  0  0
    5.8026   -2.7135    3.4038 O   0  0  0  0  0  0  0  0  0  0  0  0
    5.1956   -2.2780    2.1819 C   0  0  2  0  0  0  0  0  0  0  0  0
    3.7128   -2.1703    2.4615 C   0  0  2  0  0  0  0  0  0  0  0  0
    3.1789   -1.0117    3.3775 C   0  0  0  0  0  0  0  0  0  0  0  0
    3.6892   -0.9089    4.8366 C   0  0  0  0  0  0  0  0  0  0  0  0
    3.5107    0.3498    2.7346 C   0  0  0  0  0  0  0  0  0  0  0  0
    1.6447   -1.1645    3.3682 C   0  0  0  0  0  0  0  0  0  0  0  0
    1.1687   -2.4889    3.9797 C   0  0  0  0  0  0  0  0  0  0  0  0
    2.1450   -3.6734    3.8454 C   0  0  0  0  0  0  0  0  0  0  0  0
    3.1911   -3.6311    2.6722 C   0  0  1  0  0  0  0  0  0  0  0  0
    1.3652   -7.1002    0.5005 H   0  0  0  0  0  0  0  0  0  0  0  0
    2.0248   -5.9414   -0.6809 H   0  0  0  0  0  0  0  0  0  0  0  0
    0.5419   -5.6019    0.1506 H   0  0  0  0  0  0  0  0  0  0  0  0
    1.4419   -3.7343    1.6421 H   0  0  0  0  0  0  0  0  0  0  0  0
    1.7789   -3.7070   -0.5936 H   0  0  0  0  0  0  0  0  0  0  0  0
    2.3079   -2.2805    0.0032 H   0  0  0  0  0  0  0  0  0  0  0  0
    4.0623   -4.4714   -1.1280 H   0  0  0  0  0  0  0  0  0  0  0  0
    4.8917   -4.4171   -3.2466 H   0  0  0  0  0  0  0  0  0  0  0  0
    5.0690   -2.8106   -3.9309 H   0  0  0  0  0  0  0  0  0  0  0  0
    3.7995   -3.8533   -4.4835 H   0  0  0  0  0  0  0  0  0  0  0  0
    1.7866   -4.3219   -2.7545 H   0  0  0  0  0  0  0  0  0  0  0  0
    1.8304   -3.1060   -4.0029 H   0  0  0  0  0  0  0  0  0  0  0  0
    1.2498   -2.7264   -2.4029 H   0  0  0  0  0  0  0  0  0  0  0  0
    5.5816   -0.8616   -2.7265 H   0  0  0  0  0  0  0  0  0  0  0  0
    4.5653    0.3836   -2.0730 H   0  0  0  0  0  0  0  0  0  0  0  0
    6.0319   -0.6646   -0.2810 H   0  0  0  0  0  0  0  0  0  0  0  0
    4.3137   -0.7601    0.0042 H   0  0  0  0  0  0  0  0  0  0  0  0
    7.3919   -2.7898   -0.9404 H   0  0  0  0  0  0  0  0  0  0  0  0
    6.4556   -2.7232   -2.3707 H   0  0  0  0  0  0  0  0  0  0  0  0
    6.4363   -4.1978   -1.4218 H   0  0  0  0  0  0  0  0  0  0  0  0
    6.7062   -3.1454    1.0078 H   0  0  0  0  0  0  0  0  0  0  0  0
    3.9648   -7.0629    2.3412 H   0  0  0  0  0  0  0  0  0  0  0  0
    5.4948   -7.4811    1.6220 H   0  0  0  0  0  0  0  0  0  0  0  0
    4.2942   -6.6792    0.6463 H   0  0  0  0  0  0  0  0  0  0  0  0
    6.9500   -6.2625    3.1678 H   0  0  0  0  0  0  0  0  0  0  0  0
    7.3556   -4.6756    2.4543 H   0  0  0  0  0  0  0  0  0  0  0  0
    7.2578   -6.0598    1.4618 H   0  0  0  0  0  0  0  0  0  0  0  0
    3.9291   -5.4145    3.7613 H   0  0  0  0  0  0  0  0  0  0  0  0
    4.5703   -3.3363    4.8769 H   0  0  0  0  0  0  0  0  0  0  0  0
    5.6407   -5.1464    5.3878 H   0  0  0  0  0  0  0  0  0  0  0  0
    5.6022   -1.2948    2.0075 H   0  0  0  0  0  0  0  0  0  0  0  0
    3.3497   -1.7667    1.5544 H   0  0  0  0  0  0  0  0  0  0  0  0
    3.3200    0.0026    5.3118 H   0  0  0  0  0  0  0  0  0  0  0  0
    4.7772   -0.8749    4.9019 H   0  0  0  0  0  0  0  0  0  0  0  0
    3.3345   -1.7144    5.4714 H   0  0  0  0  0  0  0  0  0  0  0  0
    3.0599    1.1781    3.2825 H   0  0  0  0  0  0  0  0  0  0  0  0
    3.1486    0.4245    1.7088 H   0  0  0  0  0  0  0  0  0  0  0  0
    4.5868    0.5185    2.7265 H   0  0  0  0  0  0  0  0  0  0  0  0
    1.1612   -0.3126    3.8565 H   0  0  0  0  0  0  0  0  0  0  0  0
    1.3138   -1.1454    2.3296 H   0  0  0  0  0  0  0  0  0  0  0  0
    1.0122   -2.3269    5.0431 H   0  0  0  0  0  0  0  0  0  0  0  0
    0.1947   -2.7505    3.5673 H   0  0  0  0  0  0  0  0  0  0  0  0
    2.6362   -3.7862    4.8101 H   0  0  0  0  0  0  0  0  0  0  0  0
    1.5694   -4.5946    3.7768 H   0  0  0  0  0  0  0  0  0  0  0  0
  1  2  1  0
  1 33  1  0
  1 34  1  0
  1 35  1  0
  2  3  1  0
  3 32  1  0
  3  4  1  0
  3 36  1  1
  4  5  1  0
  4 37  1  0
  4 38  1  0
  5 13  1  0
  5  6  1  0
  5 39  1  6
  6  7  1  0
  6  8  1  0
  6  9  1  0
  7 40  1  0
  7 41  1  0
  7 42  1  0
  8 43  1  0
  8 44  1  0
  8 45  1  0
  9 10  2  0
  9 11  1  0
 11 12  1  0
 11 46  1  0
 11 47  1  0
 12 13  1  0
 12 48  1  0
 12 49  1  0
 13 14  1  6
 13 15  1  0
 14 50  1  0
 14 51  1  0
 14 52  1  0
 15 24  1  0
 15 16  1  0
 15 53  1  6
 16 17  1  0
 17 18  1  0
 17 19  1  0
 17 20  1  0
 18 54  1  0
 18 55  1  0
 18 56  1  0
 19 57  1  0
 19 58  1  0
 19 59  1  0
 20 32  1  0
 20 21  1  0
 20 60  1  1
 21 22  1  0
 21 23  1  0
 21 61  1  1
 22 62  1  0
 23 24  1  0
 24 25  1  0
 24 63  1  6
 25 32  1  0
 25 26  1  0
 25 64  1  6
 26 27  1  0
 26 28  1  0
 26 29  1  0
 27 65  1  0
 27 66  1  0
 27 67  1  0
 28 68  1  0
 28 69  1  0
 28 70  1  0
 29 30  1  0
 29 71  1  0
 29 72  1  0
 30 31  1  0
 30 73  1  0
 30 74  1  0
 32 31  1  1
 31 75  1  0
 31 76  1  0
M  END
>  <i_m_ct_stereo_status>  (289) 
1

>  <s_m_source_file>  (289) 
/var/tmp/pbs.5076255.sched01/tmphrhi8tfx/132_dydaaau.sdf

>  <i_m_source_file_index>  (289) 
6

>  <i_lp_mmshare_version>  (289) 
48012

>  <i_f3d_flags>  (289) 
0

>  <s_epik_input>  (289) 
W0NIM11PW0NAQEhdMVtDSDJdW0NAQEhdKEMoW0NIM10pKFtDSDNdKUMoPU8pW0NIMl1bQ0gyXTIpW0NAXTIoW0NIM10pW0NASF0oT0MoW0NIM10pKFtDSDNdKVtDQEBIXTNbQ0BdMTQ1KVtDQEhdKE9bQ0BASF0zW09IXSlbQ0BASF00QyhbQ0gzXSkoW0NIM10pW0NIMl1bQ0gyXVtDSDJdNQ==

>  <s_epik_cmdline>  (289) 
J2VwaWtfcHl0aG9uJywgJy1waHQnLCAnMi4wJywgJy1waCcsICc3LjAnLCAnLXRuJywgJzgnLCAnLW1hJywgJzIwMCcsICctaW1hZScsICc8aW5maWxlLm1hZT4nLCAnLW9tYWUnLCAnPG91dGZpbGUubWFlPic=

>  <r_lp_tautomer_probability>  (289) 
1

>  <r_epik_Ionization_Penalty>  (289) 
1.37637e-07

>  <r_epik_Ionization_Penalty_Charging>  (289) 
0

>  <r_epik_Ionization_Penalty_Neutral>  (289) 
1.37637e-07

>  <r_epik_State_Penalty>  (289) 
-0

>  <r_epik_Charging_Adjusted_Penalty>  (289) 
0

>  <i_epik_Tot_Q>  (289) 
0

>  <i_epik_Tot_abs_Q>  (289) 
0

>  <s_epik_Chemistry_Notes>  (289) 
This compound contains an acetal/aminal-like group ( X-CH(R)-Y where X, Y are N, S, or O) that may be acid/base labile, releasing an aldehyde.

>  <s_lp_Force_Field>  (289) 
OPLS3e

>  <r_lp_Energy>  (289) 
135.597

>  <b_lp_Chiralities_Consistent>  (289) 
1

>  <s_lp_Variant>  (289) 
95:0-1

>  <s_i_glide_gridfile>  (289) 
pfpi4k_grid

>  <i_i_glide_lignum>  (289) 
6

>  <i_i_glide_rotatable_bonds>  (289) 
2

>  <r_i_docking_score>  (289) 
-1.975

>  <r_i_glide_ligand_efficiency>  (289) 
-0.0617186

>  <r_i_glide_ligand_efficiency_sa>  (289) 
-0.195944

>  <r_i_glide_ligand_efficiency_ln>  (289) 
-0.442255

>  <r_i_glide_gscore>  (289) 
-1.975

>  <r_i_glide_lipo>  (289) 
-0.747729

>  <r_i_glide_hbond>  (289) 
0

>  <r_i_glide_metal>  (289) 
-0

>  <r_i_glide_rewards>  (289) 
-0.381516

>  <r_i_glide_evdw>  (289) 
-15.0393

>  <r_i_glide_ecoul>  (289) 
-0.233279

>  <r_i_glide_erotb>  (289) 
0

>  <r_i_glide_esite>  (289) 
-0.0587925

>  <r_i_glide_emodel>  (289) 
-13.5715

>  <r_i_glide_energy>  (289) 
-15.2726

>  <r_i_glide_einternal>  (289) 
2.35932

>  <r_i_glide_intrahb_reward>  (289) 
-0

>  <i_i_glide_confnum>  (289) 
1

>  <i_i_glide_posenum>  (289) 
5

>  <r_i_glide_eff_state_penalty>  (289) 
0

>  <ligand_id>  (289) 
95

>  <original_smiles>  (289) 
COC1CC2C(C)(C)C(=O)CCC2(C)C2OC(C)(C)C3C(O)OC2C2C(C)(C)CCCC123

>  <smiles>  (289) 
[H]OC1([H])OC2([H])C3([H])OC(C([H])([H])[H])(C([H])([H])[H])C1([H])C1(C([H])([H])C([H])([H])C([H])([H])C(C([H])([H])[H])(C([H])([H])[H])C21[H])C([H])(OC([H])([H])[H])C([H])([H])C1([H])C(C([H])([H])[H])(C([H])([H])[H])C(=O)C([H])([H])C([H])([H])C31C([H])([H])[H]

$$$$
95:0:1
     RDKit          3D

 76 80  0  0  1  0  0  0  0  0999 V2000
    1.4682   -6.0696    0.4476 C   0  0  0  0  0  0  0  0  0  0  0  0
    1.9099   -5.4515    1.6525 O   0  0  0  0  0  0  0  0  0  0  0  0
    2.3294   -4.0722    1.6097 C   0  0  2  0  0  0  0  0  0  0  0  0
    2.5077   -3.3471    0.2035 C   0  0  0  0  0  0  0  0  0  0  0  0
    3.7359   -3.4992   -0.7695 C   0  0  1  0  0  0  0  0  0  0  0  0
    3.3554   -3.0448   -2.2696 C   0  0  0  0  0  0  0  0  0  0  0  0
    4.2598   -3.7482   -3.3357 C   0  0  0  0  0  0  0  0  0  0  0  0
    1.9058   -3.4173   -2.7047 C   0  0  0  0  0  0  0  0  0  0  0  0
    3.5363   -1.5369   -2.4374 C   0  0  0  0  0  0  0  0  0  0  0  0
    2.7625   -0.8528   -3.1377 O   0  0  0  0  0  0  0  0  0  0  0  0
    4.7549   -0.8637   -1.8470 C   0  0  0  0  0  0  0  0  0  0  0  0
    5.0417   -1.2893   -0.3966 C   0  0  0  0  0  0  0  0  0  0  0  0
    5.0753   -2.8247   -0.2164 C   0  0  2  0  0  0  0  0  0  0  0  0
    6.2900   -3.3675   -1.0304 C   0  0  0  0  0  0  0  0  0  0  0  0
    5.4519   -3.2767    1.2469 C   0  0  2  0  0  0  0  0  0  0  0  0
    5.0141   -4.6360    1.2434 O   0  0  0  0  0  0  0  0  0  0  0  0
    4.9847   -5.4030    2.4255 C   0  0  0  0  0  0  0  0  0  0  0  0
    4.3557   -6.7654    2.0519 C   0  0  0  0  0  0  0  0  0  0  0  0
    6.4512   -5.7344    2.7305 C   0  0  0  0  0  0  0  0  0  0  0  0
    4.1149   -4.6229    3.5049 C   0  0  1  0  0  0  0  0  0  0  0  0
    5.0166   -3.7532    4.4038 C   0  0  1  0  0  0  0  0  0  0  0  0
    5.8321   -4.5554    5.2730 O   0  0  0  0  0  0  0  0  0  0  0  0
    5.7424   -2.8473    3.6514 O   0  0  0  0  0  0  0  0  0  0  0  0
    5.0959   -2.3381    2.4619 C   0  0  2  0  0  0  0  0  0  0  0  0
    3.6061   -2.1655    2.7345 C   0  0  2  0  0  0  0  0  0  0  0  0
    3.0516   -0.9511    3.5539 C   0  0  0  0  0  0  0  0  0  0  0  0
    3.5221   -0.8161    5.0304 C   0  0  0  0  0  0  0  0  0  0  0  0
    3.4445    0.3816    2.8717 C   0  0  0  0  0  0  0  0  0  0  0  0
    1.5149   -1.0451    3.5084 C   0  0  0  0  0  0  0  0  0  0  0  0
    0.9624   -2.3275    4.1540 C   0  0  0  0  0  0  0  0  0  0  0  0
    1.9028   -3.5500    4.0967 C   0  0  0  0  0  0  0  0  0  0  0  0
    3.0058   -3.6034    2.9611 C   0  0  1  0  0  0  0  0  0  0  0  0
    1.2221   -7.1151    0.6398 H   0  0  0  0  0  0  0  0  0  0  0  0
    2.2602   -6.0512   -0.3009 H   0  0  0  0  0  0  0  0  0  0  0  0
    0.5840   -5.6051    0.0105 H   0  0  0  0  0  0  0  0  0  0  0  0
    1.4168   -3.5419    1.7973 H   0  0  0  0  0  0  0  0  0  0  0  0
    1.6349   -3.6757   -0.3226 H   0  0  0  0  0  0  0  0  0  0  0  0
    2.2843   -2.2870    0.2350 H   0  0  0  0  0  0  0  0  0  0  0  0
    3.8940   -4.5687   -0.8391 H   0  0  0  0  0  0  0  0  0  0  0  0
    4.7506   -4.6316   -2.9351 H   0  0  0  0  0  0  0  0  0  0  0  0
    5.0212   -3.0746   -3.7327 H   0  0  0  0  0  0  0  0  0  0  0  0
    3.6959   -4.0842   -4.2012 H   0  0  0  0  0  0  0  0  0  0  0  0
    1.6559   -4.4387   -2.4484 H   0  0  0  0  0  0  0  0  0  0  0  0
    1.7714   -3.2731   -3.7791 H   0  0  0  0  0  0  0  0  0  0  0  0
    1.1461   -2.7882   -2.2345 H   0  0  0  0  0  0  0  0  0  0  0  0
    5.5863   -1.1058   -2.5022 H   0  0  0  0  0  0  0  0  0  0  0  0
    4.5966    0.1986   -1.9010 H   0  0  0  0  0  0  0  0  0  0  0  0
    5.9728   -0.8367   -0.0543 H   0  0  0  0  0  0  0  0  0  0  0  0
    4.2442   -0.8433    0.2086 H   0  0  0  0  0  0  0  0  0  0  0  0
    7.2435   -3.0542   -0.6012 H   0  0  0  0  0  0  0  0  0  0  0  0
    6.3247   -3.0197   -2.0599 H   0  0  0  0  0  0  0  0  0  0  0  0
    6.2050   -4.4529   -1.0396 H   0  0  0  0  0  0  0  0  0  0  0  0
    6.5307   -3.3240    1.3207 H   0  0  0  0  0  0  0  0  0  0  0  0
    3.5568   -7.0578    2.7361 H   0  0  0  0  0  0  0  0  0  0  0  0
    5.0883   -7.5752    2.0812 H   0  0  0  0  0  0  0  0  0  0  0  0
    3.9773   -6.7597    1.0330 H   0  0  0  0  0  0  0  0  0  0  0  0
    6.5551   -6.4041    3.5907 H   0  0  0  0  0  0  0  0  0  0  0  0
    7.0250   -4.8297    2.8828 H   0  0  0  0  0  0  0  0  0  0  0  0
    6.9118   -6.2418    1.8786 H   0  0  0  0  0  0  0  0  0  0  0  0
    3.6159   -5.3506    4.1368 H   0  0  0  0  0  0  0  0  0  0  0  0
    4.4066   -3.1891    5.1047 H   0  0  0  0  0  0  0  0  0  0  0  0
    6.1492   -5.2701    4.7708 H   0  0  0  0  0  0  0  0  0  0  0  0
    5.5403   -1.3653    2.2589 H   0  0  0  0  0  0  0  0  0  0  0  0
    3.2701   -1.7886    1.8008 H   0  0  0  0  0  0  0  0  0  0  0  0
    3.1733    0.1284    5.4505 H   0  0  0  0  0  0  0  0  0  0  0  0
    4.6087   -0.8292    5.1037 H   0  0  0  0  0  0  0  0  0  0  0  0
    3.1112   -1.5970    5.6728 H   0  0  0  0  0  0  0  0  0  0  0  0
    3.0033    1.2361    3.3849 H   0  0  0  0  0  0  0  0  0  0  0  0
    3.0954    0.4223    1.8326 H   0  0  0  0  0  0  0  0  0  0  0  0
    4.5231    0.5146    2.8783 H   0  0  0  0  0  0  0  0  0  0  0  0
    1.0436   -0.1665    3.9547 H   0  0  0  0  0  0  0  0  0  0  0  0
    1.1884   -1.0375    2.4588 H   0  0  0  0  0  0  0  0  0  0  0  0
    0.7635   -2.1131    5.2076 H   0  0  0  0  0  0  0  0  0  0  0  0
   -0.0069   -2.5591    3.7259 H   0  0  0  0  0  0  0  0  0  0  0  0
    2.3597   -3.6444    5.0829 H   0  0  0  0  0  0  0  0  0  0  0  0
    1.2847   -4.4448    4.0318 H   0  0  0  0  0  0  0  0  0  0  0  0
  1  2  1  0
  1 33  1  0
  1 34  1  0
  1 35  1  0
  2  3  1  0
  3 32  1  0
  3  4  1  0
  3 36  1  1
  4  5  1  0
  4 37  1  0
  4 38  1  0
  5 13  1  0
  5  6  1  0
  5 39  1  6
  6  7  1  0
  6  8  1  0
  6  9  1  0
  7 40  1  0
  7 41  1  0
  7 42  1  0
  8 43  1  0
  8 44  1  0
  8 45  1  0
  9 10  2  0
  9 11  1  0
 11 12  1  0
 11 46  1  0
 11 47  1  0
 12 13  1  0
 12 48  1  0
 12 49  1  0
 13 14  1  6
 13 15  1  0
 14 50  1  0
 14 51  1  0
 14 52  1  0
 15 24  1  0
 15 16  1  0
 15 53  1  6
 16 17  1  0
 17 18  1  0
 17 19  1  0
 17 20  1  0
 18 54  1  0
 18 55  1  0
 18 56  1  0
 19 57  1  0
 19 58  1  0
 19 59  1  0
 20 32  1  0
 20 21  1  0
 20 60  1  1
 21 22  1  0
 21 23  1  0
 21 61  1  1
 22 62  1  0
 23 24  1  0
 24 25  1  0
 24 63  1  6
 25 32  1  0
 25 26  1  0
 25 64  1  6
 26 27  1  0
 26 28  1  0
 26 29  1  0
 27 65  1  0
 27 66  1  0
 27 67  1  0
 28 68  1  0
 28 69  1  0
 28 70  1  0
 29 30  1  0
 29 71  1  0
 29 72  1  0
 30 31  1  0
 30 73  1  0
 30 74  1  0
 32 31  1  1
 31 75  1  0
 31 76  1  0
M  END
>  <i_m_ct_stereo_status>  (290) 
1

>  <s_m_source_file>  (290) 
/var/tmp/pbs.5076255.sched01/tmphrhi8tfx/132_dydaaau.sdf

>  <i_m_source_file_index>  (290) 
6

>  <i_lp_mmshare_version>  (290) 
48012

>  <i_f3d_flags>  (290) 
0

>  <s_epik_input>  (290) 
W0NIM11PW0NAQEhdMVtDSDJdW0NAQEhdKEMoW0NIM10pKFtDSDNdKUMoPU8pW0NIMl1bQ0gyXTIpW0NAXTIoW0NIM10pW0NASF0oT0MoW0NIM10pKFtDSDNdKVtDQEBIXTNbQ0BdMTQ1KVtDQEhdKE9bQ0BASF0zW09IXSlbQ0BASF00QyhbQ0gzXSkoW0NIM10pW0NIMl1bQ0gyXVtDSDJdNQ==

>  <s_epik_cmdline>  (290) 
J2VwaWtfcHl0aG9uJywgJy1waHQnLCAnMi4wJywgJy1waCcsICc3LjAnLCAnLXRuJywgJzgnLCAnLW1hJywgJzIwMCcsICctaW1hZScsICc8aW5maWxlLm1hZT4nLCAnLW9tYWUnLCAnPG91dGZpbGUubWFlPic=

>  <r_lp_tautomer_probability>  (290) 
1

>  <r_epik_Ionization_Penalty>  (290) 
1.37637e-07

>  <r_epik_Ionization_Penalty_Charging>  (290) 
0

>  <r_epik_Ionization_Penalty_Neutral>  (290) 
1.37637e-07

>  <r_epik_State_Penalty>  (290) 
-0

>  <r_epik_Charging_Adjusted_Penalty>  (290) 
0

>  <i_epik_Tot_Q>  (290) 
0

>  <i_epik_Tot_abs_Q>  (290) 
0

>  <s_epik_Chemistry_Notes>  (290) 
This compound contains an acetal/aminal-like group ( X-CH(R)-Y where X, Y are N, S, or O) that may be acid/base labile, releasing an aldehyde.

>  <s_lp_Force_Field>  (290) 
OPLS3e

>  <r_lp_Energy>  (290) 
135.597

>  <b_lp_Chiralities_Consistent>  (290) 
1

>  <s_lp_Variant>  (290) 
95:0-1

>  <s_i_glide_gridfile>  (290) 
pfpi4k_grid

>  <i_i_glide_lignum>  (290) 
6

>  <i_i_glide_rotatable_bonds>  (290) 
2

>  <r_i_docking_score>  (290) 
-1.94183

>  <r_i_glide_ligand_efficiency>  (290) 
-0.0606822

>  <r_i_glide_ligand_efficiency_sa>  (290) 
-0.192654

>  <r_i_glide_ligand_efficiency_ln>  (290) 
-0.434829

>  <r_i_glide_gscore>  (290) 
-1.94183

>  <r_i_glide_lipo>  (290) 
-0.590409

>  <r_i_glide_hbond>  (290) 
-0.0242021

>  <r_i_glide_metal>  (290) 
-0

>  <r_i_glide_rewards>  (290) 
-0.379046

>  <r_i_glide_evdw>  (290) 
-16.105

>  <r_i_glide_ecoul>  (290) 
-0.57135

>  <r_i_glide_erotb>  (290) 
0

>  <r_i_glide_esite>  (290) 
-0.0572229

>  <r_i_glide_emodel>  (290) 
-14.0785

>  <r_i_glide_energy>  (290) 
-16.6763

>  <r_i_glide_einternal>  (290) 
2.15395

>  <r_i_glide_intrahb_reward>  (290) 
-0

>  <i_i_glide_confnum>  (290) 
1

>  <i_i_glide_posenum>  (290) 
26

>  <r_i_glide_eff_state_penalty>  (290) 
0

>  <ligand_id>  (290) 
95

>  <original_smiles>  (290) 
COC1CC2C(C)(C)C(=O)CCC2(C)C2OC(C)(C)C3C(O)OC2C2C(C)(C)CCCC123

>  <smiles>  (290) 
[H]OC1([H])OC2([H])C3([H])OC(C([H])([H])[H])(C([H])([H])[H])C1([H])C1(C([H])([H])C([H])([H])C([H])([H])C(C([H])([H])[H])(C([H])([H])[H])C21[H])C([H])(OC([H])([H])[H])C([H])([H])C1([H])C(C([H])([H])[H])(C([H])([H])[H])C(=O)C([H])([H])C([H])([H])C31C([H])([H])[H]

$$$$
95:0:2
     RDKit          3D

 76 80  0  0  1  0  0  0  0  0999 V2000
    0.9940   -6.5098    0.5540 C   0  0  0  0  0  0  0  0  0  0  0  0
    2.2944   -5.9464    0.4372 O   0  0  0  0  0  0  0  0  0  0  0  0
    2.4801   -4.5907    0.8159 C   0  0  2  0  0  0  0  0  0  0  0  0
    2.6148   -3.6315   -0.4435 C   0  0  0  0  0  0  0  0  0  0  0  0
    3.8508   -3.4990   -1.4356 C   0  0  1  0  0  0  0  0  0  0  0  0
    3.4219   -2.7662   -2.7949 C   0  0  0  0  0  0  0  0  0  0  0  0
    4.2798   -3.1759   -4.0033 C   0  0  0  0  0  0  0  0  0  0  0  0
    1.9810   -3.0917   -3.2610 C   0  0  0  0  0  0  0  0  0  0  0  0
    3.5433   -1.2466   -2.6439 C   0  0  0  0  0  0  0  0  0  0  0  0
    2.7537   -0.4769   -3.1967 O   0  0  0  0  0  0  0  0  0  0  0  0
    4.7696   -0.6781   -1.9695 C   0  0  0  0  0  0  0  0  0  0  0  0
    5.1408   -1.3915   -0.6638 C   0  0  0  0  0  0  0  0  0  0  0  0
    5.2216   -2.9246   -0.8298 C   0  0  2  0  0  0  0  0  0  0  0  0
    6.4021   -3.1987   -1.8065 C   0  0  0  0  0  0  0  0  0  0  0  0
    5.6693   -3.6745    0.4691 C   0  0  2  0  0  0  0  0  0  0  0  0
    5.2522   -5.0125    0.1952 O   0  0  0  0  0  0  0  0  0  0  0  0
    5.3037   -6.0142    1.1791 C   0  0  0  0  0  0  0  0  0  0  0  0
    4.6812   -7.2760    0.5427 C   0  0  0  0  0  0  0  0  0  0  0  0
    6.8130   -6.3493    1.3746 C   0  0  0  0  0  0  0  0  0  0  0  0
    4.4408   -5.5248    2.4065 C   0  0  1  0  0  0  0  0  0  0  0  0
    5.3741   -4.8791    3.4528 C   0  0  1  0  0  0  0  0  0  0  0  0
    6.2527   -5.7757    4.0691 O   0  0  0  0  0  0  0  0  0  0  0  0
    6.0100   -3.7927    2.8607 O   0  0  0  0  0  0  0  0  0  0  0  0
    5.3214   -3.0559    1.8670 C   0  0  2  0  0  0  0  0  0  0  0  0
    3.8418   -2.9805    2.2233 C   0  0  2  0  0  0  0  0  0  0  0  0
    3.3293   -1.9882    3.3372 C   0  0  0  0  0  0  0  0  0  0  0  0
    3.8588   -2.1755    4.7797 C   0  0  0  0  0  0  0  0  0  0  0  0
    3.6630   -0.5267    2.9511 C   0  0  0  0  0  0  0  0  0  0  0  0
    1.7908   -2.1154    3.3322 C   0  0  0  0  0  0  0  0  0  0  0  0
    1.2989   -3.5188    3.7092 C   0  0  0  0  0  0  0  0  0  0  0  0
    2.2628   -4.6714    3.3472 C   0  0  0  0  0  0  0  0  0  0  0  0
    3.2778   -4.4405    2.1692 C   0  0  1  0  0  0  0  0  0  0  0  0
    1.0587   -7.5939    0.4736 H   0  0  0  0  0  0  0  0  0  0  0  0
    0.3400   -6.1343   -0.2311 H   0  0  0  0  0  0  0  0  0  0  0  0
    0.5193   -6.3219    1.5133 H   0  0  0  0  0  0  0  0  0  0  0  0
    1.5108   -4.2814    1.1693 H   0  0  0  0  0  0  0  0  0  0  0  0
    1.7753   -4.0096   -1.0177 H   0  0  0  0  0  0  0  0  0  0  0  0
    2.2835   -2.6235   -0.2004 H   0  0  0  0  0  0  0  0  0  0  0  0
    4.0853   -4.5213   -1.7257 H   0  0  0  0  0  0  0  0  0  0  0  0
    4.8288   -4.0948   -3.8434 H   0  0  0  0  0  0  0  0  0  0  0  0
    4.9946   -2.3904   -4.2865 H   0  0  0  0  0  0  0  0  0  0  0  0
    3.6767   -3.3466   -4.8812 H   0  0  0  0  0  0  0  0  0  0  0  0
    1.8101   -4.1655   -3.3162 H   0  0  0  0  0  0  0  0  0  0  0  0
    1.7590   -2.6790   -4.2485 H   0  0  0  0  0  0  0  0  0  0  0  0
    1.2374   -2.6694   -2.5933 H   0  0  0  0  0  0  0  0  0  0  0  0
    5.5766   -0.7121   -2.6901 H   0  0  0  0  0  0  0  0  0  0  0  0
    4.5876    0.3701   -1.8006 H   0  0  0  0  0  0  0  0  0  0  0  0
    6.0811   -0.9989   -0.2686 H   0  0  0  0  0  0  0  0  0  0  0  0
    4.3717   -1.1247    0.0447 H   0  0  0  0  0  0  0  0  0  0  0  0
    7.3862   -3.0094   -1.3656 H   0  0  0  0  0  0  0  0  0  0  0  0
    6.4134   -2.6098   -2.7151 H   0  0  0  0  0  0  0  0  0  0  0  0
    6.3376   -4.2315   -2.1345 H   0  0  0  0  0  0  0  0  0  0  0  0
    6.7592   -3.7039    0.4919 H   0  0  0  0  0  0  0  0  0  0  0  0
    3.9108   -7.7230    1.1663 H   0  0  0  0  0  0  0  0  0  0  0  0
    5.4105   -8.0774    0.4015 H   0  0  0  0  0  0  0  0  0  0  0  0
    4.2475   -7.0596   -0.4321 H   0  0  0  0  0  0  0  0  0  0  0  0
    6.9559   -7.1985    2.0422 H   0  0  0  0  0  0  0  0  0  0  0  0
    7.4090   -5.5244    1.7625 H   0  0  0  0  0  0  0  0  0  0  0  0
    7.2818   -6.6178    0.4298 H   0  0  0  0  0  0  0  0  0  0  0  0
    4.0136   -6.4021    2.9016 H   0  0  0  0  0  0  0  0  0  0  0  0
    4.8072   -4.4802    4.2767 H   0  0  0  0  0  0  0  0  0  0  0  0
    6.0439   -5.7873    5.0083 H   0  0  0  0  0  0  0  0  0  0  0  0
    5.7587   -2.0631    1.8972 H   0  0  0  0  0  0  0  0  0  0  0  0
    3.4576   -2.4258    1.4004 H   0  0  0  0  0  0  0  0  0  0  0  0
    3.5117   -1.3657    5.4284 H   0  0  0  0  0  0  0  0  0  0  0  0
    4.9491   -2.1773    4.8243 H   0  0  0  0  0  0  0  0  0  0  0  0
    3.4971   -3.0844    5.2544 H   0  0  0  0  0  0  0  0  0  0  0  0
    3.2199    0.1811    3.6556 H   0  0  0  0  0  0  0  0  0  0  0  0
    3.2706   -0.2655    1.9687 H   0  0  0  0  0  0  0  0  0  0  0  0
    4.7373   -0.3370    2.9457 H   0  0  0  0  0  0  0  0  0  0  0  0
    1.3254   -1.3657    3.9801 H   0  0  0  0  0  0  0  0  0  0  0  0
    1.4284   -1.8965    2.3273 H   0  0  0  0  0  0  0  0  0  0  0  0
    1.1522   -3.5510    4.7861 H   0  0  0  0  0  0  0  0  0  0  0  0
    0.3093   -3.6771    3.2823 H   0  0  0  0  0  0  0  0  0  0  0  0
    2.7869   -4.9488    4.2600 H   0  0  0  0  0  0  0  0  0  0  0  0
    1.6718   -5.5608    3.1624 H   0  0  0  0  0  0  0  0  0  0  0  0
  1  2  1  0
  1 33  1  0
  1 34  1  0
  1 35  1  0
  2  3  1  0
  3 32  1  0
  3  4  1  0
  3 36  1  1
  4  5  1  0
  4 37  1  0
  4 38  1  0
  5 13  1  0
  5  6  1  0
  5 39  1  6
  6  7  1  0
  6  8  1  0
  6  9  1  0
  7 40  1  0
  7 41  1  0
  7 42  1  0
  8 43  1  0
  8 44  1  0
  8 45  1  0
  9 10  2  0
  9 11  1  0
 11 12  1  0
 11 46  1  0
 11 47  1  0
 12 13  1  0
 12 48  1  0
 12 49  1  0
 13 14  1  6
 13 15  1  0
 14 50  1  0
 14 51  1  0
 14 52  1  0
 15 24  1  0
 15 16  1  0
 15 53  1  6
 16 17  1  0
 17 18  1  0
 17 19  1  0
 17 20  1  0
 18 54  1  0
 18 55  1  0
 18 56  1  0
 19 57  1  0
 19 58  1  0
 19 59  1  0
 20 32  1  0
 20 21  1  0
 20 60  1  1
 21 22  1  0
 21 23  1  0
 21 61  1  1
 22 62  1  0
 23 24  1  0
 24 25  1  0
 24 63  1  6
 25 32  1  0
 25 26  1  0
 25 64  1  6
 26 27  1  0
 26 28  1  0
 26 29  1  0
 27 65  1  0
 27 66  1  0
 27 67  1  0
 28 68  1  0
 28 69  1  0
 28 70  1  0
 29 30  1  0
 29 71  1  0
 29 72  1  0
 30 31  1  0
 30 73  1  0
 30 74  1  0
 32 31  1  1
 31 75  1  0
 31 76  1  0
M  END
>  <i_m_ct_stereo_status>  (291) 
1

>  <s_m_source_file>  (291) 
/var/tmp/pbs.5076255.sched01/tmphrhi8tfx/132_dydaaau.sdf

>  <i_m_source_file_index>  (291) 
6

>  <i_lp_mmshare_version>  (291) 
48012

>  <i_f3d_flags>  (291) 
0

>  <s_epik_input>  (291) 
W0NIM11PW0NAQEhdMVtDSDJdW0NAQEhdKEMoW0NIM10pKFtDSDNdKUMoPU8pW0NIMl1bQ0gyXTIpW0NAXTIoW0NIM10pW0NASF0oT0MoW0NIM10pKFtDSDNdKVtDQEBIXTNbQ0BdMTQ1KVtDQEhdKE9bQ0BASF0zW09IXSlbQ0BASF00QyhbQ0gzXSkoW0NIM10pW0NIMl1bQ0gyXVtDSDJdNQ==

>  <s_epik_cmdline>  (291) 
J2VwaWtfcHl0aG9uJywgJy1waHQnLCAnMi4wJywgJy1waCcsICc3LjAnLCAnLXRuJywgJzgnLCAnLW1hJywgJzIwMCcsICctaW1hZScsICc8aW5maWxlLm1hZT4nLCAnLW9tYWUnLCAnPG91dGZpbGUubWFlPic=

>  <r_lp_tautomer_probability>  (291) 
1

>  <r_epik_Ionization_Penalty>  (291) 
1.37637e-07

>  <r_epik_Ionization_Penalty_Charging>  (291) 
0

>  <r_epik_Ionization_Penalty_Neutral>  (291) 
1.37637e-07

>  <r_epik_State_Penalty>  (291) 
-0

>  <r_epik_Charging_Adjusted_Penalty>  (291) 
0

>  <i_epik_Tot_Q>  (291) 
0

>  <i_epik_Tot_abs_Q>  (291) 
0

>  <s_epik_Chemistry_Notes>  (291) 
This compound contains an acetal/aminal-like group ( X-CH(R)-Y where X, Y are N, S, or O) that may be acid/base labile, releasing an aldehyde.

>  <s_lp_Force_Field>  (291) 
OPLS3e

>  <r_lp_Energy>  (291) 
135.597

>  <b_lp_Chiralities_Consistent>  (291) 
1

>  <s_lp_Variant>  (291) 
95:0-1

>  <s_i_glide_gridfile>  (291) 
pfpi4k_grid

>  <i_i_glide_lignum>  (291) 
6

>  <i_i_glide_rotatable_bonds>  (291) 
2

>  <r_i_docking_score>  (291) 
-1.79635

>  <r_i_glide_ligand_efficiency>  (291) 
-0.0561361

>  <r_i_glide_ligand_efficiency_sa>  (291) 
-0.178221

>  <r_i_glide_ligand_efficiency_ln>  (291) 
-0.402253

>  <r_i_glide_gscore>  (291) 
-1.79635

>  <r_i_glide_lipo>  (291) 
-0.795932

>  <r_i_glide_hbond>  (291) 
0

>  <r_i_glide_metal>  (291) 
-0

>  <r_i_glide_rewards>  (291) 
-0.357086

>  <r_i_glide_evdw>  (291) 
-14.7934

>  <r_i_glide_ecoul>  (291) 
0.97687

>  <r_i_glide_erotb>  (291) 
0

>  <r_i_glide_esite>  (291) 
-0.0501955

>  <r_i_glide_emodel>  (291) 
-11.1416

>  <r_i_glide_energy>  (291) 
-13.8166

>  <r_i_glide_einternal>  (291) 
3.33801

>  <r_i_glide_intrahb_reward>  (291) 
-0

>  <i_i_glide_confnum>  (291) 
1

>  <i_i_glide_posenum>  (291) 
9

>  <r_i_glide_eff_state_penalty>  (291) 
0

>  <ligand_id>  (291) 
95

>  <original_smiles>  (291) 
COC1CC2C(C)(C)C(=O)CCC2(C)C2OC(C)(C)C3C(O)OC2C2C(C)(C)CCCC123

>  <smiles>  (291) 
[H]OC1([H])OC2([H])C3([H])OC(C([H])([H])[H])(C([H])([H])[H])C1([H])C1(C([H])([H])C([H])([H])C([H])([H])C(C([H])([H])[H])(C([H])([H])[H])C21[H])C([H])(OC([H])([H])[H])C([H])([H])C1([H])C(C([H])([H])[H])(C([H])([H])[H])C(=O)C([H])([H])C([H])([H])C31C([H])([H])[H]

$$$$
97:0:0
     RDKit          3D

 95103  0  0  1  0  0  0  0  0999 V2000
    0.5162   -8.7573    5.2260 C   0  0  0  0  0  0  0  0  0  0  0  0
    1.8259   -8.0001    5.1325 C   0  0  0  0  0  0  0  0  0  0  0  0
    2.4974   -7.5603    6.2026 C   0  0  0  0  0  0  0  0  0  0  0  0
    3.7704   -6.7424    6.1077 C   0  0  1  0  0  0  0  0  0  0  0  0
    4.9016   -7.3765    6.9076 C   0  0  2  0  0  0  0  0  0  0  0  0
    5.7525   -6.2411    7.1752 O   0  0  0  0  0  0  0  0  0  0  0  0
    6.4451   -6.5495    5.9431 C   0  0  2  0  0  0  0  0  0  0  0  0
    5.7603   -5.7836    4.7781 C   0  0  1  0  0  0  0  0  0  0  0  0
    5.5876   -4.2692    5.1286 C   0  0  0  0  0  0  0  0  0  0  0  0
    5.0598   -3.1473    4.5331 C   0  0  0  0  0  0  0  0  0  0  0  0
    4.2442   -2.5037    5.4120 O   0  0  0  0  0  0  0  0  0  0  0  0
    2.8987   -3.0060    5.3298 C   0  0  1  0  0  0  0  0  0  0  0  0
    2.0451   -1.9747    6.0862 C   0  0  0  0  0  0  0  0  0  0  0  0
    2.3849   -3.4424    3.8884 C   0  0  1  0  0  0  0  0  0  0  0  0
    1.0423   -2.7769    3.5236 C   0  0  0  0  0  0  0  0  0  0  0  0
    3.4301   -3.2988    2.7090 C   0  0  1  0  0  0  0  0  0  0  0  0
    4.7072   -2.5358    3.1193 C   0  0  1  0  0  0  0  0  0  0  0  0
    4.4745   -0.9691    3.2698 C   0  0  0  0  0  0  0  0  0  0  0  0
    3.9133   -0.2118    2.0423 C   0  0  0  0  0  0  0  0  0  0  0  0
    5.7232   -0.2307    3.8048 C   0  0  0  0  0  0  0  0  0  0  0  0
    5.6659   -2.7180    1.8819 C   0  0  0  0  0  0  0  0  0  0  0  0
    4.8394   -3.5260    0.8231 C   0  0  1  0  0  0  0  0  0  0  0  0
    5.7109   -4.1107   -0.3072 C   0  0  0  0  0  0  0  0  0  0  0  0
    4.0280   -4.4442    1.7866 C   0  0  1  0  0  0  0  0  0  0  0  0
    5.1578   -5.0755    2.3072 O   0  0  0  0  0  0  0  0  0  0  0  0
    5.4180   -6.3726    1.8524 C   0  0  1  0  0  0  0  0  0  0  0  0
    6.6544   -6.7479    2.6344 C   0  0  0  0  0  0  0  0  0  0  0  0
    6.7992   -5.9441    3.8009 O   0  0  0  0  0  0  0  0  0  0  0  0
    4.0586   -6.9694    2.1073 C   0  0  2  0  0  0  0  0  0  0  0  0
    3.2784   -5.7584    1.4082 C   0  0  1  0  0  0  0  0  0  0  0  0
    1.7448   -5.7277    1.2725 C   0  0  0  0  0  0  0  0  0  0  0  0
    3.8839   -7.4599    3.6272 C   0  0  1  0  0  0  0  0  0  0  0  0
    2.3438   -7.7055    3.7439 C   0  0  0  0  0  0  0  0  0  0  0  0
    4.5833   -8.8468    4.0301 C   0  0  1  0  0  0  0  0  0  0  0  0
    4.7021   -9.8481    2.8590 C   0  0  0  0  0  0  0  0  0  0  0  0
    5.8620   -8.9566    4.9551 C   0  0  0  0  0  0  0  0  0  0  0  0
    6.0979   -8.0419    6.1948 C   0  0  2  0  0  0  0  0  0  0  0  0
    7.0995   -8.7538    7.1642 C   0  0  0  0  0  0  0  0  0  0  0  0
    8.4791   -9.0481    6.5400 C   0  0  0  0  0  0  0  0  0  0  0  0
    6.5481  -10.0136    7.8666 C   0  0  0  0  0  0  0  0  0  0  0  0
    4.2821   -6.3759    4.6688 C   0  0  1  0  0  0  0  0  0  0  0  0
   -0.2660   -8.2465    4.6634 H   0  0  0  0  0  0  0  0  0  0  0  0
    0.1841   -8.8503    6.2599 H   0  0  0  0  0  0  0  0  0  0  0  0
    0.6242   -9.7622    4.8173 H   0  0  0  0  0  0  0  0  0  0  0  0
    2.1317   -7.7619    7.1968 H   0  0  0  0  0  0  0  0  0  0  0  0
    3.5038   -5.8152    6.6140 H   0  0  0  0  0  0  0  0  0  0  0  0
    4.6028   -7.8637    7.8373 H   0  0  0  0  0  0  0  0  0  0  0  0
    7.5120   -6.3391    6.0398 H   0  0  0  0  0  0  0  0  0  0  0  0
    5.5405   -4.1686    6.2016 H   0  0  0  0  0  0  0  0  0  0  0  0
    2.8678   -3.8994    5.9475 H   0  0  0  0  0  0  0  0  0  0  0  0
    1.0162   -2.3048    6.2125 H   0  0  0  0  0  0  0  0  0  0  0  0
    2.0407   -1.0091    5.5838 H   0  0  0  0  0  0  0  0  0  0  0  0
    2.4528   -1.8168    7.0834 H   0  0  0  0  0  0  0  0  0  0  0  0
    2.0860   -4.4809    3.9516 H   0  0  0  0  0  0  0  0  0  0  0  0
    1.1105   -1.6893    3.4856 H   0  0  0  0  0  0  0  0  0  0  0  0
    0.2558   -3.0561    4.2261 H   0  0  0  0  0  0  0  0  0  0  0  0
    0.7165   -3.1038    2.5439 H   0  0  0  0  0  0  0  0  0  0  0  0
    2.8820   -2.6847    1.9966 H   0  0  0  0  0  0  0  0  0  0  0  0
    3.7013   -0.7920    4.0124 H   0  0  0  0  0  0  0  0  0  0  0  0
    4.5589   -0.2535    1.1674 H   0  0  0  0  0  0  0  0  0  0  0  0
    3.7893    0.8444    2.2858 H   0  0  0  0  0  0  0  0  0  0  0  0
    2.9248   -0.5651    1.7529 H   0  0  0  0  0  0  0  0  0  0  0  0
    6.5551   -0.2641    3.1007 H   0  0  0  0  0  0  0  0  0  0  0  0
    6.0710   -0.6452    4.7514 H   0  0  0  0  0  0  0  0  0  0  0  0
    5.4984    0.8184    3.9978 H   0  0  0  0  0  0  0  0  0  0  0  0
    6.0207   -1.7870    1.4456 H   0  0  0  0  0  0  0  0  0  0  0  0
    6.5814   -3.2404    2.1618 H   0  0  0  0  0  0  0  0  0  0  0  0
    4.1434   -2.8549    0.3158 H   0  0  0  0  0  0  0  0  0  0  0  0
    6.6021   -4.6080    0.0714 H   0  0  0  0  0  0  0  0  0  0  0  0
    6.0606   -3.3153   -0.9632 H   0  0  0  0  0  0  0  0  0  0  0  0
    5.1539   -4.8095   -0.9293 H   0  0  0  0  0  0  0  0  0  0  0  0
    5.6390   -6.4421    0.7887 H   0  0  0  0  0  0  0  0  0  0  0  0
    6.7616   -7.8133    2.7462 H   0  0  0  0  0  0  0  0  0  0  0  0
    7.5150   -6.4716    2.0205 H   0  0  0  0  0  0  0  0  0  0  0  0
    3.9174   -7.8304    1.4572 H   0  0  0  0  0  0  0  0  0  0  0  0
    3.5320   -5.8934    0.3549 H   0  0  0  0  0  0  0  0  0  0  0  0
    1.2283   -5.3460    2.1464 H   0  0  0  0  0  0  0  0  0  0  0  0
    1.3478   -6.7190    1.0499 H   0  0  0  0  0  0  0  0  0  0  0  0
    1.4660   -5.0814    0.4413 H   0  0  0  0  0  0  0  0  0  0  0  0
    2.0208   -8.4821    3.0492 H   0  0  0  0  0  0  0  0  0  0  0  0
    1.7968   -6.8074    3.5024 H   0  0  0  0  0  0  0  0  0  0  0  0
    3.8670   -9.3561    4.6716 H   0  0  0  0  0  0  0  0  0  0  0  0
    5.4365   -9.5311    2.1176 H   0  0  0  0  0  0  0  0  0  0  0  0
    3.7445   -9.9854    2.3527 H   0  0  0  0  0  0  0  0  0  0  0  0
    5.0071  -10.8329    3.2185 H   0  0  0  0  0  0  0  0  0  0  0  0
    5.8300   -9.9867    5.3039 H   0  0  0  0  0  0  0  0  0  0  0  0
    6.7719   -8.9668    4.3683 H   0  0  0  0  0  0  0  0  0  0  0  0
    7.3119   -8.0623    7.9830 H   0  0  0  0  0  0  0  0  0  0  0  0
    8.4223   -9.8213    5.7732 H   0  0  0  0  0  0  0  0  0  0  0  0
    9.1808   -9.4006    7.2987 H   0  0  0  0  0  0  0  0  0  0  0  0
    8.9180   -8.1569    6.0902 H   0  0  0  0  0  0  0  0  0  0  0  0
    6.4310  -10.8573    7.1886 H   0  0  0  0  0  0  0  0  0  0  0  0
    5.5852   -9.8296    8.3397 H   0  0  0  0  0  0  0  0  0  0  0  0
    7.2261  -10.3439    8.6538 H   0  0  0  0  0  0  0  0  0  0  0  0
    3.6859   -5.5487    4.3579 H   0  0  0  0  0  0  0  0  0  0  0  0
  1  2  1  0
  1 42  1  0
  1 43  1  0
  1 44  1  0
  2 33  1  0
  2  3  2  0
  3  4  1  0
  3 45  1  0
  4 41  1  0
  4  5  1  0
  4 46  1  1
  5 37  1  0
  5  6  1  0
  5 47  1  1
  6  7  1  0
  7 37  1  0
  7  8  1  0
  7 48  1  1
  8 28  1  6
  8 41  1  0
  8  9  1  0
  9 10  2  3
  9 49  1  0
 10 17  1  0
 10 11  1  0
 11 12  1  0
 12 13  1  0
 12 14  1  0
 12 50  1  1
 13 51  1  0
 13 52  1  0
 13 53  1  0
 14 15  1  0
 14 16  1  0
 14 54  1  1
 15 55  1  0
 15 56  1  0
 15 57  1  0
 16 24  1  0
 16 17  1  0
 16 58  1  6
 17 18  1  1
 17 21  1  0
 18 19  1  0
 18 20  1  0
 18 59  1  0
 19 60  1  0
 19 61  1  0
 19 62  1  0
 20 63  1  0
 20 64  1  0
 20 65  1  0
 21 22  1  0
 21 66  1  0
 21 67  1  0
 22 23  1  0
 22 24  1  0
 22 68  1  6
 23 69  1  0
 23 70  1  0
 23 71  1  0
 24 30  1  0
 24 25  1  1
 25 26  1  0
 26 27  1  0
 26 29  1  0
 26 72  1  6
 27 28  1  0
 27 73  1  0
 27 74  1  0
 29 30  1  0
 29 32  1  0
 29 75  1  6
 30 31  1  0
 30 76  1  6
 31 77  1  0
 31 78  1  0
 31 79  1  0
 32 33  1  1
 32 34  1  0
 32 41  1  0
 33 80  1  0
 33 81  1  0
 34 35  1  0
 34 36  1  0
 34 82  1  1
 35 83  1  0
 35 84  1  0
 35 85  1  0
 36 37  1  0
 36 86  1  0
 36 87  1  0
 37 38  1  1
 38 39  1  0
 38 40  1  0
 38 88  1  0
 39 89  1  0
 39 90  1  0
 39 91  1  0
 40 92  1  0
 40 93  1  0
 40 94  1  0
 41 95  1  6
M  END
>  <i_m_ct_stereo_status>  (292) 
1

>  <s_m_source_file>  (292) 
/var/tmp/pbs.5076255.sched01/tmphrhi8tfx/132_dydaaau.sdf

>  <i_m_source_file_index>  (292) 
8

>  <i_lp_mmshare_version>  (292) 
48012

>  <i_f3d_flags>  (292) 
3

>  <s_epik_input>  (292) 
W0NAQF0xMjNbQ0BASF00W0NAQF01KFtDSF0oW0NIM10pW0NIM10pW0NAQEhdKE80KVtDQEhdNltDSF0zW0NAQF0oW0NAQEhdKFtDSDNdKVtDSDJdNSkoW0NIMl1DKFtDSDNdKT1bQ0hdNilbQ0hdN1tDQEBIXShbQ0gyXU8yKU9bQ0BdOChbQ0BASF03W0NIM10pW0NASF05QyhbQ0hdKFtDSDNdKVtDSDNdKShbQ0gyXVtDQEhdOFtDSDNdKUMoPVtDSF1cMSkvT1tDQEBIXShbQ0gzXSlbQ0BIXTlbQ0gzXQ==

>  <s_epik_cmdline>  (292) 
J2VwaWtfcHl0aG9uJywgJy1waHQnLCAnMi4wJywgJy1waCcsICc3LjAnLCAnLXRuJywgJzgnLCAnLW1hJywgJzIwMCcsICctaW1hZScsICc8aW5maWxlLm1hZT4nLCAnLW9tYWUnLCAnPG91dGZpbGUubWFlPic=

>  <r_lp_tautomer_probability>  (292) 
1

>  <r_epik_Ionization_Penalty>  (292) 
1.06567e-11

>  <r_epik_Ionization_Penalty_Charging>  (292) 
0

>  <r_epik_Ionization_Penalty_Neutral>  (292) 
1.06567e-11

>  <r_epik_State_Penalty>  (292) 
-0

>  <r_epik_Charging_Adjusted_Penalty>  (292) 
0

>  <i_epik_Tot_Q>  (292) 
0

>  <i_epik_Tot_abs_Q>  (292) 
0

>  <s_lp_Force_Field>  (292) 
OPLS3e

>  <r_lp_Energy>  (292) 
226.842

>  <b_lp_Chiralities_Consistent>  (292) 
0

>  <s_lp_Variant>  (292) 
97:0-1

>  <s_i_glide_gridfile>  (292) 
pfpi4k_grid

>  <i_i_glide_lignum>  (292) 
8

>  <i_i_glide_rotatable_bonds>  (292) 
2

>  <r_i_docking_score>  (292) 
-1.62224

>  <r_i_glide_ligand_efficiency>  (292) 
-0.0395669

>  <r_i_glide_ligand_efficiency_sa>  (292) 
-0.136435

>  <r_i_glide_ligand_efficiency_ln>  (292) 
-0.344165

>  <r_i_glide_gscore>  (292) 
-1.62224

>  <r_i_glide_lipo>  (292) 
-0.584655

>  <r_i_glide_hbond>  (292) 
0

>  <r_i_glide_metal>  (292) 
-0

>  <r_i_glide_rewards>  (292) 
0

>  <r_i_glide_evdw>  (292) 
-17.6316

>  <r_i_glide_ecoul>  (292) 
-1.04007

>  <r_i_glide_erotb>  (292) 
0

>  <r_i_glide_esite>  (292) 
0

>  <r_i_glide_emodel>  (292) 
-20.5833

>  <r_i_glide_energy>  (292) 
-18.6717

>  <r_i_glide_einternal>  (292) 
0.009797

>  <r_i_glide_intrahb_reward>  (292) 
-0

>  <i_i_glide_confnum>  (292) 
2

>  <i_i_glide_posenum>  (292) 
22

>  <r_i_glide_eff_state_penalty>  (292) 
0

>  <ligand_id>  (292) 
97

>  <original_smiles>  (292) 
CC1=CC2C3OC4C56C=C7OC(C)C(C)C8C7(C(C)C)CC(C)C87OC(CO5)C(C7C)C(C1)(C(C)CC34C(C)C)C26

>  <smiles>  (292) 
[H]C1=C(C([H])([H])[H])C([H])([H])C23C([H])(C([H])([H])[H])C([H])([H])C4(C([H])(C([H])([H])[H])C([H])([H])[H])C5([H])OC4([H])C4(OC([H])([H])C6([H])OC7(C([H])(C([H])([H])[H])C([H])([H])C8(C([H])(C([H])([H])[H])C([H])([H])[H])C(=C4[H])OC([H])(C([H])([H])[H])C([H])(C([H])([H])[H])C78[H])C([H])(C([H])([H])[H])C62[H])C3([H])C15[H]

$$$$
97:0:1
     RDKit          3D

 95103  0  0  1  0  0  0  0  0999 V2000
    0.5679   -9.3164    3.5068 C   0  0  0  0  0  0  0  0  0  0  0  0
    1.0186   -8.5645    4.7320 C   0  0  0  0  0  0  0  0  0  0  0  0
    0.2050   -8.2960    5.7743 C   0  0  0  0  0  0  0  0  0  0  0  0
    0.6424   -7.4761    6.9694 C   0  0  1  0  0  0  0  0  0  0  0  0
    0.3740   -8.2230    8.2648 C   0  0  2  0  0  0  0  0  0  0  0  0
    0.2751   -7.1313    9.1898 O   0  0  0  0  0  0  0  0  0  0  0  0
    1.6935   -7.2764    9.4298 C   0  0  2  0  0  0  0  0  0  0  0  0
    2.4437   -6.3650    8.4339 C   0  0  1  0  0  0  0  0  0  0  0  0
    1.8831   -4.9162    8.4995 C   0  0  0  0  0  0  0  0  0  0  0  0
    2.0989   -3.7090    7.8709 C   0  0  0  0  0  0  0  0  0  0  0  0
    0.9250   -3.1927    7.4425 O   0  0  0  0  0  0  0  0  0  0  0  0
    0.5838   -3.6616    6.1213 C   0  0  1  0  0  0  0  0  0  0  0  0
   -0.5381   -2.7275    5.6543 C   0  0  0  0  0  0  0  0  0  0  0  0
    1.7973   -3.8920    5.1170 C   0  0  1  0  0  0  0  0  0  0  0  0
    1.5978   -3.1721    3.7666 C   0  0  0  0  0  0  0  0  0  0  0  0
    3.2387   -3.6012    5.6965 C   0  0  1  0  0  0  0  0  0  0  0  0
    3.2118   -2.9197    7.0779 C   0  0  1  0  0  0  0  0  0  0  0  0
    2.7924   -1.3831    7.0099 C   0  0  0  0  0  0  0  0  0  0  0  0
    3.6289   -0.4628    6.0925 C   0  0  0  0  0  0  0  0  0  0  0  0
    2.6669   -0.7381    8.4120 C   0  0  0  0  0  0  0  0  0  0  0  0
    4.7110   -2.9415    7.5415 C   0  0  0  0  0  0  0  0  0  0  0  0
    5.5127   -3.5872    6.3593 C   0  0  1  0  0  0  0  0  0  0  0  0
    6.9374   -4.0173    6.7467 C   0  0  0  0  0  0  0  0  0  0  0  0
    4.4468   -4.6140    5.8776 C   0  0  1  0  0  0  0  0  0  0  0  0
    4.4369   -5.3192    7.0812 O   0  0  0  0  0  0  0  0  0  0  0  0
    5.1110   -6.5462    7.0808 C   0  0  1  0  0  0  0  0  0  0  0  0
    4.8713   -7.0488    8.4836 C   0  0  0  0  0  0  0  0  0  0  0  0
    3.7335   -6.4234    9.0722 O   0  0  0  0  0  0  0  0  0  0  0  0
    4.4781   -7.1602    5.8572 C   0  0  2  0  0  0  0  0  0  0  0  0
    4.7005   -5.8519    4.9634 C   0  0  1  0  0  0  0  0  0  0  0  0
    4.2803   -5.7746    3.4743 C   0  0  0  0  0  0  0  0  0  0  0  0
    3.0622   -7.8501    6.1876 C   0  0  1  0  0  0  0  0  0  0  0  0
    2.4476   -8.0919    4.7699 C   0  0  0  0  0  0  0  0  0  0  0  0
    3.0992   -9.2889    6.9040 C   0  0  1  0  0  0  0  0  0  0  0  0
    4.3558  -10.1210    6.5475 C   0  0  0  0  0  0  0  0  0  0  0  0
    2.6953   -9.5377    8.4173 C   0  0  0  0  0  0  0  0  0  0  0  0
    1.5293   -8.7858    9.1225 C   0  0  2  0  0  0  0  0  0  0  0  0
    1.0665   -9.6807   10.3374 C   0  0  0  0  0  0  0  0  0  0  0  0
   -0.1469   -9.1392   11.1368 C   0  0  0  0  0  0  0  0  0  0  0  0
    2.1834   -9.9964   11.3569 C   0  0  0  0  0  0  0  0  0  0  0  0
    2.1051   -6.9185    6.9834 C   0  0  1  0  0  0  0  0  0  0  0  0
    0.7482   -8.7226    2.6099 H   0  0  0  0  0  0  0  0  0  0  0  0
   -0.5002   -9.5477    3.5518 H   0  0  0  0  0  0  0  0  0  0  0  0
    1.1116  -10.2568    3.4090 H   0  0  0  0  0  0  0  0  0  0  0  0
   -0.8143   -8.6403    5.7488 H   0  0  0  0  0  0  0  0  0  0  0  0
   -0.0406   -6.6289    6.9401 H   0  0  0  0  0  0  0  0  0  0  0  0
   -0.5078   -8.8513    8.2661 H   0  0  0  0  0  0  0  0  0  0  0  0
    1.9397   -7.1149   10.4711 H   0  0  0  0  0  0  0  0  0  0  0  0
    0.8606   -4.9498    8.8378 H   0  0  0  0  0  0  0  0  0  0  0  0
    0.1147   -4.6291    6.2543 H   0  0  0  0  0  0  0  0  0  0  0  0
   -0.9622   -3.0502    4.7100 H   0  0  0  0  0  0  0  0  0  0  0  0
   -0.1928   -1.7019    5.5388 H   0  0  0  0  0  0  0  0  0  0  0  0
   -1.3454   -2.7230    6.3831 H   0  0  0  0  0  0  0  0  0  0  0  0
    1.7657   -4.9238    4.7985 H   0  0  0  0  0  0  0  0  0  0  0  0
    1.5230   -2.0914    3.8803 H   0  0  0  0  0  0  0  0  0  0  0  0
    0.6960   -3.5245    3.2738 H   0  0  0  0  0  0  0  0  0  0  0  0
    2.4198   -3.3683    3.0774 H   0  0  0  0  0  0  0  0  0  0  0  0
    3.6369   -2.8889    4.9749 H   0  0  0  0  0  0  0  0  0  0  0  0
    1.8058   -1.2979    6.5707 H   0  0  0  0  0  0  0  0  0  0  0  0
    4.6768   -0.4006    6.3772 H   0  0  0  0  0  0  0  0  0  0  0  0
    3.2320    0.5521    6.1304 H   0  0  0  0  0  0  0  0  0  0  0  0
    3.5740   -0.7629    5.0484 H   0  0  0  0  0  0  0  0  0  0  0  0
    3.6272   -0.6703    8.9255 H   0  0  0  0  0  0  0  0  0  0  0  0
    1.9857   -1.2886    9.0612 H   0  0  0  0  0  0  0  0  0  0  0  0
    2.2728    0.2757    8.3346 H   0  0  0  0  0  0  0  0  0  0  0  0
    5.1307   -1.9656    7.7794 H   0  0  0  0  0  0  0  0  0  0  0  0
    4.8183   -3.5048    8.4740 H   0  0  0  0  0  0  0  0  0  0  0  0
    5.6522   -2.8433    5.5725 H   0  0  0  0  0  0  0  0  0  0  0  0
    6.9632   -4.5730    7.6824 H   0  0  0  0  0  0  0  0  0  0  0  0
    7.5667   -3.1391    6.8981 H   0  0  0  0  0  0  0  0  0  0  0  0
    7.4097   -4.6132    5.9699 H   0  0  0  0  0  0  0  0  0  0  0  0
    6.1829   -6.4756    6.9111 H   0  0  0  0  0  0  0  0  0  0  0  0
    4.9412   -8.1201    8.5547 H   0  0  0  0  0  0  0  0  0  0  0  0
    5.7047   -6.7008    9.0925 H   0  0  0  0  0  0  0  0  0  0  0  0
    5.1387   -7.9229    5.4495 H   0  0  0  0  0  0  0  0  0  0  0  0
    5.7803   -5.8435    4.8285 H   0  0  0  0  0  0  0  0  0  0  0  0
    3.2386   -5.5200    3.3159 H   0  0  0  0  0  0  0  0  0  0  0  0
    4.4770   -6.7209    2.9667 H   0  0  0  0  0  0  0  0  0  0  0  0
    4.8567   -5.0089    2.9581 H   0  0  0  0  0  0  0  0  0  0  0  0
    3.0785   -8.7654    4.1840 H   0  0  0  0  0  0  0  0  0  0  0  0
    2.3716   -7.1642    4.2270 H   0  0  0  0  0  0  0  0  0  0  0  0
    2.3233   -9.8807    6.4210 H   0  0  0  0  0  0  0  0  0  0  0  0
    5.2630   -9.7163    6.9997 H   0  0  0  0  0  0  0  0  0  0  0  0
    4.5073  -10.1740    5.4685 H   0  0  0  0  0  0  0  0  0  0  0  0
    4.2484  -11.1510    6.8995 H   0  0  0  0  0  0  0  0  0  0  0  0
    2.4874  -10.6079    8.4720 H   0  0  0  0  0  0  0  0  0  0  0  0
    3.5791   -9.4730    9.0369 H   0  0  0  0  0  0  0  0  0  0  0  0
    0.7462  -10.6401    9.9298 H   0  0  0  0  0  0  0  0  0  0  0  0
    0.0905   -8.2012   11.6452 H   0  0  0  0  0  0  0  0  0  0  0  0
   -0.4893   -9.8335   11.9094 H   0  0  0  0  0  0  0  0  0  0  0  0
   -1.0095   -8.9516   10.5045 H   0  0  0  0  0  0  0  0  0  0  0  0
    2.5090   -9.0969   11.8819 H   0  0  0  0  0  0  0  0  0  0  0  0
    3.0560  -10.4636   10.9106 H   0  0  0  0  0  0  0  0  0  0  0  0
    1.8290  -10.7031   12.1098 H   0  0  0  0  0  0  0  0  0  0  0  0
    2.0858   -6.0529    6.3684 H   0  0  0  0  0  0  0  0  0  0  0  0
  1  2  1  0
  1 42  1  0
  1 43  1  0
  1 44  1  0
  2 33  1  0
  2  3  2  0
  3  4  1  0
  3 45  1  0
  4 41  1  0
  4  5  1  0
  4 46  1  1
  5 37  1  0
  5  6  1  0
  5 47  1  6
  6  7  1  0
  7 37  1  0
  7  8  1  0
  7 48  1  1
  8 28  1  1
  8 41  1  0
  8  9  1  0
  9 10  2  3
  9 49  1  0
 10 17  1  0
 10 11  1  0
 11 12  1  0
 12 13  1  0
 12 14  1  0
 12 50  1  1
 13 51  1  0
 13 52  1  0
 13 53  1  0
 14 15  1  0
 14 16  1  0
 14 54  1  6
 15 55  1  0
 15 56  1  0
 15 57  1  0
 16 24  1  0
 16 17  1  0
 16 58  1  6
 17 18  1  6
 17 21  1  0
 18 19  1  0
 18 20  1  0
 18 59  1  0
 19 60  1  0
 19 61  1  0
 19 62  1  0
 20 63  1  0
 20 64  1  0
 20 65  1  0
 21 22  1  0
 21 66  1  0
 21 67  1  0
 22 23  1  0
 22 24  1  0
 22 68  1  6
 23 69  1  0
 23 70  1  0
 23 71  1  0
 24 30  1  0
 24 25  1  1
 25 26  1  0
 26 27  1  0
 26 29  1  0
 26 72  1  6
 27 28  1  0
 27 73  1  0
 27 74  1  0
 29 30  1  0
 29 32  1  0
 29 75  1  6
 30 31  1  0
 30 76  1  6
 31 77  1  0
 31 78  1  0
 31 79  1  0
 32 33  1  6
 32 34  1  0
 32 41  1  0
 33 80  1  0
 33 81  1  0
 34 35  1  0
 34 36  1  0
 34 82  1  6
 35 83  1  0
 35 84  1  0
 35 85  1  0
 36 37  1  0
 36 86  1  0
 36 87  1  0
 37 38  1  1
 38 39  1  0
 38 40  1  0
 38 88  1  0
 39 89  1  0
 39 90  1  0
 39 91  1  0
 40 92  1  0
 40 93  1  0
 40 94  1  0
 41 95  1  6
M  END
>  <i_m_ct_stereo_status>  (293) 
1

>  <s_m_source_file>  (293) 
/var/tmp/pbs.5076255.sched01/tmphrhi8tfx/132_dydaaau.sdf

>  <i_m_source_file_index>  (293) 
8

>  <i_lp_mmshare_version>  (293) 
48012

>  <i_f3d_flags>  (293) 
3

>  <s_epik_input>  (293) 
W0NAQF0xMjNbQ0BASF00W0NAQF01KFtDSF0oW0NIM10pW0NIM10pW0NAQEhdKE80KVtDQEhdNltDSF0zW0NAQF0oW0NAQEhdKFtDSDNdKVtDSDJdNSkoW0NIMl1DKFtDSDNdKT1bQ0hdNilbQ0hdN1tDQEBIXShbQ0gyXU8yKU9bQ0BdOChbQ0BASF03W0NIM10pW0NASF05QyhbQ0hdKFtDSDNdKVtDSDNdKShbQ0gyXVtDQEhdOFtDSDNdKUMoPVtDSF1cMSkvT1tDQEBIXShbQ0gzXSlbQ0BIXTlbQ0gzXQ==

>  <s_epik_cmdline>  (293) 
J2VwaWtfcHl0aG9uJywgJy1waHQnLCAnMi4wJywgJy1waCcsICc3LjAnLCAnLXRuJywgJzgnLCAnLW1hJywgJzIwMCcsICctaW1hZScsICc8aW5maWxlLm1hZT4nLCAnLW9tYWUnLCAnPG91dGZpbGUubWFlPic=

>  <r_lp_tautomer_probability>  (293) 
1

>  <r_epik_Ionization_Penalty>  (293) 
1.06567e-11

>  <r_epik_Ionization_Penalty_Charging>  (293) 
0

>  <r_epik_Ionization_Penalty_Neutral>  (293) 
1.06567e-11

>  <r_epik_State_Penalty>  (293) 
-0

>  <r_epik_Charging_Adjusted_Penalty>  (293) 
0

>  <i_epik_Tot_Q>  (293) 
0

>  <i_epik_Tot_abs_Q>  (293) 
0

>  <s_lp_Force_Field>  (293) 
OPLS3e

>  <r_lp_Energy>  (293) 
226.842

>  <b_lp_Chiralities_Consistent>  (293) 
0

>  <s_lp_Variant>  (293) 
97:0-1

>  <s_i_glide_gridfile>  (293) 
pfpi4k_grid

>  <i_i_glide_lignum>  (293) 
8

>  <i_i_glide_rotatable_bonds>  (293) 
2

>  <r_i_docking_score>  (293) 
-1.5909

>  <r_i_glide_ligand_efficiency>  (293) 
-0.0388025

>  <r_i_glide_ligand_efficiency_sa>  (293) 
-0.133799

>  <r_i_glide_ligand_efficiency_ln>  (293) 
-0.337515

>  <r_i_glide_gscore>  (293) 
-1.5909

>  <r_i_glide_lipo>  (293) 
-0.0584279

>  <r_i_glide_hbond>  (293) 
-0.231585

>  <r_i_glide_metal>  (293) 
-0

>  <r_i_glide_rewards>  (293) 
0

>  <r_i_glide_evdw>  (293) 
-16.1656

>  <r_i_glide_ecoul>  (293) 
-3.28407

>  <r_i_glide_erotb>  (293) 
0

>  <r_i_glide_esite>  (293) 
0

>  <r_i_glide_emodel>  (293) 
-20.0835

>  <r_i_glide_energy>  (293) 
-19.4496

>  <r_i_glide_einternal>  (293) 
2.01639

>  <r_i_glide_intrahb_reward>  (293) 
-0

>  <i_i_glide_confnum>  (293) 
2

>  <i_i_glide_posenum>  (293) 
26

>  <r_i_glide_eff_state_penalty>  (293) 
0

>  <ligand_id>  (293) 
97

>  <original_smiles>  (293) 
CC1=CC2C3OC4C56C=C7OC(C)C(C)C8C7(C(C)C)CC(C)C87OC(CO5)C(C7C)C(C1)(C(C)CC34C(C)C)C26

>  <smiles>  (293) 
[H]C1=C(C([H])([H])[H])C([H])([H])C23C([H])(C([H])([H])[H])C([H])([H])C4(C([H])(C([H])([H])[H])C([H])([H])[H])C5([H])OC4([H])C4(OC([H])([H])C6([H])OC7(C([H])(C([H])([H])[H])C([H])([H])C8(C([H])(C([H])([H])[H])C([H])([H])[H])C(=C4[H])OC([H])(C([H])([H])[H])C([H])(C([H])([H])[H])C78[H])C([H])(C([H])([H])[H])C62[H])C3([H])C15[H]

$$$$
97:0:2
     RDKit          3D

 95103  0  0  1  0  0  0  0  0999 V2000
    4.1999   -3.6349    2.0023 C   0  0  0  0  0  0  0  0  0  0  0  0
    4.0858   -4.6447    3.1208 C   0  0  0  0  0  0  0  0  0  0  0  0
    4.9014   -4.6595    4.1846 C   0  0  0  0  0  0  0  0  0  0  0  0
    4.8222   -5.7234    5.2657 C   0  0  1  0  0  0  0  0  0  0  0  0
    4.7083   -5.1063    6.6451 C   0  0  2  0  0  0  0  0  0  0  0  0
    5.1984   -6.1489    7.4642 O   0  0  0  0  0  0  0  0  0  0  0  0
    3.8673   -6.6377    7.5726 C   0  0  2  0  0  0  0  0  0  0  0  0
    3.6258   -7.6624    6.4534 C   0  0  1  0  0  0  0  0  0  0  0  0
    4.7502   -8.7294    6.4391 C   0  0  0  0  0  0  0  0  0  0  0  0
    5.0901   -9.8340    5.6921 C   0  0  0  0  0  0  0  0  0  0  0  0
    6.3979   -9.7411    5.3107 O   0  0  0  0  0  0  0  0  0  0  0  0
    6.5385   -9.0220    4.0734 C   0  0  1  0  0  0  0  0  0  0  0  0
    7.9686   -9.3154    3.6077 C   0  0  0  0  0  0  0  0  0  0  0  0
    5.3805   -9.2131    3.0032 C   0  0  1  0  0  0  0  0  0  0  0  0
    5.9114   -9.6176    1.6058 C   0  0  0  0  0  0  0  0  0  0  0  0
    4.1875  -10.1583    3.4285 C   0  0  1  0  0  0  0  0  0  0  0  0
    4.4682  -10.9196    4.7371 C   0  0  1  0  0  0  0  0  0  0  0  0
    5.5065  -12.1129    4.5673 C   0  0  0  0  0  0  0  0  0  0  0  0
    5.2016  -13.1601    3.4742 C   0  0  0  0  0  0  0  0  0  0  0  0
    5.8158  -12.8328    5.9021 C   0  0  0  0  0  0  0  0  0  0  0  0
    3.0857  -11.5911    5.0831 C   0  0  0  0  0  0  0  0  0  0  0  0
    2.1230  -11.2149    3.9063 C   0  0  1  0  0  0  0  0  0  0  0  0
    0.6410  -11.4837    4.2239 C   0  0  0  0  0  0  0  0  0  0  0  0
    2.6549   -9.7868    3.6139 C   0  0  1  0  0  0  0  0  0  0  0  0
    2.3245   -9.2856    4.8665 O   0  0  0  0  0  0  0  0  0  0  0  0
    1.1848   -8.4781    4.9296 C   0  0  1  0  0  0  0  0  0  0  0  0
    1.1333   -8.0848    6.3850 C   0  0  0  0  0  0  0  0  0  0  0  0
    2.4117   -8.2172    6.9959 O   0  0  0  0  0  0  0  0  0  0  0  0
    1.5276   -7.5068    3.8247 C   0  0  2  0  0  0  0  0  0  0  0  0
    1.9224   -8.6768    2.7942 C   0  0  1  0  0  0  0  0  0  0  0  0
    2.3834   -8.3915    1.3527 C   0  0  0  0  0  0  0  0  0  0  0  0
    2.5020   -6.3285    4.3217 C   0  0  1  0  0  0  0  0  0  0  0  0
    2.9957   -5.6783    2.9937 C   0  0  0  0  0  0  0  0  0  0  0  0
    1.8156   -5.1506    5.1708 C   0  0  1  0  0  0  0  0  0  0  0  0
    0.3414   -4.8854    4.7889 C   0  0  0  0  0  0  0  0  0  0  0  0
    2.0192   -4.9341    6.7354 C   0  0  0  0  0  0  0  0  0  0  0  0
    3.3967   -5.1608    7.4482 C   0  0  2  0  0  0  0  0  0  0  0  0
    3.3577   -4.3415    8.7904 C   0  0  0  0  0  0  0  0  0  0  0  0
    3.4041   -2.8044    8.6022 C   0  0  0  0  0  0  0  0  0  0  0  0
    4.4787   -4.6882    9.8246 C   0  0  0  0  0  0  0  0  0  0  0  0
    3.7394   -6.8441    5.0998 C   0  0  1  0  0  0  0  0  0  0  0  0
    4.3229   -4.1439    1.0451 H   0  0  0  0  0  0  0  0  0  0  0  0
    5.0627   -2.9816    2.1507 H   0  0  0  0  0  0  0  0  0  0  0  0
    3.3065   -3.0117    1.9458 H   0  0  0  0  0  0  0  0  0  0  0  0
    5.6904   -3.9301    4.2826 H   0  0  0  0  0  0  0  0  0  0  0  0
    5.8035   -6.1892    5.2090 H   0  0  0  0  0  0  0  0  0  0  0  0
    5.2551   -4.1667    6.7987 H   0  0  0  0  0  0  0  0  0  0  0  0
    3.6449   -7.0542    8.5631 H   0  0  0  0  0  0  0  0  0  0  0  0
    5.6421   -8.3055    6.8633 H   0  0  0  0  0  0  0  0  0  0  0  0
    6.5403   -7.9695    4.3285 H   0  0  0  0  0  0  0  0  0  0  0  0
    8.2463   -8.7062    2.7488 H   0  0  0  0  0  0  0  0  0  0  0  0
    8.1069  -10.3657    3.3585 H   0  0  0  0  0  0  0  0  0  0  0  0
    8.6773   -9.0760    4.4010 H   0  0  0  0  0  0  0  0  0  0  0  0
    4.9749   -8.2381    2.7792 H   0  0  0  0  0  0  0  0  0  0  0  0
    6.4428  -10.5685    1.6235 H   0  0  0  0  0  0  0  0  0  0  0  0
    6.5871   -8.8546    1.2107 H   0  0  0  0  0  0  0  0  0  0  0  0
    5.1034   -9.7168    0.8784 H   0  0  0  0  0  0  0  0  0  0  0  0
    4.1529  -10.8732    2.6143 H   0  0  0  0  0  0  0  0  0  0  0  0
    6.4603  -11.7199    4.2321 H   0  0  0  0  0  0  0  0  0  0  0  0
    4.2612  -13.6861    3.6294 H   0  0  0  0  0  0  0  0  0  0  0  0
    5.9918  -13.9123    3.4506 H   0  0  0  0  0  0  0  0  0  0  0  0
    5.1854  -12.7221    2.4781 H   0  0  0  0  0  0  0  0  0  0  0  0
    4.9510  -13.3690    6.2979 H   0  0  0  0  0  0  0  0  0  0  0  0
    6.1541  -12.1413    6.6745 H   0  0  0  0  0  0  0  0  0  0  0  0
    6.6109  -13.5678    5.7676 H   0  0  0  0  0  0  0  0  0  0  0  0
    3.1186  -12.6772    5.1869 H   0  0  0  0  0  0  0  0  0  0  0  0
    2.7165  -11.2459    6.0520 H   0  0  0  0  0  0  0  0  0  0  0  0
    2.3424  -11.8526    3.0472 H   0  0  0  0  0  0  0  0  0  0  0  0
    0.3485  -11.1076    5.2028 H   0  0  0  0  0  0  0  0  0  0  0  0
    0.4448  -12.5548    4.2452 H   0  0  0  0  0  0  0  0  0  0  0  0
   -0.0158  -11.0534    3.4724 H   0  0  0  0  0  0  0  0  0  0  0  0
    0.2517   -8.9817    4.6715 H   0  0  0  0  0  0  0  0  0  0  0  0
    0.6075   -7.1620    6.5499 H   0  0  0  0  0  0  0  0  0  0  0  0
    0.5197   -8.8295    6.8969 H   0  0  0  0  0  0  0  0  0  0  0  0
    0.6159   -7.0625    3.4378 H   0  0  0  0  0  0  0  0  0  0  0  0
    0.9553   -9.1278    2.5751 H   0  0  0  0  0  0  0  0  0  0  0  0
    3.4350   -8.1529    1.2525 H   0  0  0  0  0  0  0  0  0  0  0  0
    1.8050   -7.5776    0.9134 H   0  0  0  0  0  0  0  0  0  0  0  0
    2.2229   -9.2787    0.7420 H   0  0  0  0  0  0  0  0  0  0  0  0
    2.1561   -5.2784    2.4171 H   0  0  0  0  0  0  0  0  0  0  0  0
    3.4824   -6.4183    2.3752 H   0  0  0  0  0  0  0  0  0  0  0  0
    2.2844   -4.2347    4.8096 H   0  0  0  0  0  0  0  0  0  0  0  0
   -0.3180   -5.6875    5.1239 H   0  0  0  0  0  0  0  0  0  0  0  0
    0.2317   -4.7757    3.7100 H   0  0  0  0  0  0  0  0  0  0  0  0
   -0.0191   -3.9554    5.2373 H   0  0  0  0  0  0  0  0  0  0  0  0
    1.7114   -3.9068    6.8526 H   0  0  0  0  0  0  0  0  0  0  0  0
    1.2480   -5.4335    7.3091 H   0  0  0  0  0  0  0  0  0  0  0  0
    2.4250   -4.5775    9.2966 H   0  0  0  0  0  0  0  0  0  0  0  0
    4.3499   -2.4774    8.1748 H   0  0  0  0  0  0  0  0  0  0  0  0
    3.3000   -2.2990    9.5641 H   0  0  0  0  0  0  0  0  0  0  0  0
    2.6161   -2.3928    7.9825 H   0  0  0  0  0  0  0  0  0  0  0  0
    5.4642   -4.4037    9.4498 H   0  0  0  0  0  0  0  0  0  0  0  0
    4.5394   -5.7430   10.0898 H   0  0  0  0  0  0  0  0  0  0  0  0
    4.3374   -4.1724   10.7700 H   0  0  0  0  0  0  0  0  0  0  0  0
    4.1540   -7.5392    4.4111 H   0  0  0  0  0  0  0  0  0  0  0  0
  1  2  1  0
  1 42  1  0
  1 43  1  0
  1 44  1  0
  2 33  1  0
  2  3  2  0
  3  4  1  0
  3 45  1  0
  4 41  1  0
  4  5  1  0
  4 46  1  1
  5 37  1  0
  5  6  1  0
  5 47  1  6
  6  7  1  0
  7 37  1  0
  7  8  1  0
  7 48  1  1
  8 28  1  1
  8 41  1  0
  8  9  1  0
  9 10  2  3
  9 49  1  0
 10 17  1  0
 10 11  1  0
 11 12  1  0
 12 13  1  0
 12 14  1  0
 12 50  1  1
 13 51  1  0
 13 52  1  0
 13 53  1  0
 14 15  1  0
 14 16  1  0
 14 54  1  6
 15 55  1  0
 15 56  1  0
 15 57  1  0
 16 24  1  0
 16 17  1  0
 16 58  1  6
 17 18  1  6
 17 21  1  0
 18 19  1  0
 18 20  1  0
 18 59  1  0
 19 60  1  0
 19 61  1  0
 19 62  1  0
 20 63  1  0
 20 64  1  0
 20 65  1  0
 21 22  1  0
 21 66  1  0
 21 67  1  0
 22 23  1  0
 22 24  1  0
 22 68  1  6
 23 69  1  0
 23 70  1  0
 23 71  1  0
 24 30  1  0
 24 25  1  1
 25 26  1  0
 26 27  1  0
 26 29  1  0
 26 72  1  6
 27 28  1  0
 27 73  1  0
 27 74  1  0
 29 30  1  0
 29 32  1  0
 29 75  1  6
 30 31  1  0
 30 76  1  6
 31 77  1  0
 31 78  1  0
 31 79  1  0
 32 33  1  6
 32 34  1  0
 32 41  1  0
 33 80  1  0
 33 81  1  0
 34 35  1  0
 34 36  1  0
 34 82  1  6
 35 83  1  0
 35 84  1  0
 35 85  1  0
 36 37  1  0
 36 86  1  0
 36 87  1  0
 37 38  1  1
 38 39  1  0
 38 40  1  0
 38 88  1  0
 39 89  1  0
 39 90  1  0
 39 91  1  0
 40 92  1  0
 40 93  1  0
 40 94  1  0
 41 95  1  6
M  END
>  <i_m_ct_stereo_status>  (294) 
1

>  <s_m_source_file>  (294) 
/var/tmp/pbs.5076255.sched01/tmphrhi8tfx/132_dydaaau.sdf

>  <i_m_source_file_index>  (294) 
8

>  <i_lp_mmshare_version>  (294) 
48012

>  <i_f3d_flags>  (294) 
3

>  <s_epik_input>  (294) 
W0NAQF0xMjNbQ0BASF00W0NAQF01KFtDSF0oW0NIM10pW0NIM10pW0NAQEhdKE80KVtDQEhdNltDSF0zW0NAQF0oW0NAQEhdKFtDSDNdKVtDSDJdNSkoW0NIMl1DKFtDSDNdKT1bQ0hdNilbQ0hdN1tDQEBIXShbQ0gyXU8yKU9bQ0BdOChbQ0BASF03W0NIM10pW0NASF05QyhbQ0hdKFtDSDNdKVtDSDNdKShbQ0gyXVtDQEhdOFtDSDNdKUMoPVtDSF1cMSkvT1tDQEBIXShbQ0gzXSlbQ0BIXTlbQ0gzXQ==

>  <s_epik_cmdline>  (294) 
J2VwaWtfcHl0aG9uJywgJy1waHQnLCAnMi4wJywgJy1waCcsICc3LjAnLCAnLXRuJywgJzgnLCAnLW1hJywgJzIwMCcsICctaW1hZScsICc8aW5maWxlLm1hZT4nLCAnLW9tYWUnLCAnPG91dGZpbGUubWFlPic=

>  <r_lp_tautomer_probability>  (294) 
1

>  <r_epik_Ionization_Penalty>  (294) 
1.06567e-11

>  <r_epik_Ionization_Penalty_Charging>  (294) 
0

>  <r_epik_Ionization_Penalty_Neutral>  (294) 
1.06567e-11

>  <r_epik_State_Penalty>  (294) 
-0

>  <r_epik_Charging_Adjusted_Penalty>  (294) 
0

>  <i_epik_Tot_Q>  (294) 
0

>  <i_epik_Tot_abs_Q>  (294) 
0

>  <s_lp_Force_Field>  (294) 
OPLS3e

>  <r_lp_Energy>  (294) 
226.842

>  <b_lp_Chiralities_Consistent>  (294) 
0

>  <s_lp_Variant>  (294) 
97:0-1

>  <s_i_glide_gridfile>  (294) 
pfpi4k_grid

>  <i_i_glide_lignum>  (294) 
8

>  <i_i_glide_rotatable_bonds>  (294) 
2

>  <r_i_docking_score>  (294) 
-1.13419

>  <r_i_glide_ligand_efficiency>  (294) 
-0.0276631

>  <r_i_glide_ligand_efficiency_sa>  (294) 
-0.0953885

>  <r_i_glide_ligand_efficiency_ln>  (294) 
-0.240622

>  <r_i_glide_gscore>  (294) 
-1.13419

>  <r_i_glide_lipo>  (294) 
-0.0410839

>  <r_i_glide_hbond>  (294) 
0

>  <r_i_glide_metal>  (294) 
-0

>  <r_i_glide_rewards>  (294) 
0

>  <r_i_glide_evdw>  (294) 
-21.204

>  <r_i_glide_ecoul>  (294) 
-0.21937

>  <r_i_glide_erotb>  (294) 
0

>  <r_i_glide_esite>  (294) 
0

>  <r_i_glide_emodel>  (294) 
-20.8841

>  <r_i_glide_energy>  (294) 
-21.4234

>  <r_i_glide_einternal>  (294) 
3.08472

>  <r_i_glide_intrahb_reward>  (294) 
-0

>  <i_i_glide_confnum>  (294) 
1

>  <i_i_glide_posenum>  (294) 
15

>  <r_i_glide_eff_state_penalty>  (294) 
0

>  <ligand_id>  (294) 
97

>  <original_smiles>  (294) 
CC1=CC2C3OC4C56C=C7OC(C)C(C)C8C7(C(C)C)CC(C)C87OC(CO5)C(C7C)C(C1)(C(C)CC34C(C)C)C26

>  <smiles>  (294) 
[H]C1=C(C([H])([H])[H])C([H])([H])C23C([H])(C([H])([H])[H])C([H])([H])C4(C([H])(C([H])([H])[H])C([H])([H])[H])C5([H])OC4([H])C4(OC([H])([H])C6([H])OC7(C([H])(C([H])([H])[H])C([H])([H])C8(C([H])(C([H])([H])[H])C([H])([H])[H])C(=C4[H])OC([H])(C([H])([H])[H])C([H])(C([H])([H])[H])C78[H])C([H])(C([H])([H])[H])C62[H])C3([H])C15[H]

$$$$
97:2:0
     RDKit          3D

 95103  0  0  1  0  0  0  0  0999 V2000
   -0.4869   -0.3000    4.2216 C   0  0  0  0  0  0  0  0  0  0  0  0
    0.8178   -0.7269    3.5730 C   0  0  0  0  0  0  0  0  0  0  0  0
    1.8053    0.1164    3.2923 C   0  0  0  0  0  0  0  0  0  0  0  0
    3.0636   -0.3156    2.5792 C   0  0  1  0  0  0  0  0  0  0  0  0
    4.2764    0.2442    3.2443 C   0  0  2  0  0  0  0  0  0  0  0  0
    5.2755   -0.0018    2.2065 O   0  0  0  0  0  0  0  0  0  0  0  0
    5.5573   -1.2483    2.9000 C   0  0  2  0  0  0  0  0  0  0  0  0
    4.7863   -2.4167    2.3174 C   0  0  2  0  0  0  0  0  0  0  0  0
    5.4105   -3.5078    3.3119 C   0  0  0  0  0  0  0  0  0  0  0  0
    5.9286   -4.7877    3.4141 C   0  0  0  0  0  0  0  0  0  0  0  0
    6.3411   -4.9888    4.7303 O   0  0  0  0  0  0  0  0  0  0  0  0
    5.9859   -6.1941    5.4108 C   0  0  1  0  0  0  0  0  0  0  0  0
    5.6996   -5.8300    6.8780 C   0  0  0  0  0  0  0  0  0  0  0  0
    4.9227   -7.0433    4.6730 C   0  0  1  0  0  0  0  0  0  0  0  0
    3.5975   -7.3504    5.3852 C   0  0  0  0  0  0  0  0  0  0  0  0
    4.9363   -6.8660    3.1209 C   0  0  2  0  0  0  0  0  0  0  0  0
    6.1500   -6.1045    2.5571 C   0  0  2  0  0  0  0  0  0  0  0  0
    7.6085   -6.6838    2.7670 C   0  0  0  0  0  0  0  0  0  0  0  0
    8.6687   -5.9795    1.8835 C   0  0  0  0  0  0  0  0  0  0  0  0
    7.7347   -8.2210    2.6524 C   0  0  0  0  0  0  0  0  0  0  0  0
    5.8454   -6.2887    0.9956 C   0  0  0  0  0  0  0  0  0  0  0  0
    4.3406   -6.7695    0.8250 C   0  0  1  0  0  0  0  0  0  0  0  0
    4.1769   -8.2702    0.5144 C   0  0  0  0  0  0  0  0  0  0  0  0
    3.7782   -6.2836    2.2058 C   0  0  2  0  0  0  0  0  0  0  0  0
    4.0324   -4.9977    1.6791 O   0  0  0  0  0  0  0  0  0  0  0  0
    3.0747   -4.2838    1.0094 C   0  0  2  0  0  0  0  0  0  0  0  0
    4.0397   -3.3238    0.2248 C   0  0  0  0  0  0  0  0  0  0  0  0
    5.1033   -2.7066    0.9726 O   0  0  0  0  0  0  0  0  0  0  0  0
    2.3262   -4.1727    2.3465 C   0  0  1  0  0  0  0  0  0  0  0  0
    2.4314   -5.6970    2.7696 C   0  0  1  0  0  0  0  0  0  0  0  0
    1.2500   -6.5873    2.3061 C   0  0  0  0  0  0  0  0  0  0  0  0
    2.4081   -2.7766    3.2112 C   0  0  1  0  0  0  0  0  0  0  0  0
    0.9473   -2.1865    3.1755 C   0  0  0  0  0  0  0  0  0  0  0  0
    2.9359   -2.5924    4.7037 C   0  0  1  0  0  0  0  0  0  0  0  0
    3.0143   -3.8813    5.5080 C   0  0  0  0  0  0  0  0  0  0  0  0
    4.0210   -1.4890    5.1652 C   0  0  0  0  0  0  0  0  0  0  0  0
    5.0052   -0.6577    4.2374 C   0  0  2  0  0  0  0  0  0  0  0  0
    6.0693    0.0503    5.1655 C   0  0  0  0  0  0  0  0  0  0  0  0
    5.4793    1.2351    5.9761 C   0  0  0  0  0  0  0  0  0  0  0  0
    7.3433    0.5822    4.4529 C   0  0  0  0  0  0  0  0  0  0  0  0
    3.2649   -1.8643    2.3791 C   0  0  1  0  0  0  0  0  0  0  0  0
   -0.6187   -0.7993    5.1811 H   0  0  0  0  0  0  0  0  0  0  0  0
   -1.3440   -0.5463    3.5982 H   0  0  0  0  0  0  0  0  0  0  0  0
   -0.5023    0.7750    4.3842 H   0  0  0  0  0  0  0  0  0  0  0  0
    1.7273    1.1729    3.5484 H   0  0  0  0  0  0  0  0  0  0  0  0
    2.9931    0.1602    1.5977 H   0  0  0  0  0  0  0  0  0  0  0  0
    4.2143    1.2819    3.5242 H   0  0  0  0  0  0  0  0  0  0  0  0
    6.6102   -1.4196    2.9257 H   0  0  0  0  0  0  0  0  0  0  0  0
    5.5806   -3.0664    4.2652 H   0  0  0  0  0  0  0  0  0  0  0  0
    6.8915   -6.8050    5.4825 H   0  0  0  0  0  0  0  0  0  0  0  0
    5.4256   -6.7086    7.4536 H   0  0  0  0  0  0  0  0  0  0  0  0
    4.9076   -5.0964    6.9833 H   0  0  0  0  0  0  0  0  0  0  0  0
    6.5872   -5.4018    7.3417 H   0  0  0  0  0  0  0  0  0  0  0  0
    5.3898   -8.0184    4.7763 H   0  0  0  0  0  0  0  0  0  0  0  0
    3.0640   -6.4759    5.7419 H   0  0  0  0  0  0  0  0  0  0  0  0
    3.7793   -7.9616    6.2670 H   0  0  0  0  0  0  0  0  0  0  0  0
    2.9288   -7.9227    4.7373 H   0  0  0  0  0  0  0  0  0  0  0  0
    5.0373   -7.9045    2.8358 H   0  0  0  0  0  0  0  0  0  0  0  0
    7.9741   -6.4575    3.7616 H   0  0  0  0  0  0  0  0  0  0  0  0
    8.5900   -6.2468    0.8270 H   0  0  0  0  0  0  0  0  0  0  0  0
    9.6793   -6.2429    2.1989 H   0  0  0  0  0  0  0  0  0  0  0  0
    8.6174   -4.8951    1.9735 H   0  0  0  0  0  0  0  0  0  0  0  0
    7.4594   -8.6038    1.6694 H   0  0  0  0  0  0  0  0  0  0  0  0
    7.1165   -8.7314    3.3873 H   0  0  0  0  0  0  0  0  0  0  0  0
    8.7572   -8.5422    2.8492 H   0  0  0  0  0  0  0  0  0  0  0  0
    6.0472   -5.3546    0.4676 H   0  0  0  0  0  0  0  0  0  0  0  0
    6.4800   -7.0187    0.5271 H   0  0  0  0  0  0  0  0  0  0  0  0
    3.9335   -6.3081   -0.0835 H   0  0  0  0  0  0  0  0  0  0  0  0
    4.7666   -8.9508    1.1239 H   0  0  0  0  0  0  0  0  0  0  0  0
    4.4719   -8.4522   -0.5167 H   0  0  0  0  0  0  0  0  0  0  0  0
    3.1423   -8.5823    0.6336 H   0  0  0  0  0  0  0  0  0  0  0  0
    2.5055   -4.8634    0.2931 H   0  0  0  0  0  0  0  0  0  0  0  0
    4.5368   -3.9022   -0.5541 H   0  0  0  0  0  0  0  0  0  0  0  0
    3.4911   -2.5637   -0.3430 H   0  0  0  0  0  0  0  0  0  0  0  0
    1.2891   -4.1879    2.0699 H   0  0  0  0  0  0  0  0  0  0  0  0
    2.4060   -5.7368    3.8395 H   0  0  0  0  0  0  0  0  0  0  0  0
    1.1560   -6.6431    1.2201 H   0  0  0  0  0  0  0  0  0  0  0  0
    0.2975   -6.2418    2.7083 H   0  0  0  0  0  0  0  0  0  0  0  0
    1.3850   -7.6086    2.6595 H   0  0  0  0  0  0  0  0  0  0  0  0
    0.2696   -2.8008    3.7581 H   0  0  0  0  0  0  0  0  0  0  0  0
    0.6282   -2.1819    2.1408 H   0  0  0  0  0  0  0  0  0  0  0  0
    2.0622   -2.2030    5.2239 H   0  0  0  0  0  0  0  0  0  0  0  0
    3.7920   -4.5207    5.1116 H   0  0  0  0  0  0  0  0  0  0  0  0
    2.0620   -4.4144    5.4857 H   0  0  0  0  0  0  0  0  0  0  0  0
    3.2292   -3.6758    6.5554 H   0  0  0  0  0  0  0  0  0  0  0  0
    3.4296   -0.7517    5.7176 H   0  0  0  0  0  0  0  0  0  0  0  0
    4.6153   -1.9479    5.9636 H   0  0  0  0  0  0  0  0  0  0  0  0
    6.4199   -0.6715    5.9037 H   0  0  0  0  0  0  0  0  0  0  0  0
    5.1864    2.0753    5.3461 H   0  0  0  0  0  0  0  0  0  0  0  0
    6.2078    1.6383    6.6790 H   0  0  0  0  0  0  0  0  0  0  0  0
    4.6041    0.9610    6.5616 H   0  0  0  0  0  0  0  0  0  0  0  0
    7.0063    1.3497    3.7658 H   0  0  0  0  0  0  0  0  0  0  0  0
    7.9074   -0.0576    3.7501 H   0  0  0  0  0  0  0  0  0  0  0  0
    8.0787    1.0173    5.1554 H   0  0  0  0  0  0  0  0  0  0  0  0
    2.7667   -1.8280    1.4204 H   0  0  0  0  0  0  0  0  0  0  0  0
  1  2  1  0
  1 42  1  0
  1 43  1  0
  1 44  1  0
  2 33  1  0
  2  3  2  0
  3  4  1  0
  3 45  1  0
  4 41  1  0
  4  5  1  0
  4 46  1  6
  5 37  1  0
  5  6  1  0
  5 47  1  1
  6  7  1  0
  7 37  1  0
  7  8  1  0
  7 48  1  1
  8 28  1  6
  8 41  1  0
  8  9  1  0
  9 10  2  3
  9 49  1  0
 10 17  1  0
 10 11  1  0
 11 12  1  0
 12 13  1  0
 12 14  1  0
 12 50  1  1
 13 51  1  0
 13 52  1  0
 13 53  1  0
 14 15  1  0
 14 16  1  0
 14 54  1  6
 15 55  1  0
 15 56  1  0
 15 57  1  0
 16 24  1  0
 16 17  1  0
 16 58  1  6
 17 18  1  6
 17 21  1  0
 18 19  1  0
 18 20  1  0
 18 59  1  0
 19 60  1  0
 19 61  1  0
 19 62  1  0
 20 63  1  0
 20 64  1  0
 20 65  1  0
 21 22  1  0
 21 66  1  0
 21 67  1  0
 22 23  1  0
 22 24  1  0
 22 68  1  6
 23 69  1  0
 23 70  1  0
 23 71  1  0
 24 30  1  0
 24 25  1  6
 25 26  1  0
 26 27  1  0
 26 29  1  0
 26 72  1  6
 27 28  1  0
 27 73  1  0
 27 74  1  0
 29 30  1  0
 29 32  1  0
 29 75  1  6
 30 31  1  0
 30 76  1  1
 31 77  1  0
 31 78  1  0
 31 79  1  0
 32 33  1  1
 32 34  1  0
 32 41  1  0
 33 80  1  0
 33 81  1  0
 34 35  1  0
 34 36  1  0
 34 82  1  1
 35 83  1  0
 35 84  1  0
 35 85  1  0
 36 37  1  0
 36 86  1  0
 36 87  1  0
 37 38  1  1
 38 39  1  0
 38 40  1  0
 38 88  1  0
 39 89  1  0
 39 90  1  0
 39 91  1  0
 40 92  1  0
 40 93  1  0
 40 94  1  0
 41 95  1  6
M  END
>  <i_m_ct_stereo_status>  (295) 
1

>  <s_m_source_file>  (295) 
/var/tmp/pbs.5076255.sched01/tmphrhi8tfx/132_dydaaau.sdf

>  <i_m_source_file_index>  (295) 
10

>  <i_lp_mmshare_version>  (295) 
48012

>  <i_f3d_flags>  (295) 
1

>  <s_epik_input>  (295) 
W0NAQF0xMjNbQ0BASF00W0NAQF01KFtDSF0oW0NIM10pW0NIM10pW0NAQEhdKE80KVtDQEhdNltDSF0zW0NAQF0oW0NAQEhdKFtDSDNdKVtDSDJdNSkoW0NIMl1DKFtDSDNdKT1bQ0hdNilbQ0hdN1tDQEBIXShbQ0gyXU8yKU9bQ0BdOChbQ0BASF03W0NIM10pW0NASF05QyhbQ0hdKFtDSDNdKVtDSDNdKShbQ0gyXVtDQEhdOFtDSDNdKUMoPVtDSF1cMSkvT1tDQEBIXShbQ0gzXSlbQ0BIXTlbQ0gzXQ==

>  <s_epik_cmdline>  (295) 
J2VwaWtfcHl0aG9uJywgJy1waHQnLCAnMi4wJywgJy1waCcsICc3LjAnLCAnLXRuJywgJzgnLCAnLW1hJywgJzIwMCcsICctaW1hZScsICc8aW5maWxlLm1hZT4nLCAnLW9tYWUnLCAnPG91dGZpbGUubWFlPic=

>  <r_lp_tautomer_probability>  (295) 
1

>  <r_epik_Ionization_Penalty>  (295) 
1.06567e-11

>  <r_epik_Ionization_Penalty_Charging>  (295) 
0

>  <r_epik_Ionization_Penalty_Neutral>  (295) 
1.06567e-11

>  <r_epik_State_Penalty>  (295) 
-0

>  <r_epik_Charging_Adjusted_Penalty>  (295) 
0

>  <i_epik_Tot_Q>  (295) 
0

>  <i_epik_Tot_abs_Q>  (295) 
0

>  <s_lp_Force_Field>  (295) 
OPLS3e

>  <r_lp_Energy>  (295) 
306.155

>  <b_lp_Chiralities_Consistent>  (295) 
1

>  <s_lp_Variant>  (295) 
97:0-3

>  <s_i_glide_gridfile>  (295) 
pfpi4k_grid

>  <i_i_glide_lignum>  (295) 
10

>  <i_i_glide_rotatable_bonds>  (295) 
2

>  <r_i_docking_score>  (295) 
-1.84014

>  <r_i_glide_ligand_efficiency>  (295) 
-0.0448814

>  <r_i_glide_ligand_efficiency_sa>  (295) 
-0.154761

>  <r_i_glide_ligand_efficiency_ln>  (295) 
-0.390391

>  <r_i_glide_gscore>  (295) 
-1.84014

>  <r_i_glide_lipo>  (295) 
-0.774666

>  <r_i_glide_hbond>  (295) 
-0.205116

>  <r_i_glide_metal>  (295) 
-0

>  <r_i_glide_rewards>  (295) 
0

>  <r_i_glide_evdw>  (295) 
-10.7806

>  <r_i_glide_ecoul>  (295) 
-2.14219

>  <r_i_glide_erotb>  (295) 
0

>  <r_i_glide_esite>  (295) 
0

>  <r_i_glide_emodel>  (295) 
-12.0671

>  <r_i_glide_energy>  (295) 
-12.9227

>  <r_i_glide_einternal>  (295) 
5.73255

>  <r_i_glide_intrahb_reward>  (295) 
-0

>  <i_i_glide_confnum>  (295) 
1

>  <i_i_glide_posenum>  (295) 
34

>  <r_i_glide_eff_state_penalty>  (295) 
0

>  <ligand_id>  (295) 
97

>  <original_smiles>  (295) 
CC1=CC2C3OC4C56C=C7OC(C)C(C)C8C7(C(C)C)CC(C)C87OC(CO5)C(C7C)C(C1)(C(C)CC34C(C)C)C26

>  <smiles>  (295) 
[H]C1=C(C([H])([H])[H])C([H])([H])C23C([H])(C([H])([H])[H])C([H])([H])C4(C([H])(C([H])([H])[H])C([H])([H])[H])C5([H])OC4([H])C4(OC([H])([H])C6([H])OC7(C([H])(C([H])([H])[H])C([H])([H])C8(C([H])(C([H])([H])[H])C([H])([H])[H])C(=C4[H])OC([H])(C([H])([H])[H])C([H])(C([H])([H])[H])C78[H])C([H])(C([H])([H])[H])C62[H])C3([H])C15[H]

$$$$
97:2:1
     RDKit          3D

 95103  0  0  1  0  0  0  0  0999 V2000
   -0.9893   -1.5593    5.8449 C   0  0  0  0  0  0  0  0  0  0  0  0
    0.2082   -1.8807    4.9745 C   0  0  0  0  0  0  0  0  0  0  0  0
    1.0360   -0.9510    4.4939 C   0  0  0  0  0  0  0  0  0  0  0  0
    2.1964   -1.2738    3.5704 C   0  0  1  0  0  0  0  0  0  0  0  0
    3.4385   -0.5420    3.9622 C   0  0  2  0  0  0  0  0  0  0  0  0
    4.2722   -0.7216    2.7990 O   0  0  0  0  0  0  0  0  0  0  0  0
    4.8227   -1.8913    3.4334 C   0  0  2  0  0  0  0  0  0  0  0  0
    4.0974   -3.1764    3.0498 C   0  0  2  0  0  0  0  0  0  0  0  0
    5.0349   -4.1358    3.9209 C   0  0  0  0  0  0  0  0  0  0  0  0
    5.7196   -5.3390    3.9590 C   0  0  0  0  0  0  0  0  0  0  0  0
    6.3840   -5.4432    5.1718 O   0  0  0  0  0  0  0  0  0  0  0  0
    6.2344   -6.6316    5.9657 C   0  0  1  0  0  0  0  0  0  0  0  0
    6.1794   -6.2443    7.4512 C   0  0  0  0  0  0  0  0  0  0  0  0
    5.1555   -7.6331    5.4690 C   0  0  1  0  0  0  0  0  0  0  0  0
    4.0272   -8.0603    6.4338 C   0  0  0  0  0  0  0  0  0  0  0  0
    4.8580   -7.5332    3.9404 C   0  0  2  0  0  0  0  0  0  0  0  0
    5.8658   -6.6930    3.1215 C   0  0  2  0  0  0  0  0  0  0  0  0
    7.3856   -7.1280    3.0733 C   0  0  0  0  0  0  0  0  0  0  0  0
    8.2013   -6.2998    2.0585 C   0  0  0  0  0  0  0  0  0  0  0  0
    7.6497   -8.6370    2.8838 C   0  0  0  0  0  0  0  0  0  0  0  0
    5.2795   -6.9928    1.6622 C   0  0  0  0  0  0  0  0  0  0  0  0
    3.8302   -7.6352    1.8052 C   0  0  1  0  0  0  0  0  0  0  0  0
    3.7460   -9.1639    1.5607 C   0  0  0  0  0  0  0  0  0  0  0  0
    3.4880   -7.1261    3.2498 C   0  0  2  0  0  0  0  0  0  0  0  0
    3.4952   -5.8387    2.7084 O   0  0  0  0  0  0  0  0  0  0  0  0
    2.3581   -5.3026    2.1495 C   0  0  2  0  0  0  0  0  0  0  0  0
    3.0420   -4.2799    1.1671 C   0  0  0  0  0  0  0  0  0  0  0  0
    4.1619   -3.5202    1.6731 O   0  0  0  0  0  0  0  0  0  0  0  0
    1.7615   -5.1977    3.5611 C   0  0  1  0  0  0  0  0  0  0  0  0
    2.1798   -6.6727    4.0248 C   0  0  1  0  0  0  0  0  0  0  0  0
    1.0624   -7.7179    3.8434 C   0  0  0  0  0  0  0  0  0  0  0  0
    1.9049   -3.7656    4.3651 C   0  0  1  0  0  0  0  0  0  0  0  0
    0.4131   -3.3373    4.6070 C   0  0  0  0  0  0  0  0  0  0  0  0
    2.6960   -3.4682    5.7292 C   0  0  1  0  0  0  0  0  0  0  0  0
    3.0782   -4.6850    6.5538 C   0  0  0  0  0  0  0  0  0  0  0  0
    3.7185   -2.2288    5.9539 C   0  0  0  0  0  0  0  0  0  0  0  0
    4.4200   -1.3130    4.8385 C   0  0  2  0  0  0  0  0  0  0  0  0
    5.5382   -0.4541    5.5251 C   0  0  0  0  0  0  0  0  0  0  0  0
    5.0734    0.3386    6.7698 C   0  0  0  0  0  0  0  0  0  0  0  0
    6.2484    0.5396    4.5699 C   0  0  0  0  0  0  0  0  0  0  0  0
    2.5400   -2.8038    3.3896 C   0  0  1  0  0  0  0  0  0  0  0  0
   -0.8720   -2.0216    6.8255 H   0  0  0  0  0  0  0  0  0  0  0  0
   -1.9060   -1.9350    5.3904 H   0  0  0  0  0  0  0  0  0  0  0  0
   -1.0945   -0.4810    5.9819 H   0  0  0  0  0  0  0  0  0  0  0  0
    0.8861    0.0940    4.7323 H   0  0  0  0  0  0  0  0  0  0  0  0
    1.8839   -0.8646    2.6058 H   0  0  0  0  0  0  0  0  0  0  0  0
    3.3125    0.5112    4.2302 H   0  0  0  0  0  0  0  0  0  0  0  0
    5.9001   -1.9385    3.2739 H   0  0  0  0  0  0  0  0  0  0  0  0
    5.3158   -3.6330    4.8248 H   0  0  0  0  0  0  0  0  0  0  0  0
    7.1867   -7.1562    5.9058 H   0  0  0  0  0  0  0  0  0  0  0  0
    6.1194   -7.1251    8.0898 H   0  0  0  0  0  0  0  0  0  0  0  0
    5.3401   -5.6011    7.6888 H   0  0  0  0  0  0  0  0  0  0  0  0
    7.0844   -5.7059    7.7319 H   0  0  0  0  0  0  0  0  0  0  0  0
    5.7385   -8.5548    5.5136 H   0  0  0  0  0  0  0  0  0  0  0  0
    3.4676   -7.2361    6.8615 H   0  0  0  0  0  0  0  0  0  0  0  0
    4.4380   -8.6057    7.2857 H   0  0  0  0  0  0  0  0  0  0  0  0
    3.3218   -8.7349    5.9477 H   0  0  0  0  0  0  0  0  0  0  0  0
    5.0115   -8.5744    3.6760 H   0  0  0  0  0  0  0  0  0  0  0  0
    7.8833   -6.8875    4.0035 H   0  0  0  0  0  0  0  0  0  0  0  0
    7.9399   -6.5221    1.0229 H   0  0  0  0  0  0  0  0  0  0  0  0
    9.2675   -6.5022    2.1711 H   0  0  0  0  0  0  0  0  0  0  0  0
    8.0681   -5.2277    2.2194 H   0  0  0  0  0  0  0  0  0  0  0  0
    7.2754   -9.0313    1.9399 H   0  0  0  0  0  0  0  0  0  0  0  0
    7.2133   -9.2279    3.6872 H   0  0  0  0  0  0  0  0  0  0  0  0
    8.7218   -8.8298    2.8999 H   0  0  0  0  0  0  0  0  0  0  0  0
    5.2677   -6.0723    1.0793 H   0  0  0  0  0  0  0  0  0  0  0  0
    5.8885   -7.6756    1.0735 H   0  0  0  0  0  0  0  0  0  0  0  0
    3.2198   -7.2677    0.9829 H   0  0  0  0  0  0  0  0  0  0  0  0
    4.4997   -9.7523    2.0803 H   0  0  0  0  0  0  0  0  0  0  0  0
    3.8781   -9.3833    0.5004 H   0  0  0  0  0  0  0  0  0  0  0  0
    2.7668   -9.5497    1.8471 H   0  0  0  0  0  0  0  0  0  0  0  0
    1.7438   -5.9845    1.5626 H   0  0  0  0  0  0  0  0  0  0  0  0
    3.4382   -4.8489    0.3260 H   0  0  0  0  0  0  0  0  0  0  0  0
    2.3105   -3.6234    0.6950 H   0  0  0  0  0  0  0  0  0  0  0  0
    0.6977   -5.3040    3.3664 H   0  0  0  0  0  0  0  0  0  0  0  0
    2.3682   -6.6510    5.0798 H   0  0  0  0  0  0  0  0  0  0  0  0
    0.7745   -7.8373    2.7982 H   0  0  0  0  0  0  0  0  0  0  0  0
    0.1689   -7.4532    4.4075 H   0  0  0  0  0  0  0  0  0  0  0  0
    1.3867   -8.6972    4.1988 H   0  0  0  0  0  0  0  0  0  0  0  0
   -0.0451   -3.9832    5.3585 H   0  0  0  0  0  0  0  0  0  0  0  0
   -0.1734   -3.4354    3.6961 H   0  0  0  0  0  0  0  0  0  0  0  0
    1.9045   -3.1407    6.4025 H   0  0  0  0  0  0  0  0  0  0  0  0
    3.8438   -5.2536    6.0363 H   0  0  0  0  0  0  0  0  0  0  0  0
    2.2054   -5.3156    6.7405 H   0  0  0  0  0  0  0  0  0  0  0  0
    3.4607   -4.3940    7.5359 H   0  0  0  0  0  0  0  0  0  0  0  0
    3.1409   -1.5400    6.5687 H   0  0  0  0  0  0  0  0  0  0  0  0
    4.4970   -2.5696    6.6364 H   0  0  0  0  0  0  0  0  0  0  0  0
    6.3080   -1.1401    5.8771 H   0  0  0  0  0  0  0  0  0  0  0  0
    4.3414    1.1042    6.5112 H   0  0  0  0  0  0  0  0  0  0  0  0
    5.9172    0.8470    7.2416 H   0  0  0  0  0  0  0  0  0  0  0  0
    4.6430   -0.2916    7.5447 H   0  0  0  0  0  0  0  0  0  0  0  0
    5.5502    1.3139    4.2521 H   0  0  0  0  0  0  0  0  0  0  0  0
    6.6477    0.0782    3.6707 H   0  0  0  0  0  0  0  0  0  0  0  0
    7.0916    1.0366    5.0536 H   0  0  0  0  0  0  0  0  0  0  0  0
    1.8721   -2.8705    2.5420 H   0  0  0  0  0  0  0  0  0  0  0  0
  1  2  1  0
  1 42  1  0
  1 43  1  0
  1 44  1  0
  2 33  1  0
  2  3  2  0
  3  4  1  0
  3 45  1  0
  4 41  1  0
  4  5  1  0
  4 46  1  6
  5 37  1  0
  5  6  1  0
  5 47  1  1
  6  7  1  0
  7 37  1  0
  7  8  1  0
  7 48  1  1
  8 28  1  6
  8 41  1  0
  8  9  1  0
  9 10  2  3
  9 49  1  0
 10 17  1  0
 10 11  1  0
 11 12  1  0
 12 13  1  0
 12 14  1  0
 12 50  1  1
 13 51  1  0
 13 52  1  0
 13 53  1  0
 14 15  1  0
 14 16  1  0
 14 54  1  6
 15 55  1  0
 15 56  1  0
 15 57  1  0
 16 24  1  0
 16 17  1  0
 16 58  1  6
 17 18  1  6
 17 21  1  0
 18 19  1  0
 18 20  1  0
 18 59  1  0
 19 60  1  0
 19 61  1  0
 19 62  1  0
 20 63  1  0
 20 64  1  0
 20 65  1  0
 21 22  1  0
 21 66  1  0
 21 67  1  0
 22 23  1  0
 22 24  1  0
 22 68  1  6
 23 69  1  0
 23 70  1  0
 23 71  1  0
 24 30  1  0
 24 25  1  6
 25 26  1  0
 26 27  1  0
 26 29  1  0
 26 72  1  6
 27 28  1  0
 27 73  1  0
 27 74  1  0
 29 30  1  0
 29 32  1  0
 29 75  1  6
 30 31  1  0
 30 76  1  1
 31 77  1  0
 31 78  1  0
 31 79  1  0
 32 33  1  1
 32 34  1  0
 32 41  1  0
 33 80  1  0
 33 81  1  0
 34 35  1  0
 34 36  1  0
 34 82  1  1
 35 83  1  0
 35 84  1  0
 35 85  1  0
 36 37  1  0
 36 86  1  0
 36 87  1  0
 37 38  1  1
 38 39  1  0
 38 40  1  0
 38 88  1  0
 39 89  1  0
 39 90  1  0
 39 91  1  0
 40 92  1  0
 40 93  1  0
 40 94  1  0
 41 95  1  6
M  END
>  <i_m_ct_stereo_status>  (296) 
1

>  <s_m_source_file>  (296) 
/var/tmp/pbs.5076255.sched01/tmphrhi8tfx/132_dydaaau.sdf

>  <i_m_source_file_index>  (296) 
10

>  <i_lp_mmshare_version>  (296) 
48012

>  <i_f3d_flags>  (296) 
1

>  <s_epik_input>  (296) 
W0NAQF0xMjNbQ0BASF00W0NAQF01KFtDSF0oW0NIM10pW0NIM10pW0NAQEhdKE80KVtDQEhdNltDSF0zW0NAQF0oW0NAQEhdKFtDSDNdKVtDSDJdNSkoW0NIMl1DKFtDSDNdKT1bQ0hdNilbQ0hdN1tDQEBIXShbQ0gyXU8yKU9bQ0BdOChbQ0BASF03W0NIM10pW0NASF05QyhbQ0hdKFtDSDNdKVtDSDNdKShbQ0gyXVtDQEhdOFtDSDNdKUMoPVtDSF1cMSkvT1tDQEBIXShbQ0gzXSlbQ0BIXTlbQ0gzXQ==

>  <s_epik_cmdline>  (296) 
J2VwaWtfcHl0aG9uJywgJy1waHQnLCAnMi4wJywgJy1waCcsICc3LjAnLCAnLXRuJywgJzgnLCAnLW1hJywgJzIwMCcsICctaW1hZScsICc8aW5maWxlLm1hZT4nLCAnLW9tYWUnLCAnPG91dGZpbGUubWFlPic=

>  <r_lp_tautomer_probability>  (296) 
1

>  <r_epik_Ionization_Penalty>  (296) 
1.06567e-11

>  <r_epik_Ionization_Penalty_Charging>  (296) 
0

>  <r_epik_Ionization_Penalty_Neutral>  (296) 
1.06567e-11

>  <r_epik_State_Penalty>  (296) 
-0

>  <r_epik_Charging_Adjusted_Penalty>  (296) 
0

>  <i_epik_Tot_Q>  (296) 
0

>  <i_epik_Tot_abs_Q>  (296) 
0

>  <s_lp_Force_Field>  (296) 
OPLS3e

>  <r_lp_Energy>  (296) 
306.155

>  <b_lp_Chiralities_Consistent>  (296) 
1

>  <s_lp_Variant>  (296) 
97:0-3

>  <s_i_glide_gridfile>  (296) 
pfpi4k_grid

>  <i_i_glide_lignum>  (296) 
10

>  <i_i_glide_rotatable_bonds>  (296) 
2

>  <r_i_docking_score>  (296) 
-1.45928

>  <r_i_glide_ligand_efficiency>  (296) 
-0.0355922

>  <r_i_glide_ligand_efficiency_sa>  (296) 
-0.12273

>  <r_i_glide_ligand_efficiency_ln>  (296) 
-0.309591

>  <r_i_glide_gscore>  (296) 
-1.45928

>  <r_i_glide_lipo>  (296) 
-0.41202

>  <r_i_glide_hbond>  (296) 
0

>  <r_i_glide_metal>  (296) 
-0

>  <r_i_glide_rewards>  (296) 
0

>  <r_i_glide_evdw>  (296) 
-20.5225

>  <r_i_glide_ecoul>  (296) 
-0.140909

>  <r_i_glide_erotb>  (296) 
0

>  <r_i_glide_esite>  (296) 
0

>  <r_i_glide_emodel>  (296) 
-21.8172

>  <r_i_glide_energy>  (296) 
-20.6634

>  <r_i_glide_einternal>  (296) 
1.90068

>  <r_i_glide_intrahb_reward>  (296) 
-0

>  <i_i_glide_confnum>  (296) 
2

>  <i_i_glide_posenum>  (296) 
5

>  <r_i_glide_eff_state_penalty>  (296) 
0

>  <ligand_id>  (296) 
97

>  <original_smiles>  (296) 
CC1=CC2C3OC4C56C=C7OC(C)C(C)C8C7(C(C)C)CC(C)C87OC(CO5)C(C7C)C(C1)(C(C)CC34C(C)C)C26

>  <smiles>  (296) 
[H]C1=C(C([H])([H])[H])C([H])([H])C23C([H])(C([H])([H])[H])C([H])([H])C4(C([H])(C([H])([H])[H])C([H])([H])[H])C5([H])OC4([H])C4(OC([H])([H])C6([H])OC7(C([H])(C([H])([H])[H])C([H])([H])C8(C([H])(C([H])([H])[H])C([H])([H])[H])C(=C4[H])OC([H])(C([H])([H])[H])C([H])(C([H])([H])[H])C78[H])C([H])(C([H])([H])[H])C62[H])C3([H])C15[H]

$$$$
97:2:2
     RDKit          3D

 95103  0  0  1  0  0  0  0  0999 V2000
   -2.0366   -8.5396    2.7336 C   0  0  0  0  0  0  0  0  0  0  0  0
   -0.8394   -7.8698    3.3673 C   0  0  0  0  0  0  0  0  0  0  0  0
   -0.9327   -7.0808    4.4457 C   0  0  0  0  0  0  0  0  0  0  0  0
    0.2613   -6.3681    5.0509 C   0  0  1  0  0  0  0  0  0  0  0  0
    0.2680   -6.4605    6.5381 C   0  0  2  0  0  0  0  0  0  0  0  0
    1.2454   -5.4648    6.9021 O   0  0  0  0  0  0  0  0  0  0  0  0
    2.2391   -6.5064    6.9020 C   0  0  2  0  0  0  0  0  0  0  0  0
    2.9399   -6.6365    5.5491 C   0  0  2  0  0  0  0  0  0  0  0  0
    3.9136   -7.8203    6.0062 C   0  0  0  0  0  0  0  0  0  0  0  0
    5.2011   -8.3206    5.9528 C   0  0  0  0  0  0  0  0  0  0  0  0
    5.2607   -9.4926    6.6939 O   0  0  0  0  0  0  0  0  0  0  0  0
    5.8226  -10.6782    6.1078 C   0  0  1  0  0  0  0  0  0  0  0  0
    5.0161  -11.9042    6.5646 C   0  0  0  0  0  0  0  0  0  0  0  0
    6.1500  -10.5856    4.5924 C   0  0  1  0  0  0  0  0  0  0  0  0
    5.5346  -11.6247    3.6287 C   0  0  0  0  0  0  0  0  0  0  0  0
    6.4019   -9.1308    4.0905 C   0  0  2  0  0  0  0  0  0  0  0  0
    6.5886   -8.0658    5.1983 C   0  0  2  0  0  0  0  0  0  0  0  0
    7.7873   -8.2064    6.2219 C   0  0  0  0  0  0  0  0  0  0  0  0
    7.9225   -6.9724    7.1390 C   0  0  0  0  0  0  0  0  0  0  0  0
    9.1560   -8.5876    5.6130 C   0  0  0  0  0  0  0  0  0  0  0  0
    6.9589   -6.8223    4.2580 C   0  0  0  0  0  0  0  0  0  0  0  0
    6.5958   -7.1842    2.7509 C   0  0  1  0  0  0  0  0  0  0  0  0
    7.7971   -7.5434    1.8402 C   0  0  0  0  0  0  0  0  0  0  0  0
    5.5482   -8.3195    3.0253 C   0  0  2  0  0  0  0  0  0  0  0  0
    4.7432   -7.3276    3.5915 O   0  0  0  0  0  0  0  0  0  0  0  0
    3.8792   -6.5940    2.8109 C   0  0  2  0  0  0  0  0  0  0  0  0
    3.7971   -5.3056    3.7110 C   0  0  0  0  0  0  0  0  0  0  0  0
    3.6792   -5.4947    5.1399 O   0  0  0  0  0  0  0  0  0  0  0  0
    3.0126   -7.8512    2.6566 C   0  0  1  0  0  0  0  0  0  0  0  0
    4.2232   -8.8466    2.3312 C   0  0  1  0  0  0  0  0  0  0  0  0
    4.4577   -9.0556    0.8241 C   0  0  0  0  0  0  0  0  0  0  0  0
    1.7366   -8.0494    3.6799 C   0  0  1  0  0  0  0  0  0  0  0  0
    0.5022   -8.0827    2.7045 C   0  0  0  0  0  0  0  0  0  0  0  0
    1.4957   -9.2075    4.7715 C   0  0  1  0  0  0  0  0  0  0  0  0
    2.3820  -10.4348    4.6240 C   0  0  0  0  0  0  0  0  0  0  0  0
    1.0422   -8.9533    6.3124 C   0  0  0  0  0  0  0  0  0  0  0  0
    1.1189   -7.5788    7.1461 C   0  0  2  0  0  0  0  0  0  0  0  0
    0.8203   -7.8882    8.6540 C   0  0  0  0  0  0  0  0  0  0  0  0
    0.5285   -6.6345    9.5260 C   0  0  0  0  0  0  0  0  0  0  0  0
    1.9334   -8.7038    9.3574 C   0  0  0  0  0  0  0  0  0  0  0  0
    1.6782   -6.7898    4.5142 C   0  0  1  0  0  0  0  0  0  0  0  0
   -1.9465   -9.6259    2.7916 H   0  0  0  0  0  0  0  0  0  0  0  0
   -2.1175   -8.2629    1.6825 H   0  0  0  0  0  0  0  0  0  0  0  0
   -2.9519   -8.2464    3.2477 H   0  0  0  0  0  0  0  0  0  0  0  0
   -1.8930   -6.9131    4.9071 H   0  0  0  0  0  0  0  0  0  0  0  0
    0.0835   -5.3174    4.8093 H   0  0  0  0  0  0  0  0  0  0  0  0
   -0.6953   -6.2730    7.0147 H   0  0  0  0  0  0  0  0  0  0  0  0
    2.9100   -6.3858    7.7551 H   0  0  0  0  0  0  0  0  0  0  0  0
    3.3869   -8.4708    6.6765 H   0  0  0  0  0  0  0  0  0  0  0  0
    6.7740  -10.8384    6.6136 H   0  0  0  0  0  0  0  0  0  0  0  0
    5.4481  -12.8289    6.1857 H   0  0  0  0  0  0  0  0  0  0  0  0
    3.9768  -11.8701    6.2566 H   0  0  0  0  0  0  0  0  0  0  0  0
    5.0197  -11.9721    7.6528 H   0  0  0  0  0  0  0  0  0  0  0  0
    7.1652  -10.9858    4.6072 H   0  0  0  0  0  0  0  0  0  0  0  0
    4.4536  -11.6991    3.6818 H   0  0  0  0  0  0  0  0  0  0  0  0
    5.9034  -12.6258    3.8571 H   0  0  0  0  0  0  0  0  0  0  0  0
    5.8068  -11.4234    2.5919 H   0  0  0  0  0  0  0  0  0  0  0  0
    7.3672   -9.2861    3.6229 H   0  0  0  0  0  0  0  0  0  0  0  0
    7.5864   -8.9930    6.9377 H   0  0  0  0  0  0  0  0  0  0  0  0
    8.2611   -6.0846    6.6034 H   0  0  0  0  0  0  0  0  0  0  0  0
    8.6439   -7.1629    7.9356 H   0  0  0  0  0  0  0  0  0  0  0  0
    6.9739   -6.7316    7.6226 H   0  0  0  0  0  0  0  0  0  0  0  0
    9.5475   -7.8488    4.9158 H   0  0  0  0  0  0  0  0  0  0  0  0
    9.1098   -9.5435    5.0947 H   0  0  0  0  0  0  0  0  0  0  0  0
    9.9027   -8.6939    6.4000 H   0  0  0  0  0  0  0  0  0  0  0  0
    6.4322   -5.9351    4.6090 H   0  0  0  0  0  0  0  0  0  0  0  0
    8.0102   -6.5395    4.2894 H   0  0  0  0  0  0  0  0  0  0  0  0
    6.2399   -6.2779    2.2650 H   0  0  0  0  0  0  0  0  0  0  0  0
    8.5015   -8.2530    2.2691 H   0  0  0  0  0  0  0  0  0  0  0  0
    8.3811   -6.6485    1.6216 H   0  0  0  0  0  0  0  0  0  0  0  0
    7.4574   -7.9448    0.8848 H   0  0  0  0  0  0  0  0  0  0  0  0
    4.2456   -6.3039    1.8268 H   0  0  0  0  0  0  0  0  0  0  0  0
    4.7261   -4.7510    3.5726 H   0  0  0  0  0  0  0  0  0  0  0  0
    3.0400   -4.6094    3.3456 H   0  0  0  0  0  0  0  0  0  0  0  0
    2.5665   -7.7002    1.6771 H   0  0  0  0  0  0  0  0  0  0  0  0
    3.9684   -9.8194    2.7072 H   0  0  0  0  0  0  0  0  0  0  0  0
    4.7226   -8.1319    0.3096 H   0  0  0  0  0  0  0  0  0  0  0  0
    3.5734   -9.4678    0.3387 H   0  0  0  0  0  0  0  0  0  0  0  0
    5.2681   -9.7669    0.6603 H   0  0  0  0  0  0  0  0  0  0  0  0
    0.4926   -9.0244    2.1528 H   0  0  0  0  0  0  0  0  0  0  0  0
    0.5502   -7.2836    1.9615 H   0  0  0  0  0  0  0  0  0  0  0  0
    0.5857   -9.6951    4.4211 H   0  0  0  0  0  0  0  0  0  0  0  0
    3.4108  -10.1831    4.8599 H   0  0  0  0  0  0  0  0  0  0  0  0
    2.3212  -10.8382    3.6104 H   0  0  0  0  0  0  0  0  0  0  0  0
    2.0593  -11.2409    5.2877 H   0  0  0  0  0  0  0  0  0  0  0  0
   -0.0042   -9.2597    6.3563 H   0  0  0  0  0  0  0  0  0  0  0  0
    1.5157   -9.7468    6.8826 H   0  0  0  0  0  0  0  0  0  0  0  0
   -0.0848   -8.4964    8.6953 H   0  0  0  0  0  0  0  0  0  0  0  0
    1.4082   -5.9978    9.6077 H   0  0  0  0  0  0  0  0  0  0  0  0
    0.2404   -6.9032   10.5430 H   0  0  0  0  0  0  0  0  0  0  0  0
   -0.2755   -6.0155    9.1353 H   0  0  0  0  0  0  0  0  0  0  0  0
    2.8584   -8.1331    9.4397 H   0  0  0  0  0  0  0  0  0  0  0  0
    2.1753   -9.6410    8.8585 H   0  0  0  0  0  0  0  0  0  0  0  0
    1.6308   -8.9762   10.3708 H   0  0  0  0  0  0  0  0  0  0  0  0
    1.6290   -6.0246    3.7530 H   0  0  0  0  0  0  0  0  0  0  0  0
  1  2  1  0
  1 42  1  0
  1 43  1  0
  1 44  1  0
  2 33  1  0
  2  3  2  0
  3  4  1  0
  3 45  1  0
  4 41  1  0
  4  5  1  0
  4 46  1  1
  5 37  1  0
  5  6  1  0
  5 47  1  1
  6  7  1  0
  7 37  1  0
  7  8  1  0
  7 48  1  1
  8 28  1  6
  8 41  1  0
  8  9  1  0
  9 10  2  3
  9 49  1  0
 10 17  1  0
 10 11  1  0
 11 12  1  0
 12 13  1  0
 12 14  1  0
 12 50  1  1
 13 51  1  0
 13 52  1  0
 13 53  1  0
 14 15  1  0
 14 16  1  0
 14 54  1  1
 15 55  1  0
 15 56  1  0
 15 57  1  0
 16 24  1  0
 16 17  1  0
 16 58  1  6
 17 18  1  1
 17 21  1  0
 18 19  1  0
 18 20  1  0
 18 59  1  0
 19 60  1  0
 19 61  1  0
 19 62  1  0
 20 63  1  0
 20 64  1  0
 20 65  1  0
 21 22  1  0
 21 66  1  0
 21 67  1  0
 22 23  1  0
 22 24  1  0
 22 68  1  6
 23 69  1  0
 23 70  1  0
 23 71  1  0
 24 30  1  0
 24 25  1  1
 25 26  1  0
 26 27  1  0
 26 29  1  0
 26 72  1  6
 27 28  1  0
 27 73  1  0
 27 74  1  0
 29 30  1  0
 29 32  1  0
 29 75  1  6
 30 31  1  0
 30 76  1  1
 31 77  1  0
 31 78  1  0
 31 79  1  0
 32 33  1  6
 32 34  1  0
 32 41  1  0
 33 80  1  0
 33 81  1  0
 34 35  1  0
 34 36  1  0
 34 82  1  6
 35 83  1  0
 35 84  1  0
 35 85  1  0
 36 37  1  0
 36 86  1  0
 36 87  1  0
 37 38  1  1
 38 39  1  0
 38 40  1  0
 38 88  1  0
 39 89  1  0
 39 90  1  0
 39 91  1  0
 40 92  1  0
 40 93  1  0
 40 94  1  0
 41 95  1  6
M  END
>  <i_m_ct_stereo_status>  (297) 
1

>  <s_m_source_file>  (297) 
/var/tmp/pbs.5076255.sched01/tmphrhi8tfx/132_dydaaau.sdf

>  <i_m_source_file_index>  (297) 
10

>  <i_lp_mmshare_version>  (297) 
48012

>  <i_f3d_flags>  (297) 
1

>  <s_epik_input>  (297) 
W0NAQF0xMjNbQ0BASF00W0NAQF01KFtDSF0oW0NIM10pW0NIM10pW0NAQEhdKE80KVtDQEhdNltDSF0zW0NAQF0oW0NAQEhdKFtDSDNdKVtDSDJdNSkoW0NIMl1DKFtDSDNdKT1bQ0hdNilbQ0hdN1tDQEBIXShbQ0gyXU8yKU9bQ0BdOChbQ0BASF03W0NIM10pW0NASF05QyhbQ0hdKFtDSDNdKVtDSDNdKShbQ0gyXVtDQEhdOFtDSDNdKUMoPVtDSF1cMSkvT1tDQEBIXShbQ0gzXSlbQ0BIXTlbQ0gzXQ==

>  <s_epik_cmdline>  (297) 
J2VwaWtfcHl0aG9uJywgJy1waHQnLCAnMi4wJywgJy1waCcsICc3LjAnLCAnLXRuJywgJzgnLCAnLW1hJywgJzIwMCcsICctaW1hZScsICc8aW5maWxlLm1hZT4nLCAnLW9tYWUnLCAnPG91dGZpbGUubWFlPic=

>  <r_lp_tautomer_probability>  (297) 
1

>  <r_epik_Ionization_Penalty>  (297) 
1.06567e-11

>  <r_epik_Ionization_Penalty_Charging>  (297) 
0

>  <r_epik_Ionization_Penalty_Neutral>  (297) 
1.06567e-11

>  <r_epik_State_Penalty>  (297) 
-0

>  <r_epik_Charging_Adjusted_Penalty>  (297) 
0

>  <i_epik_Tot_Q>  (297) 
0

>  <i_epik_Tot_abs_Q>  (297) 
0

>  <s_lp_Force_Field>  (297) 
OPLS3e

>  <r_lp_Energy>  (297) 
306.155

>  <b_lp_Chiralities_Consistent>  (297) 
1

>  <s_lp_Variant>  (297) 
97:0-3

>  <s_i_glide_gridfile>  (297) 
pfpi4k_grid

>  <i_i_glide_lignum>  (297) 
10

>  <i_i_glide_rotatable_bonds>  (297) 
2

>  <r_i_docking_score>  (297) 
-1.34595

>  <r_i_glide_ligand_efficiency>  (297) 
-0.0328279

>  <r_i_glide_ligand_efficiency_sa>  (297) 
-0.113198

>  <r_i_glide_ligand_efficiency_ln>  (297) 
-0.285547

>  <r_i_glide_gscore>  (297) 
-1.34595

>  <r_i_glide_lipo>  (297) 
-0.0702447

>  <r_i_glide_hbond>  (297) 
0

>  <r_i_glide_metal>  (297) 
-0

>  <r_i_glide_rewards>  (297) 
0

>  <r_i_glide_evdw>  (297) 
-23.9742

>  <r_i_glide_ecoul>  (297) 
-0.513271

>  <r_i_glide_erotb>  (297) 
0

>  <r_i_glide_esite>  (297) 
0

>  <r_i_glide_emodel>  (297) 
-25.6088

>  <r_i_glide_energy>  (297) 
-24.4875

>  <r_i_glide_einternal>  (297) 
1.58931

>  <r_i_glide_intrahb_reward>  (297) 
-0

>  <i_i_glide_confnum>  (297) 
1

>  <i_i_glide_posenum>  (297) 
1

>  <r_i_glide_eff_state_penalty>  (297) 
0

>  <ligand_id>  (297) 
97

>  <original_smiles>  (297) 
CC1=CC2C3OC4C56C=C7OC(C)C(C)C8C7(C(C)C)CC(C)C87OC(CO5)C(C7C)C(C1)(C(C)CC34C(C)C)C26

>  <smiles>  (297) 
[H]C1=C(C([H])([H])[H])C([H])([H])C23C([H])(C([H])([H])[H])C([H])([H])C4(C([H])(C([H])([H])[H])C([H])([H])[H])C5([H])OC4([H])C4(OC([H])([H])C6([H])OC7(C([H])(C([H])([H])[H])C([H])([H])C8(C([H])(C([H])([H])[H])C([H])([H])[H])C(=C4[H])OC([H])(C([H])([H])[H])C([H])(C([H])([H])[H])C78[H])C([H])(C([H])([H])[H])C62[H])C3([H])C15[H]

$$$$
98:0:0
     RDKit          3D

 54 57  0  0  1  0  0  0  0  0999 V2000
    3.2778   -7.4245    1.6350 C   0  0  0  0  0  0  0  0  0  0  0  0
    3.7420   -6.3621    2.0241 C   0  0  0  0  0  0  0  0  0  0  0  0
    4.2974   -5.0785    2.5247 C   0  0  2  0  0  0  0  0  0  0  0  0
    4.1929   -5.0948    4.0653 C   0  0  0  0  0  0  0  0  0  0  0  0
    2.7527   -4.6142    4.3709 C   0  0  0  0  0  0  0  0  0  0  0  0
    2.1923   -3.9192    3.0850 C   0  0  1  0  0  0  0  0  0  0  0  0
    1.4170   -2.6202    3.3500 C   0  0  0  0  0  0  0  0  0  0  0  0
    1.5806   -1.4545    2.6761 C   0  0  0  0  0  0  0  0  0  0  0  0
    0.3786   -2.6938    4.4682 C   0  0  0  0  0  0  0  0  0  0  0  0
    3.4649   -3.8142    2.2082 C   0  0  2  0  0  0  0  0  0  0  0  0
    3.4021   -3.4118    0.7016 C   0  0  2  0  0  0  0  0  0  0  0  0
    2.5564   -4.2998   -0.2251 C   0  0  0  0  0  0  0  0  0  0  0  0
    2.6651   -3.8571   -1.6547 C   0  0  0  0  0  0  0  0  0  0  0  0
    3.6839   -3.1211   -2.1445 C   0  0  0  0  0  0  0  0  0  0  0  0
    3.6310   -2.6135   -3.5721 C   0  0  0  0  0  0  0  0  0  0  0  0
    3.4837   -1.1011   -3.5261 C   0  0  0  0  0  0  0  0  0  0  0  0
    2.7284   -0.4970   -4.2808 O   0  0  0  0  0  0  0  0  0  0  0  0
    4.4383   -0.3717   -2.5893 C   0  0  0  0  0  0  0  0  0  0  0  0
    4.6045   -1.0471   -1.2086 C   0  0  0  0  0  0  0  0  0  0  0  0
    4.8341   -2.5890   -1.2744 C   0  0  2  0  0  0  0  0  0  0  0  0
    6.2031   -2.8402   -1.9361 C   0  0  0  0  0  0  0  0  0  0  0  0
    4.8418   -3.1981    0.1765 C   0  0  2  0  0  0  0  0  0  0  0  0
    5.7007   -4.4686    0.4412 C   0  0  0  0  0  0  0  0  0  0  0  0
    5.7190   -4.8534    1.9511 C   0  0  0  0  0  0  0  0  0  0  0  0
    2.8673   -8.3465    1.2856 H   0  0  0  0  0  0  0  0  0  0  0  0
    4.4126   -6.0657    4.5248 H   0  0  0  0  0  0  0  0  0  0  0  0
    4.8950   -4.3814    4.5028 H   0  0  0  0  0  0  0  0  0  0  0  0
    2.1175   -5.4531    4.6753 H   0  0  0  0  0  0  0  0  0  0  0  0
    2.7919   -3.9404    5.2291 H   0  0  0  0  0  0  0  0  0  0  0  0
    1.5129   -4.6404    2.6205 H   0  0  0  0  0  0  0  0  0  0  0  0
    2.3208   -1.3165    1.9235 H   0  0  0  0  0  0  0  0  0  0  0  0
    0.9216   -0.6221    2.9176 H   0  0  0  0  0  0  0  0  0  0  0  0
   -0.3693   -3.4649    4.2793 H   0  0  0  0  0  0  0  0  0  0  0  0
   -0.1274   -1.7348    4.5636 H   0  0  0  0  0  0  0  0  0  0  0  0
    0.8447   -2.8981    5.4343 H   0  0  0  0  0  0  0  0  0  0  0  0
    4.0118   -2.9985    2.6787 H   0  0  0  0  0  0  0  0  0  0  0  0
    2.9461   -2.4472    0.5768 H   0  0  0  0  0  0  0  0  0  0  0  0
    2.7225   -5.3688   -0.1791 H   0  0  0  0  0  0  0  0  0  0  0  0
    1.5254   -4.1472    0.0404 H   0  0  0  0  0  0  0  0  0  0  0  0
    1.8457   -4.1442   -2.3051 H   0  0  0  0  0  0  0  0  0  0  0  0
    4.5489   -2.8659   -4.0978 H   0  0  0  0  0  0  0  0  0  0  0  0
    2.7969   -3.0516   -4.1193 H   0  0  0  0  0  0  0  0  0  0  0  0
    5.3977   -0.3452   -3.0777 H   0  0  0  0  0  0  0  0  0  0  0  0
    4.1390    0.6682   -2.5064 H   0  0  0  0  0  0  0  0  0  0  0  0
    5.4196   -0.5529   -0.6732 H   0  0  0  0  0  0  0  0  0  0  0  0
    3.6996   -0.8176   -0.6479 H   0  0  0  0  0  0  0  0  0  0  0  0
    7.0337   -2.5055   -1.3104 H   0  0  0  0  0  0  0  0  0  0  0  0
    6.2850   -2.3383   -2.8911 H   0  0  0  0  0  0  0  0  0  0  0  0
    6.3371   -3.8951   -2.1531 H   0  0  0  0  0  0  0  0  0  0  0  0
    5.2865   -2.4319    0.8137 H   0  0  0  0  0  0  0  0  0  0  0  0
    5.3154   -5.2993   -0.1560 H   0  0  0  0  0  0  0  0  0  0  0  0
    6.7379   -4.3068    0.1414 H   0  0  0  0  0  0  0  0  0  0  0  0
    6.2076   -4.0513    2.5079 H   0  0  0  0  0  0  0  0  0  0  0  0
    6.3418   -5.7445    2.0998 H   0  0  0  0  0  0  0  0  0  0  0  0
  1  2  3  0
  1 25  1  0
  3  2  1  6
  3 10  1  0
  3 24  1  0
  3  4  1  0
  4  5  1  0
  4 26  1  0
  4 27  1  0
  5  6  1  0
  5 28  1  0
  5 29  1  0
  6  7  1  0
  6 10  1  0
  6 30  1  6
  7  8  2  0
  7  9  1  0
  8 31  1  0
  8 32  1  0
  9 33  1  0
  9 34  1  0
  9 35  1  0
 10 11  1  0
 10 36  1  1
 11 22  1  0
 11 12  1  0
 11 37  1  1
 12 13  1  0
 12 38  1  0
 12 39  1  0
 13 14  2  0
 13 40  1  0
 14 20  1  0
 14 15  1  0
 15 16  1  0
 15 41  1  0
 15 42  1  0
 16 17  2  0
 16 18  1  0
 18 19  1  0
 18 43  1  0
 18 44  1  0
 19 20  1  0
 19 45  1  0
 19 46  1  0
 20 21  1  6
 20 22  1  0
 21 47  1  0
 21 48  1  0
 21 49  1  0
 22 23  1  0
 22 50  1  1
 23 24  1  0
 23 51  1  0
 23 52  1  0
 24 53  1  0
 24 54  1  0
M  END
>  <i_m_ct_stereo_status>  (298) 
1

>  <s_m_source_file>  (298) 
/var/tmp/pbs.5076255.sched01/tmphrhi8tfx/132_dydaaau.sdf

>  <i_m_source_file_index>  (298) 
12

>  <i_lp_mmshare_version>  (298) 
48012

>  <i_f3d_flags>  (298) 
0

>  <s_epik_input>  (298) 
W0NIXSNDW0NAQF0xMltDQEhdKFtDQEBIXShbQ0gyXVtDSDJdMSlDKD1bQ0gyXSlbQ0gzXSlbQ0BIXTNbQ0BASF0oW0NIMl1bQ0gyXTIpW0NAQF00KFtDSDNdKUMoPVtDSF1bQ0gyXTMpW0NIMl1DKD1PKVtDSDJdW0NIMl00

>  <s_epik_cmdline>  (298) 
J2VwaWtfcHl0aG9uJywgJy1waHQnLCAnMi4wJywgJy1waCcsICc3LjAnLCAnLXRuJywgJzgnLCAnLW1hJywgJzIwMCcsICctaW1hZScsICc8aW5maWxlLm1hZT4nLCAnLW9tYWUnLCAnPG91dGZpbGUubWFlPic=

>  <r_lp_tautomer_probability>  (298) 
1

>  <r_epik_Ionization_Penalty>  (298) 
1.91944e-13

>  <r_epik_Ionization_Penalty_Charging>  (298) 
0

>  <r_epik_Ionization_Penalty_Neutral>  (298) 
1.91944e-13

>  <r_epik_State_Penalty>  (298) 
-0

>  <r_epik_Charging_Adjusted_Penalty>  (298) 
0

>  <i_epik_Tot_Q>  (298) 
0

>  <i_epik_Tot_abs_Q>  (298) 
0

>  <s_lp_Force_Field>  (298) 
OPLS3e

>  <r_lp_Energy>  (298) 
46.1397

>  <b_lp_Chiralities_Consistent>  (298) 
1

>  <s_lp_Variant>  (298) 
98:0-1

>  <s_i_glide_gridfile>  (298) 
pfpi4k_grid

>  <i_i_glide_lignum>  (298) 
12

>  <i_i_glide_rotatable_bonds>  (298) 
2

>  <r_i_docking_score>  (298) 
-2.70059

>  <r_i_glide_ligand_efficiency>  (298) 
-0.112524

>  <r_i_glide_ligand_efficiency_sa>  (298) 
-0.324576

>  <r_i_glide_ligand_efficiency_ln>  (298) 
-0.646374

>  <r_i_glide_gscore>  (298) 
-2.70059

>  <r_i_glide_lipo>  (298) 
-0.666869

>  <r_i_glide_hbond>  (298) 
0

>  <r_i_glide_metal>  (298) 
-0

>  <r_i_glide_rewards>  (298) 
-1.4905

>  <r_i_glide_evdw>  (298) 
-20.843

>  <r_i_glide_ecoul>  (298) 
0.928545

>  <r_i_glide_erotb>  (298) 
0.359649

>  <r_i_glide_esite>  (298) 
0

>  <r_i_glide_emodel>  (298) 
-19.1804

>  <r_i_glide_energy>  (298) 
-19.9145

>  <r_i_glide_einternal>  (298) 
4.72721

>  <r_i_glide_intrahb_reward>  (298) 
-0

>  <i_i_glide_confnum>  (298) 
6

>  <i_i_glide_posenum>  (298) 
34

>  <r_i_glide_eff_state_penalty>  (298) 
0

>  <ligand_id>  (298) 
98

>  <original_smiles>  (298) 
C#CC12CCC(C(=C)C)C1C1CC=C3CC(=O)CCC3(C)C1CC2

>  <smiles>  (298) 
[H]C#CC12C([H])([H])C([H])([H])C([H])(C(=C([H])[H])C([H])([H])[H])C1([H])C1([H])C([H])([H])C([H])=C3C([H])([H])C(=O)C([H])([H])C([H])([H])C3(C([H])([H])[H])C1([H])C([H])([H])C2([H])[H]

$$$$
98:0:1
     RDKit          3D

 54 57  0  0  1  0  0  0  0  0999 V2000
    2.5911   -6.1987    2.2750 C   0  0  0  0  0  0  0  0  0  0  0  0
    3.4219   -5.3053    2.2914 C   0  0  0  0  0  0  0  0  0  0  0  0
    4.4642   -4.2456    2.3345 C   0  0  2  0  0  0  0  0  0  0  0  0
    4.8382   -4.0156    3.8115 C   0  0  0  0  0  0  0  0  0  0  0  0
    3.7840   -3.0301    4.3641 C   0  0  0  0  0  0  0  0  0  0  0  0
    3.0917   -2.3801    3.1291 C   0  0  1  0  0  0  0  0  0  0  0  0
    2.8701   -0.8680    3.2148 C   0  0  0  0  0  0  0  0  0  0  0  0
    3.7279   -0.0163    3.8068 C   0  0  0  0  0  0  0  0  0  0  0  0
    1.5830   -0.3639    2.5856 C   0  0  0  0  0  0  0  0  0  0  0  0
    4.0071   -2.8174    1.9692 C   0  0  2  0  0  0  0  0  0  0  0  0
    3.6190   -2.5831    0.4840 C   0  0  2  0  0  0  0  0  0  0  0  0
    2.3038   -3.2243    0.0231 C   0  0  0  0  0  0  0  0  0  0  0  0
    2.0756   -3.1387   -1.4713 C   0  0  0  0  0  0  0  0  0  0  0  0
    3.0323   -2.8740   -2.3578 C   0  0  0  0  0  0  0  0  0  0  0  0
    2.6719   -2.5567   -3.8059 C   0  0  0  0  0  0  0  0  0  0  0  0
    3.0116   -1.0825   -4.0526 C   0  0  0  0  0  0  0  0  0  0  0  0
    2.3338   -0.3031   -4.7189 O   0  0  0  0  0  0  0  0  0  0  0  0
    4.3597   -0.6523   -3.6012 C   0  0  0  0  0  0  0  0  0  0  0  0
    4.7608   -1.1460   -2.1953 C   0  0  0  0  0  0  0  0  0  0  0  0
    4.4965   -2.6539   -1.9553 C   0  0  2  0  0  0  0  0  0  0  0  0
    5.4320   -3.4700   -2.8683 C   0  0  0  0  0  0  0  0  0  0  0  0
    4.7875   -2.9863   -0.4412 C   0  0  2  0  0  0  0  0  0  0  0  0
    5.2381   -4.4393   -0.1069 C   0  0  0  0  0  0  0  0  0  0  0  0
    5.6266   -4.6138    1.3880 C   0  0  0  0  0  0  0  0  0  0  0  0
    1.8799   -6.9972    2.2520 H   0  0  0  0  0  0  0  0  0  0  0  0
    4.9019   -4.9306    4.4021 H   0  0  0  0  0  0  0  0  0  0  0  0
    5.8149   -3.5369    3.8702 H   0  0  0  0  0  0  0  0  0  0  0  0
    3.0427   -3.5451    4.9790 H   0  0  0  0  0  0  0  0  0  0  0  0
    4.2783   -2.3222    5.0308 H   0  0  0  0  0  0  0  0  0  0  0  0
    2.1127   -2.8529    3.0195 H   0  0  0  0  0  0  0  0  0  0  0  0
    4.6577   -0.3447    4.2492 H   0  0  0  0  0  0  0  0  0  0  0  0
    3.5111    1.0421    3.8514 H   0  0  0  0  0  0  0  0  0  0  0  0
    1.5591   -0.5815    1.5188 H   0  0  0  0  0  0  0  0  0  0  0  0
    1.4830    0.7151    2.7018 H   0  0  0  0  0  0  0  0  0  0  0  0
    0.7174   -0.8351    3.0519 H   0  0  0  0  0  0  0  0  0  0  0  0
    4.8903   -2.1908    2.0877 H   0  0  0  0  0  0  0  0  0  0  0  0
    3.4746   -1.5087    0.3756 H   0  0  0  0  0  0  0  0  0  0  0  0
    2.1823   -4.2711    0.2829 H   0  0  0  0  0  0  0  0  0  0  0  0
    1.5180   -2.6573    0.5111 H   0  0  0  0  0  0  0  0  0  0  0  0
    1.0467   -3.2145   -1.8083 H   0  0  0  0  0  0  0  0  0  0  0  0
    3.2471   -3.1949   -4.4752 H   0  0  0  0  0  0  0  0  0  0  0  0
    1.6171   -2.7538   -4.0097 H   0  0  0  0  0  0  0  0  0  0  0  0
    5.0016   -1.0584   -4.3859 H   0  0  0  0  0  0  0  0  0  0  0  0
    4.4136    0.4370   -3.6510 H   0  0  0  0  0  0  0  0  0  0  0  0
    5.8127   -0.9156   -2.0284 H   0  0  0  0  0  0  0  0  0  0  0  0
    4.2061   -0.5366   -1.4780 H   0  0  0  0  0  0  0  0  0  0  0  0
    6.4749   -3.3716   -2.5598 H   0  0  0  0  0  0  0  0  0  0  0  0
    5.3799   -3.1755   -3.9146 H   0  0  0  0  0  0  0  0  0  0  0  0
    5.1648   -4.5284   -2.8324 H   0  0  0  0  0  0  0  0  0  0  0  0
    5.6352   -2.3647   -0.1547 H   0  0  0  0  0  0  0  0  0  0  0  0
    4.4614   -5.1541   -0.3853 H   0  0  0  0  0  0  0  0  0  0  0  0
    6.1186   -4.6985   -0.6889 H   0  0  0  0  0  0  0  0  0  0  0  0
    6.4906   -3.9813    1.5986 H   0  0  0  0  0  0  0  0  0  0  0  0
    5.9575   -5.6402    1.5677 H   0  0  0  0  0  0  0  0  0  0  0  0
  1  2  3  0
  1 25  1  0
  3  2  1  1
  3 10  1  0
  3 24  1  0
  3  4  1  0
  4  5  1  0
  4 26  1  0
  4 27  1  0
  5  6  1  0
  5 28  1  0
  5 29  1  0
  6  7  1  0
  6 10  1  0
  6 30  1  6
  7  8  2  0
  7  9  1  0
  8 31  1  0
  8 32  1  0
  9 33  1  0
  9 34  1  0
  9 35  1  0
 10 11  1  0
 10 36  1  1
 11 22  1  0
 11 12  1  0
 11 37  1  1
 12 13  1  0
 12 38  1  0
 12 39  1  0
 13 14  2  0
 13 40  1  0
 14 20  1  0
 14 15  1  0
 15 16  1  0
 15 41  1  0
 15 42  1  0
 16 17  2  0
 16 18  1  0
 18 19  1  0
 18 43  1  0
 18 44  1  0
 19 20  1  0
 19 45  1  0
 19 46  1  0
 20 21  1  6
 20 22  1  0
 21 47  1  0
 21 48  1  0
 21 49  1  0
 22 23  1  0
 22 50  1  1
 23 24  1  0
 23 51  1  0
 23 52  1  0
 24 53  1  0
 24 54  1  0
M  END
>  <i_m_ct_stereo_status>  (299) 
1

>  <s_m_source_file>  (299) 
/var/tmp/pbs.5076255.sched01/tmphrhi8tfx/132_dydaaau.sdf

>  <i_m_source_file_index>  (299) 
12

>  <i_lp_mmshare_version>  (299) 
48012

>  <i_f3d_flags>  (299) 
0

>  <s_epik_input>  (299) 
W0NIXSNDW0NAQF0xMltDQEhdKFtDQEBIXShbQ0gyXVtDSDJdMSlDKD1bQ0gyXSlbQ0gzXSlbQ0BIXTNbQ0BASF0oW0NIMl1bQ0gyXTIpW0NAQF00KFtDSDNdKUMoPVtDSF1bQ0gyXTMpW0NIMl1DKD1PKVtDSDJdW0NIMl00

>  <s_epik_cmdline>  (299) 
J2VwaWtfcHl0aG9uJywgJy1waHQnLCAnMi4wJywgJy1waCcsICc3LjAnLCAnLXRuJywgJzgnLCAnLW1hJywgJzIwMCcsICctaW1hZScsICc8aW5maWxlLm1hZT4nLCAnLW9tYWUnLCAnPG91dGZpbGUubWFlPic=

>  <r_lp_tautomer_probability>  (299) 
1

>  <r_epik_Ionization_Penalty>  (299) 
1.91944e-13

>  <r_epik_Ionization_Penalty_Charging>  (299) 
0

>  <r_epik_Ionization_Penalty_Neutral>  (299) 
1.91944e-13

>  <r_epik_State_Penalty>  (299) 
-0

>  <r_epik_Charging_Adjusted_Penalty>  (299) 
0

>  <i_epik_Tot_Q>  (299) 
0

>  <i_epik_Tot_abs_Q>  (299) 
0

>  <s_lp_Force_Field>  (299) 
OPLS3e

>  <r_lp_Energy>  (299) 
46.1397

>  <b_lp_Chiralities_Consistent>  (299) 
1

>  <s_lp_Variant>  (299) 
98:0-1

>  <s_i_glide_gridfile>  (299) 
pfpi4k_grid

>  <i_i_glide_lignum>  (299) 
12

>  <i_i_glide_rotatable_bonds>  (299) 
2

>  <r_i_docking_score>  (299) 
-2.60629

>  <r_i_glide_ligand_efficiency>  (299) 
-0.108596

>  <r_i_glide_ligand_efficiency_sa>  (299) 
-0.313244

>  <r_i_glide_ligand_efficiency_ln>  (299) 
-0.623806

>  <r_i_glide_gscore>  (299) 
-2.60629

>  <r_i_glide_lipo>  (299) 
-0.749409

>  <r_i_glide_hbond>  (299) 
0

>  <r_i_glide_metal>  (299) 
-0

>  <r_i_glide_rewards>  (299) 
-1.35949

>  <r_i_glide_evdw>  (299) 
-20.8264

>  <r_i_glide_ecoul>  (299) 
1.22848

>  <r_i_glide_erotb>  (299) 
0.359649

>  <r_i_glide_esite>  (299) 
0

>  <r_i_glide_emodel>  (299) 
-19.8816

>  <r_i_glide_energy>  (299) 
-19.5979

>  <r_i_glide_einternal>  (299) 
3.7427

>  <r_i_glide_intrahb_reward>  (299) 
-0

>  <i_i_glide_confnum>  (299) 
4

>  <i_i_glide_posenum>  (299) 
37

>  <r_i_glide_eff_state_penalty>  (299) 
0

>  <ligand_id>  (299) 
98

>  <original_smiles>  (299) 
C#CC12CCC(C(=C)C)C1C1CC=C3CC(=O)CCC3(C)C1CC2

>  <smiles>  (299) 
[H]C#CC12C([H])([H])C([H])([H])C([H])(C(=C([H])[H])C([H])([H])[H])C1([H])C1([H])C([H])([H])C([H])=C3C([H])([H])C(=O)C([H])([H])C([H])([H])C3(C([H])([H])[H])C1([H])C([H])([H])C2([H])[H]

$$$$
99:0:0
     RDKit          3D

 13 14  0  0  1  0  0  0  0  0999 V2000
    0.0025   -9.7831    3.2691 C   0  0  0  0  0  0  0  0  0  0  0  0
   -1.0996   -8.9251    3.0338 C   0  0  0  0  0  0  0  0  0  0  0  0
   -1.0188   -7.7452    2.4232 N   0  0  0  0  0  0  0  0  0  0  0  0
    0.2000   -7.3848    1.9853 C   0  0  0  0  0  0  0  0  0  0  0  0
    0.5837   -6.2791    1.3467 N   0  0  0  0  0  0  0  0  0  0  0  0
    1.9290   -6.4604    1.1977 C   0  0  0  0  0  0  0  0  0  0  0  0
    2.4319   -7.5879    1.6821 N   0  0  0  0  0  0  0  0  0  0  0  0
    1.3282   -8.1949    2.1907 N   0  0  0  0  0  0  0  0  0  0  0  0
    1.2474   -9.3945    2.8298 C   0  0  0  0  0  0  0  0  0  0  0  0
   -0.1404  -10.7270    3.7895 H   0  0  0  0  0  0  0  0  0  0  0  0
   -2.0859   -9.2236    3.3743 H   0  0  0  0  0  0  0  0  0  0  0  0
    2.5586   -5.7372    0.6986 H   0  0  0  0  0  0  0  0  0  0  0  0
    2.1572   -9.9737    2.9565 H   0  0  0  0  0  0  0  0  0  0  0  0
  1  9  2  0
  1  2  1  0
  1 10  1  0
  2  3  2  0
  2 11  1  0
  3  4  1  0
  4  8  1  0
  4  5  2  0
  5  6  1  0
  6  7  2  0
  6 12  1  0
  7  8  1  0
  8  9  1  0
  9 13  1  0
M  END
>  <i_m_ct_stereo_status>  (300) 
1

>  <s_m_source_file>  (300) 
/var/tmp/pbs.5076255.sched01/tmphrhi8tfx/132_dydaaau.sdf

>  <i_m_source_file_index>  (300) 
13

>  <i_lp_mmshare_version>  (300) 
48012

>  <i_f3d_flags>  (300) 
0

>  <s_epik_input>  (300) 
bjFbY0hdW2NIXVtjSF1uKGMxMiluW2NIXW4y

>  <s_epik_cmdline>  (300) 
J2VwaWtfcHl0aG9uJywgJy1waHQnLCAnMi4wJywgJy1waCcsICc3LjAnLCAnLXRuJywgJzgnLCAnLW1hJywgJzIwMCcsICctaW1hZScsICc8aW5maWxlLm1hZT4nLCAnLW9tYWUnLCAnPG91dGZpbGUubWFlPic=

>  <r_lp_tautomer_probability>  (300) 
1

>  <r_epik_Ionization_Penalty>  (300) 
1.66986e-07

>  <r_epik_Ionization_Penalty_Charging>  (300) 
0

>  <r_epik_Ionization_Penalty_Neutral>  (300) 
1.66986e-07

>  <r_epik_State_Penalty>  (300) 
-0

>  <r_epik_Charging_Adjusted_Penalty>  (300) 
0

>  <i_epik_Tot_Q>  (300) 
0

>  <i_epik_Tot_abs_Q>  (300) 
0

>  <s_lp_Force_Field>  (300) 
OPLS3e

>  <r_lp_Energy>  (300) 
14.6748

>  <b_lp_Chiralities_Consistent>  (300) 
1

>  <s_lp_Variant>  (300) 
99:0-1

>  <s_i_glide_gridfile>  (300) 
pfpi4k_grid

>  <i_i_glide_lignum>  (300) 
13

>  <i_i_glide_rotatable_bonds>  (300) 
0

>  <r_i_docking_score>  (300) 
-4.2457

>  <r_i_glide_ligand_efficiency>  (300) 
-0.471744

>  <r_i_glide_ligand_efficiency_sa>  (300) 
-0.981268

>  <r_i_glide_ligand_efficiency_ln>  (300) 
-1.32793

>  <r_i_glide_gscore>  (300) 
-4.2457

>  <r_i_glide_lipo>  (300) 
-0.0335694

>  <r_i_glide_hbond>  (300) 
-0.16

>  <r_i_glide_metal>  (300) 
-0

>  <r_i_glide_rewards>  (300) 
-2.25

>  <r_i_glide_evdw>  (300) 
-13.9361

>  <r_i_glide_ecoul>  (300) 
-6.47193

>  <r_i_glide_erotb>  (300) 
0

>  <r_i_glide_esite>  (300) 
-0.134534

>  <r_i_glide_emodel>  (300) 
-27.1664

>  <r_i_glide_energy>  (300) 
-20.4081

>  <r_i_glide_einternal>  (300) 
0

>  <r_i_glide_intrahb_reward>  (300) 
-0

>  <i_i_glide_confnum>  (300) 
1

>  <i_i_glide_posenum>  (300) 
1

>  <r_i_glide_eff_state_penalty>  (300) 
0

>  <ligand_id>  (300) 
99

>  <original_smiles>  (300) 
c1cnc2ncnn2c1

>  <smiles>  (300) 
[H]c1nc2nc([H])c([H])c([H])n2n1

$$$$
99:0:1
     RDKit          3D

 13 14  0  0  1  0  0  0  0  0999 V2000
   -0.4155   -9.0801    2.7929 C   0  0  0  0  0  0  0  0  0  0  0  0
   -0.4283   -7.8555    2.0831 C   0  0  0  0  0  0  0  0  0  0  0  0
   -0.2420   -6.6587    2.6354 N   0  0  0  0  0  0  0  0  0  0  0  0
   -0.0091   -6.6498    3.9626 C   0  0  0  0  0  0  0  0  0  0  0  0
    0.2055   -5.6248    4.7817 N   0  0  0  0  0  0  0  0  0  0  0  0
    0.3608   -6.2201    5.9991 C   0  0  0  0  0  0  0  0  0  0  0  0
    0.2479   -7.5417    6.0266 N   0  0  0  0  0  0  0  0  0  0  0  0
    0.0132   -7.8328    4.7194 N   0  0  0  0  0  0  0  0  0  0  0  0
   -0.1860   -9.0531    4.1504 C   0  0  0  0  0  0  0  0  0  0  0  0
   -0.5784  -10.0219    2.2734 H   0  0  0  0  0  0  0  0  0  0  0  0
   -0.6059   -7.8619    1.0134 H   0  0  0  0  0  0  0  0  0  0  0  0
    0.5561   -5.6539    6.8974 H   0  0  0  0  0  0  0  0  0  0  0  0
   -0.1590   -9.9295    4.7918 H   0  0  0  0  0  0  0  0  0  0  0  0
  1  9  2  0
  1  2  1  0
  1 10  1  0
  2  3  2  0
  2 11  1  0
  3  4  1  0
  4  8  1  0
  4  5  2  0
  5  6  1  0
  6  7  2  0
  6 12  1  0
  7  8  1  0
  8  9  1  0
  9 13  1  0
M  END
>  <i_m_ct_stereo_status>  (301) 
1

>  <s_m_source_file>  (301) 
/var/tmp/pbs.5076255.sched01/tmphrhi8tfx/132_dydaaau.sdf

>  <i_m_source_file_index>  (301) 
13

>  <i_lp_mmshare_version>  (301) 
48012

>  <i_f3d_flags>  (301) 
0

>  <s_epik_input>  (301) 
bjFbY0hdW2NIXVtjSF1uKGMxMiluW2NIXW4y

>  <s_epik_cmdline>  (301) 
J2VwaWtfcHl0aG9uJywgJy1waHQnLCAnMi4wJywgJy1waCcsICc3LjAnLCAnLXRuJywgJzgnLCAnLW1hJywgJzIwMCcsICctaW1hZScsICc8aW5maWxlLm1hZT4nLCAnLW9tYWUnLCAnPG91dGZpbGUubWFlPic=

>  <r_lp_tautomer_probability>  (301) 
1

>  <r_epik_Ionization_Penalty>  (301) 
1.66986e-07

>  <r_epik_Ionization_Penalty_Charging>  (301) 
0

>  <r_epik_Ionization_Penalty_Neutral>  (301) 
1.66986e-07

>  <r_epik_State_Penalty>  (301) 
-0

>  <r_epik_Charging_Adjusted_Penalty>  (301) 
0

>  <i_epik_Tot_Q>  (301) 
0

>  <i_epik_Tot_abs_Q>  (301) 
0

>  <s_lp_Force_Field>  (301) 
OPLS3e

>  <r_lp_Energy>  (301) 
14.6748

>  <b_lp_Chiralities_Consistent>  (301) 
1

>  <s_lp_Variant>  (301) 
99:0-1

>  <s_i_glide_gridfile>  (301) 
pfpi4k_grid

>  <i_i_glide_lignum>  (301) 
13

>  <i_i_glide_rotatable_bonds>  (301) 
0

>  <r_i_docking_score>  (301) 
-3.62809

>  <r_i_glide_ligand_efficiency>  (301) 
-0.403121

>  <r_i_glide_ligand_efficiency_sa>  (301) 
-0.838526

>  <r_i_glide_ligand_efficiency_ln>  (301) 
-1.13476

>  <r_i_glide_gscore>  (301) 
-3.62809

>  <r_i_glide_lipo>  (301) 
0

>  <r_i_glide_hbond>  (301) 
-0.16

>  <r_i_glide_metal>  (301) 
-0

>  <r_i_glide_rewards>  (301) 
-2.25

>  <r_i_glide_evdw>  (301) 
-11.0514

>  <r_i_glide_ecoul>  (301) 
-3.88131

>  <r_i_glide_erotb>  (301) 
0

>  <r_i_glide_esite>  (301) 
-0.0833245

>  <r_i_glide_emodel>  (301) 
-20.708

>  <r_i_glide_energy>  (301) 
-14.9327

>  <r_i_glide_einternal>  (301) 
0

>  <r_i_glide_intrahb_reward>  (301) 
-0

>  <i_i_glide_confnum>  (301) 
1

>  <i_i_glide_posenum>  (301) 
3

>  <r_i_glide_eff_state_penalty>  (301) 
0

>  <ligand_id>  (301) 
99

>  <original_smiles>  (301) 
c1cnc2ncnn2c1

>  <smiles>  (301) 
[H]c1nc2nc([H])c([H])c([H])n2n1

$$$$
99:0:2
     RDKit          3D

 13 14  0  0  1  0  0  0  0  0999 V2000
   -0.5268    1.9461    2.8817 C   0  0  0  0  0  0  0  0  0  0  0  0
   -1.3521    2.5193    3.8779 C   0  0  0  0  0  0  0  0  0  0  0  0
   -1.7836    1.8790    4.9610 N   0  0  0  0  0  0  0  0  0  0  0  0
   -1.4029    0.5968    5.0862 C   0  0  0  0  0  0  0  0  0  0  0  0
   -1.6780   -0.2914    6.0425 N   0  0  0  0  0  0  0  0  0  0  0  0
   -1.0109   -1.4096    5.6292 C   0  0  0  0  0  0  0  0  0  0  0  0
   -0.3470   -1.3156    4.4851 N   0  0  0  0  0  0  0  0  0  0  0  0
   -0.5861   -0.0272    4.1276 N   0  0  0  0  0  0  0  0  0  0  0  0
   -0.1398    0.6340    3.0230 C   0  0  0  0  0  0  0  0  0  0  0  0
   -0.2067    2.5362    2.0240 H   0  0  0  0  0  0  0  0  0  0  0  0
   -1.6632    3.5527    3.7807 H   0  0  0  0  0  0  0  0  0  0  0  0
   -1.0278   -2.3328    6.1903 H   0  0  0  0  0  0  0  0  0  0  0  0
    0.4878    0.0980    2.3180 H   0  0  0  0  0  0  0  0  0  0  0  0
  1  9  2  0
  1  2  1  0
  1 10  1  0
  2  3  2  0
  2 11  1  0
  3  4  1  0
  4  8  1  0
  4  5  2  0
  5  6  1  0
  6  7  2  0
  6 12  1  0
  7  8  1  0
  8  9  1  0
  9 13  1  0
M  END
>  <i_m_ct_stereo_status>  (302) 
1

>  <s_m_source_file>  (302) 
/var/tmp/pbs.5076255.sched01/tmphrhi8tfx/132_dydaaau.sdf

>  <i_m_source_file_index>  (302) 
13

>  <i_lp_mmshare_version>  (302) 
48012

>  <i_f3d_flags>  (302) 
0

>  <s_epik_input>  (302) 
bjFbY0hdW2NIXVtjSF1uKGMxMiluW2NIXW4y

>  <s_epik_cmdline>  (302) 
J2VwaWtfcHl0aG9uJywgJy1waHQnLCAnMi4wJywgJy1waCcsICc3LjAnLCAnLXRuJywgJzgnLCAnLW1hJywgJzIwMCcsICctaW1hZScsICc8aW5maWxlLm1hZT4nLCAnLW9tYWUnLCAnPG91dGZpbGUubWFlPic=

>  <r_lp_tautomer_probability>  (302) 
1

>  <r_epik_Ionization_Penalty>  (302) 
1.66986e-07

>  <r_epik_Ionization_Penalty_Charging>  (302) 
0

>  <r_epik_Ionization_Penalty_Neutral>  (302) 
1.66986e-07

>  <r_epik_State_Penalty>  (302) 
-0

>  <r_epik_Charging_Adjusted_Penalty>  (302) 
0

>  <i_epik_Tot_Q>  (302) 
0

>  <i_epik_Tot_abs_Q>  (302) 
0

>  <s_lp_Force_Field>  (302) 
OPLS3e

>  <r_lp_Energy>  (302) 
14.6748

>  <b_lp_Chiralities_Consistent>  (302) 
1

>  <s_lp_Variant>  (302) 
99:0-1

>  <s_i_glide_gridfile>  (302) 
pfpi4k_grid

>  <i_i_glide_lignum>  (302) 
13

>  <i_i_glide_rotatable_bonds>  (302) 
0

>  <r_i_docking_score>  (302) 
-3.61166

>  <r_i_glide_ligand_efficiency>  (302) 
-0.401295

>  <r_i_glide_ligand_efficiency_sa>  (302) 
-0.834728

>  <r_i_glide_ligand_efficiency_ln>  (302) 
-1.12962

>  <r_i_glide_gscore>  (302) 
-3.61166

>  <r_i_glide_lipo>  (302) 
0

>  <r_i_glide_hbond>  (302) 
-0.136992

>  <r_i_glide_metal>  (302) 
-0

>  <r_i_glide_rewards>  (302) 
-2.25

>  <r_i_glide_evdw>  (302) 
-11.621

>  <r_i_glide_ecoul>  (302) 
-3.60831

>  <r_i_glide_erotb>  (302) 
0

>  <r_i_glide_esite>  (302) 
-0.10237

>  <r_i_glide_emodel>  (302) 
-20.9787

>  <r_i_glide_energy>  (302) 
-15.2293

>  <r_i_glide_einternal>  (302) 
0

>  <r_i_glide_intrahb_reward>  (302) 
-0

>  <i_i_glide_confnum>  (302) 
1

>  <i_i_glide_posenum>  (302) 
2

>  <r_i_glide_eff_state_penalty>  (302) 
0

>  <ligand_id>  (302) 
99

>  <original_smiles>  (302) 
c1cnc2ncnn2c1

>  <smiles>  (302) 
[H]c1nc2nc([H])c([H])c([H])n2n1

$$$$
100:0:0
     RDKit          3D

 45 49  0  0  1  0  0  0  0  0999 V2000
    1.0826  -11.7709    4.1123 C   0  0  0  0  0  0  0  0  0  0  0  0
    1.6066  -11.0144    5.2742 N   0  0  2  0  0  0  0  0  0  0  0  0
    0.7268   -9.9973    5.8751 C   0  0  1  0  0  0  0  0  0  0  0  0
    1.6244   -9.4096    6.9775 C   0  0  0  0  0  0  0  0  0  0  0  0
    3.0643   -9.6154    6.4534 C   0  0  0  0  0  0  0  0  0  0  0  0
    2.8828  -10.2981    5.0867 C   0  0  2  0  0  0  0  0  0  0  0  0
    2.7539   -9.2478    3.9464 C   0  0  0  0  0  0  0  0  0  0  0  0
    1.6115   -8.2332    4.2180 C   0  0  1  0  0  0  0  0  0  0  0  0
    1.3185   -7.4298    3.0340 N   0  0  0  0  0  0  0  0  0  0  0  0
    0.3741   -7.8099    2.1350 N   0  0  0  0  0  0  0  0  0  0  0  0
    0.3472   -6.9200    1.2004 N   0  0  0  0  0  0  0  0  0  0  0  0
    1.2928   -5.9436    1.4204 N   0  0  0  0  0  0  0  0  0  0  0  0
    1.8750   -6.3055    2.5539 C   0  0  0  0  0  0  0  0  0  0  0  0
    2.9737   -5.5436    3.2292 C   0  0  0  0  0  0  0  0  0  0  0  0
    4.2544   -5.4749    2.4176 C   0  0  0  0  0  0  0  0  0  0  0  0
    4.5881   -4.2960    1.6987 C   0  0  0  0  0  0  0  0  0  0  0  0
    5.8052   -4.2421    0.9790 C   0  0  0  0  0  0  0  0  0  0  0  0
    6.6136   -5.3841    1.0524 C   0  0  0  0  0  0  0  0  0  0  0  0
    6.1972   -6.4768    1.7783 C   0  0  0  0  0  0  0  0  0  0  0  0
    5.0454   -6.5769    2.4675 N   0  0  0  0  0  0  0  0  0  0  0  0
    7.1395   -7.4497    1.7455 O   0  0  0  0  0  0  0  0  0  0  0  0
    8.2225   -6.8793    1.0485 C   0  0  0  0  0  0  0  0  0  0  0  0
    7.8387   -5.6298    0.5244 O   0  0  0  0  0  0  0  0  0  0  0  0
    0.3520   -8.9244    4.8214 C   0  0  0  0  0  0  0  0  0  0  0  0
    0.8354  -11.1632    3.2433 H   0  0  0  0  0  0  0  0  0  0  0  0
    0.1898  -12.3248    4.3929 H   0  0  0  0  0  0  0  0  0  0  0  0
    1.8417  -12.4752    3.7926 H   0  0  0  0  0  0  0  0  0  0  0  0
   -0.1728  -10.4617    6.2805 H   0  0  0  0  0  0  0  0  0  0  0  0
    1.3945   -8.3655    7.1881 H   0  0  0  0  0  0  0  0  0  0  0  0
    1.4816   -9.9636    7.9045 H   0  0  0  0  0  0  0  0  0  0  0  0
    3.6242   -8.6828    6.3833 H   0  0  0  0  0  0  0  0  0  0  0  0
    3.6104  -10.2767    7.1260 H   0  0  0  0  0  0  0  0  0  0  0  0
    3.6932  -10.9967    4.8682 H   0  0  0  0  0  0  0  0  0  0  0  0
    3.6992   -8.7146    3.8313 H   0  0  0  0  0  0  0  0  0  0  0  0
    2.5928   -9.7441    2.9887 H   0  0  0  0  0  0  0  0  0  0  0  0
    1.9594   -7.5507    4.9945 H   0  0  0  0  0  0  0  0  0  0  0  0
    2.6095   -4.5362    3.4293 H   0  0  0  0  0  0  0  0  0  0  0  0
    3.2063   -5.9771    4.1989 H   0  0  0  0  0  0  0  0  0  0  0  0
    3.9256   -3.4445    1.7062 H   0  0  0  0  0  0  0  0  0  0  0  0
    6.1067   -3.3651    0.4270 H   0  0  0  0  0  0  0  0  0  0  0  0
    9.0189   -6.6943    1.7658 H   0  0  0  0  0  0  0  0  0  0  0  0
    8.5930   -7.5448    0.2648 H   0  0  0  0  0  0  0  0  0  0  0  0
   -0.2618   -9.3997    4.0579 H   0  0  0  0  0  0  0  0  0  0  0  0
   -0.2895   -8.1663    5.2697 H   0  0  0  0  0  0  0  0  0  0  0  0
    1.7606  -11.6803    6.0311 H   0  0  0  0  0  0  0  0  0  0  0  0
  1  2  1  0
  1 25  1  0
  1 26  1  0
  1 27  1  0
  2  6  1  0
  2  3  1  0
  2 45  1  1
  3 24  1  0
  3  4  1  0
  3 28  1  1
  4  5  1  0
  4 29  1  0
  4 30  1  0
  5  6  1  0
  5 31  1  0
  5 32  1  0
  6  7  1  0
  6 33  1  6
  7  8  1  0
  7 34  1  0
  7 35  1  0
  8  9  1  0
  8 24  1  0
  8 36  1  1
  9 13  1  0
  9 10  1  0
 10 11  2  0
 11 12  1  0
 12 13  2  0
 13 14  1  0
 14 15  1  0
 14 37  1  0
 14 38  1  0
 15 20  1  0
 15 16  2  0
 16 17  1  0
 16 39  1  0
 17 18  2  0
 17 40  1  0
 18 23  1  0
 18 19  1  0
 19 20  2  0
 19 21  1  0
 21 22  1  0
 22 23  1  0
 22 41  1  0
 22 42  1  0
 24 43  1  0
 24 44  1  0
M  CHG  1   2   1
M  END
>  <i_m_ct_stereo_status>  (303) 
1

>  <s_m_source_file>  (303) 
/var/tmp/pbs.5076255.sched01/tmphrhi8tfx/132_dydaaau.sdf

>  <i_m_source_file_index>  (303) 
14

>  <i_lp_mmshare_version>  (303) 
48012

>  <i_f3d_flags>  (303) 
0

>  <s_epik_input>  (303) 
W0NIM11OKFtDQEBIXTEyKVtDQEhdKFtDSDJdW0NIMl0xKVtDSDJdW0NASF0oW0NIMl0yKW4zbm5uYzNbQ0gyXWMoW2NIXVtjSF00KW5jKGM0NSlPW0NIMl1PNQ==

>  <s_epik_cmdline>  (303) 
J2VwaWtfcHl0aG9uJywgJy1waHQnLCAnMi4wJywgJy1waCcsICc3LjAnLCAnLXRuJywgJzgnLCAnLW1hJywgJzIwMCcsICctaW1hZScsICc8aW5maWxlLm1hZT4nLCAnLW9tYWUnLCAnPG91dGZpbGUubWFlPic=

>  <r_lp_tautomer_probability>  (303) 
1

>  <r_epik_Ionization_Penalty>  (303) 
0.0135534

>  <r_epik_Ionization_Penalty_Charging>  (303) 
0.0135523

>  <r_epik_Ionization_Penalty_Neutral>  (303) 
1.11738e-06

>  <r_epik_State_Penalty>  (303) 
0.0105534

>  <r_epik_Charging_Adjusted_Penalty>  (303) 
0.0241058

>  <i_epik_Tot_Q>  (303) 
1

>  <i_epik_Tot_abs_Q>  (303) 
1

>  <s_epik_Chemistry_Notes>  (303) 
This compound contains an acetal/aminal-like group ( X-CH(R)-Y where X, Y are N, S, or O) that may be acid/base labile, releasing an aldehyde.

>  <s_lp_Force_Field>  (303) 
OPLS3e

>  <r_lp_Energy>  (303) 
40.4933

>  <b_lp_Chiralities_Consistent>  (303) 
1

>  <s_lp_Variant>  (303) 
100:0-1

>  <s_i_glide_gridfile>  (303) 
pfpi4k_grid

>  <i_i_glide_lignum>  (303) 
14

>  <i_i_glide_rotatable_bonds>  (303) 
3

>  <r_i_docking_score>  (303) 
-3.86796

>  <r_i_glide_ligand_efficiency>  (303) 
-0.161165

>  <r_i_glide_ligand_efficiency_sa>  (303) 
-0.46488

>  <r_i_glide_ligand_efficiency_ln>  (303) 
-0.925779

>  <r_i_glide_gscore>  (303) 
-3.86796

>  <r_i_glide_lipo>  (303) 
-0.306638

>  <r_i_glide_hbond>  (303) 
-0.2

>  <r_i_glide_metal>  (303) 
-0

>  <r_i_glide_rewards>  (303) 
-1.16334

>  <r_i_glide_evdw>  (303) 
-20.3391

>  <r_i_glide_ecoul>  (303) 
-8.4119

>  <r_i_glide_erotb>  (303) 
0.519703

>  <r_i_glide_esite>  (303) 
-0.438941

>  <r_i_glide_emodel>  (303) 
-40.4316

>  <r_i_glide_energy>  (303) 
-28.751

>  <r_i_glide_einternal>  (303) 
1.11479

>  <r_i_glide_intrahb_reward>  (303) 
-0

>  <i_i_glide_confnum>  (303) 
4

>  <i_i_glide_posenum>  (303) 
22

>  <r_i_glide_eff_state_penalty>  (303) 
0

>  <ligand_id>  (303) 
100

>  <original_smiles>  (303) 
CN1C2CCC1CC(n1nnnc1Cc1ccc3c(n1)OCO3)C2

>  <smiles>  (303) 
[H]c1c(C([H])([H])c2nnnn2C2([H])C([H])([H])C3([H])C([H])([H])C([H])([H])C([H])(C2([H])[H])[N+]3([H])C([H])([H])[H])nc2c(c1[H])OC([H])([H])O2

$$$$
100:0:1
     RDKit          3D

 45 49  0  0  1  0  0  0  0  0999 V2000
    0.5443  -11.6995    4.6715 C   0  0  0  0  0  0  0  0  0  0  0  0
    1.9929  -11.4499    4.8311 N   0  0  2  0  0  0  0  0  0  0  0  0
    2.3939  -10.2097    5.5163 C   0  0  1  0  0  0  0  0  0  0  0  0
    3.9294  -10.2917    5.4454 C   0  0  0  0  0  0  0  0  0  0  0  0
    4.2129  -11.1179    4.1703 C   0  0  0  0  0  0  0  0  0  0  0  0
    2.8189  -11.4440    3.6078 C   0  0  2  0  0  0  0  0  0  0  0  0
    2.3346  -10.3348    2.6293 C   0  0  0  0  0  0  0  0  0  0  0  0
    2.3657   -8.9255    3.2798 C   0  0  1  0  0  0  0  0  0  0  0  0
    1.6389   -7.9416    2.4841 N   0  0  0  0  0  0  0  0  0  0  0  0
    0.2995   -8.0584    2.2878 N   0  0  0  0  0  0  0  0  0  0  0  0
   -0.0690   -7.0602    1.5407 N   0  0  0  0  0  0  0  0  0  0  0  0
    1.0092   -6.2593    1.2169 N   0  0  0  0  0  0  0  0  0  0  0  0
    2.0354   -6.8300    1.8424 C   0  0  0  0  0  0  0  0  0  0  0  0
    3.4517   -6.3270    1.8432 C   0  0  0  0  0  0  0  0  0  0  0  0
    3.6428   -4.9475    1.2252 C   0  0  0  0  0  0  0  0  0  0  0  0
    4.2116   -4.8184   -0.0698 C   0  0  0  0  0  0  0  0  0  0  0  0
    4.3591   -3.5340   -0.6414 C   0  0  0  0  0  0  0  0  0  0  0  0
    3.9283   -2.4569    0.1436 C   0  0  0  0  0  0  0  0  0  0  0  0
    3.3991   -2.6852    1.3931 C   0  0  0  0  0  0  0  0  0  0  0  0
    3.2441   -3.8884    1.9780 N   0  0  0  0  0  0  0  0  0  0  0  0
    3.0178   -1.5146    1.9608 O   0  0  0  0  0  0  0  0  0  0  0  0
    3.2098   -0.5457    0.9548 C   0  0  0  0  0  0  0  0  0  0  0  0
    3.8999   -1.1288   -0.1271 O   0  0  0  0  0  0  0  0  0  0  0  0
    1.8604   -8.9662    4.7480 C   0  0  0  0  0  0  0  0  0  0  0  0
    0.0252  -10.9453    4.0819 H   0  0  0  0  0  0  0  0  0  0  0  0
    0.0692  -11.7371    5.6514 H   0  0  0  0  0  0  0  0  0  0  0  0
    0.3754  -12.6569    4.1845 H   0  0  0  0  0  0  0  0  0  0  0  0
    2.0355  -10.2061    6.5476 H   0  0  0  0  0  0  0  0  0  0  0  0
    4.3986   -9.3071    5.4210 H   0  0  0  0  0  0  0  0  0  0  0  0
    4.3161  -10.8119    6.3219 H   0  0  0  0  0  0  0  0  0  0  0  0
    4.8344  -10.5844    3.4498 H   0  0  0  0  0  0  0  0  0  0  0  0
    4.7353  -12.0392    4.4277 H   0  0  0  0  0  0  0  0  0  0  0  0
    2.8016  -12.4145    3.1105 H   0  0  0  0  0  0  0  0  0  0  0  0
    2.9585  -10.3350    1.7331 H   0  0  0  0  0  0  0  0  0  0  0  0
    1.3318  -10.5745    2.2772 H   0  0  0  0  0  0  0  0  0  0  0  0
    3.4115   -8.6168    3.3080 H   0  0  0  0  0  0  0  0  0  0  0  0
    3.8211   -6.3013    2.8677 H   0  0  0  0  0  0  0  0  0  0  0  0
    4.0630   -7.0502    1.3068 H   0  0  0  0  0  0  0  0  0  0  0  0
    4.5047   -5.6938   -0.6315 H   0  0  0  0  0  0  0  0  0  0  0  0
    4.7629   -3.3955   -1.6328 H   0  0  0  0  0  0  0  0  0  0  0  0
    2.2257   -0.2294    0.6045 H   0  0  0  0  0  0  0  0  0  0  0  0
    3.7448    0.3272    1.3339 H   0  0  0  0  0  0  0  0  0  0  0  0
    0.7711   -8.9568    4.7862 H   0  0  0  0  0  0  0  0  0  0  0  0
    2.1666   -8.0533    5.2602 H   0  0  0  0  0  0  0  0  0  0  0  0
    2.3323  -12.1979    5.4254 H   0  0  0  0  0  0  0  0  0  0  0  0
  1  2  1  0
  1 25  1  0
  1 26  1  0
  1 27  1  0
  2  6  1  0
  2  3  1  0
  2 45  1  1
  3 24  1  0
  3  4  1  0
  3 28  1  1
  4  5  1  0
  4 29  1  0
  4 30  1  0
  5  6  1  0
  5 31  1  0
  5 32  1  0
  6  7  1  0
  6 33  1  6
  7  8  1  0
  7 34  1  0
  7 35  1  0
  8  9  1  0
  8 24  1  0
  8 36  1  1
  9 13  1  0
  9 10  1  0
 10 11  2  0
 11 12  1  0
 12 13  2  0
 13 14  1  0
 14 15  1  0
 14 37  1  0
 14 38  1  0
 15 20  1  0
 15 16  2  0
 16 17  1  0
 16 39  1  0
 17 18  2  0
 17 40  1  0
 18 23  1  0
 18 19  1  0
 19 20  2  0
 19 21  1  0
 21 22  1  0
 22 23  1  0
 22 41  1  0
 22 42  1  0
 24 43  1  0
 24 44  1  0
M  CHG  1   2   1
M  END
>  <i_m_ct_stereo_status>  (304) 
1

>  <s_m_source_file>  (304) 
/var/tmp/pbs.5076255.sched01/tmphrhi8tfx/132_dydaaau.sdf

>  <i_m_source_file_index>  (304) 
14

>  <i_lp_mmshare_version>  (304) 
48012

>  <i_f3d_flags>  (304) 
0

>  <s_epik_input>  (304) 
W0NIM11OKFtDQEBIXTEyKVtDQEhdKFtDSDJdW0NIMl0xKVtDSDJdW0NASF0oW0NIMl0yKW4zbm5uYzNbQ0gyXWMoW2NIXVtjSF00KW5jKGM0NSlPW0NIMl1PNQ==

>  <s_epik_cmdline>  (304) 
J2VwaWtfcHl0aG9uJywgJy1waHQnLCAnMi4wJywgJy1waCcsICc3LjAnLCAnLXRuJywgJzgnLCAnLW1hJywgJzIwMCcsICctaW1hZScsICc8aW5maWxlLm1hZT4nLCAnLW9tYWUnLCAnPG91dGZpbGUubWFlPic=

>  <r_lp_tautomer_probability>  (304) 
1

>  <r_epik_Ionization_Penalty>  (304) 
0.0135534

>  <r_epik_Ionization_Penalty_Charging>  (304) 
0.0135523

>  <r_epik_Ionization_Penalty_Neutral>  (304) 
1.11738e-06

>  <r_epik_State_Penalty>  (304) 
0.0105534

>  <r_epik_Charging_Adjusted_Penalty>  (304) 
0.0241058

>  <i_epik_Tot_Q>  (304) 
1

>  <i_epik_Tot_abs_Q>  (304) 
1

>  <s_epik_Chemistry_Notes>  (304) 
This compound contains an acetal/aminal-like group ( X-CH(R)-Y where X, Y are N, S, or O) that may be acid/base labile, releasing an aldehyde.

>  <s_lp_Force_Field>  (304) 
OPLS3e

>  <r_lp_Energy>  (304) 
40.4933

>  <b_lp_Chiralities_Consistent>  (304) 
1

>  <s_lp_Variant>  (304) 
100:0-1

>  <s_i_glide_gridfile>  (304) 
pfpi4k_grid

>  <i_i_glide_lignum>  (304) 
14

>  <i_i_glide_rotatable_bonds>  (304) 
3

>  <r_i_docking_score>  (304) 
-3.33366

>  <r_i_glide_ligand_efficiency>  (304) 
-0.138903

>  <r_i_glide_ligand_efficiency_sa>  (304) 
-0.400665

>  <r_i_glide_ligand_efficiency_ln>  (304) 
-0.797899

>  <r_i_glide_gscore>  (304) 
-3.33366

>  <r_i_glide_lipo>  (304) 
-0.0874937

>  <r_i_glide_hbond>  (304) 
-0.00121424

>  <r_i_glide_metal>  (304) 
-0

>  <r_i_glide_rewards>  (304) 
-1.16334

>  <r_i_glide_evdw>  (304) 
-23.8904

>  <r_i_glide_ecoul>  (304) 
-6.71305

>  <r_i_glide_erotb>  (304) 
0.519703

>  <r_i_glide_esite>  (304) 
-0.399841

>  <r_i_glide_emodel>  (304) 
-40.7737

>  <r_i_glide_energy>  (304) 
-30.6035

>  <r_i_glide_einternal>  (304) 
0.708852

>  <r_i_glide_intrahb_reward>  (304) 
-0

>  <i_i_glide_confnum>  (304) 
3

>  <i_i_glide_posenum>  (304) 
1

>  <r_i_glide_eff_state_penalty>  (304) 
0

>  <ligand_id>  (304) 
100

>  <original_smiles>  (304) 
CN1C2CCC1CC(n1nnnc1Cc1ccc3c(n1)OCO3)C2

>  <smiles>  (304) 
[H]c1c(C([H])([H])c2nnnn2C2([H])C([H])([H])C3([H])C([H])([H])C([H])([H])C([H])(C2([H])[H])[N+]3([H])C([H])([H])[H])nc2c(c1[H])OC([H])([H])O2

$$$$
100:0:2
     RDKit          3D

 45 49  0  0  1  0  0  0  0  0999 V2000
    0.5312  -11.8217    4.5360 C   0  0  0  0  0  0  0  0  0  0  0  0
    2.0009  -11.6599    4.6126 N   0  0  2  0  0  0  0  0  0  0  0  0
    2.5128  -10.5053    5.3748 C   0  0  1  0  0  0  0  0  0  0  0  0
    4.0347  -10.6505    5.1873 C   0  0  0  0  0  0  0  0  0  0  0  0
    4.1913  -11.3748    3.8288 C   0  0  0  0  0  0  0  0  0  0  0  0
    2.7489  -11.5886    3.3401 C   0  0  2  0  0  0  0  0  0  0  0  0
    2.2588  -10.3801    2.4975 C   0  0  0  0  0  0  0  0  0  0  0  0
    2.3995   -9.0360    3.2642 C   0  0  1  0  0  0  0  0  0  0  0  0
    1.6845   -7.9530    2.6029 N   0  0  0  0  0  0  0  0  0  0  0  0
    0.3582   -8.0661    2.3298 N   0  0  0  0  0  0  0  0  0  0  0  0
   -0.0122   -6.9800    1.7436 N   0  0  0  0  0  0  0  0  0  0  0  0
    1.0325   -6.0889    1.6534 N   0  0  0  0  0  0  0  0  0  0  0  0
    2.0592   -6.7260    2.1987 C   0  0  0  0  0  0  0  0  0  0  0  0
    3.4452   -6.1737    2.3821 C   0  0  0  0  0  0  0  0  0  0  0  0
    3.8203   -5.0727    1.4023 C   0  0  0  0  0  0  0  0  0  0  0  0
    4.4611   -5.4016    0.1782 C   0  0  0  0  0  0  0  0  0  0  0  0
    4.8008   -4.3675   -0.7277 C   0  0  0  0  0  0  0  0  0  0  0  0
    4.4682   -3.0660   -0.3293 C   0  0  0  0  0  0  0  0  0  0  0  0
    3.8585   -2.8552    0.8852 C   0  0  0  0  0  0  0  0  0  0  0  0
    3.5241   -3.8039    1.7807 N   0  0  0  0  0  0  0  0  0  0  0  0
    3.5957   -1.5368    1.0547 O   0  0  0  0  0  0  0  0  0  0  0  0
    3.9486   -0.9392   -0.1703 C   0  0  0  0  0  0  0  0  0  0  0  0
    4.6102   -1.8834   -0.9795 O   0  0  0  0  0  0  0  0  0  0  0  0
    1.9904   -9.1781    4.7554 C   0  0  0  0  0  0  0  0  0  0  0  0
    0.0118  -10.9958    4.0525 H   0  0  0  0  0  0  0  0  0  0  0  0
    0.1190  -11.9125    5.5392 H   0  0  0  0  0  0  0  0  0  0  0  0
    0.2685  -12.7230    3.9873 H   0  0  0  0  0  0  0  0  0  0  0  0
    2.2266  -10.5758    6.4261 H   0  0  0  0  0  0  0  0  0  0  0  0
    4.5532   -9.6909    5.2158 H   0  0  0  0  0  0  0  0  0  0  0  0
    4.4478  -11.2665    5.9869 H   0  0  0  0  0  0  0  0  0  0  0  0
    4.7910  -10.8115    3.1121 H   0  0  0  0  0  0  0  0  0  0  0  0
    4.6777  -12.3400    3.9715 H   0  0  0  0  0  0  0  0  0  0  0  0
    2.6470  -12.5103    2.7644 H   0  0  0  0  0  0  0  0  0  0  0  0
    2.8236  -10.3135    1.5662 H   0  0  0  0  0  0  0  0  0  0  0  0
    1.2266  -10.5539    2.1942 H   0  0  0  0  0  0  0  0  0  0  0  0
    3.4621   -8.7955    3.2546 H   0  0  0  0  0  0  0  0  0  0  0  0
    3.5488   -5.8137    3.4065 H   0  0  0  0  0  0  0  0  0  0  0  0
    4.1708   -6.9734    2.2569 H   0  0  0  0  0  0  0  0  0  0  0  0
    4.6774   -6.4280   -0.0760 H   0  0  0  0  0  0  0  0  0  0  0  0
    5.2656   -4.5727   -1.6797 H   0  0  0  0  0  0  0  0  0  0  0  0
    3.0228   -0.6630   -0.6739 H   0  0  0  0  0  0  0  0  0  0  0  0
    4.5614   -0.0470   -0.0232 H   0  0  0  0  0  0  0  0  0  0  0  0
    0.9074   -9.1157    4.8637 H   0  0  0  0  0  0  0  0  0  0  0  0
    2.3785   -8.3278    5.3171 H   0  0  0  0  0  0  0  0  0  0  0  0
    2.3546  -12.4701    5.1090 H   0  0  0  0  0  0  0  0  0  0  0  0
  1  2  1  0
  1 25  1  0
  1 26  1  0
  1 27  1  0
  2  6  1  0
  2  3  1  0
  2 45  1  1
  3 24  1  0
  3  4  1  0
  3 28  1  1
  4  5  1  0
  4 29  1  0
  4 30  1  0
  5  6  1  0
  5 31  1  0
  5 32  1  0
  6  7  1  0
  6 33  1  6
  7  8  1  0
  7 34  1  0
  7 35  1  0
  8  9  1  0
  8 24  1  0
  8 36  1  1
  9 13  1  0
  9 10  1  0
 10 11  2  0
 11 12  1  0
 12 13  2  0
 13 14  1  0
 14 15  1  0
 14 37  1  0
 14 38  1  0
 15 20  1  0
 15 16  2  0
 16 17  1  0
 16 39  1  0
 17 18  2  0
 17 40  1  0
 18 23  1  0
 18 19  1  0
 19 20  2  0
 19 21  1  0
 21 22  1  0
 22 23  1  0
 22 41  1  0
 22 42  1  0
 24 43  1  0
 24 44  1  0
M  CHG  1   2   1
M  END
>  <i_m_ct_stereo_status>  (305) 
1

>  <s_m_source_file>  (305) 
/var/tmp/pbs.5076255.sched01/tmphrhi8tfx/132_dydaaau.sdf

>  <i_m_source_file_index>  (305) 
14

>  <i_lp_mmshare_version>  (305) 
48012

>  <i_f3d_flags>  (305) 
0

>  <s_epik_input>  (305) 
W0NIM11OKFtDQEBIXTEyKVtDQEhdKFtDSDJdW0NIMl0xKVtDSDJdW0NASF0oW0NIMl0yKW4zbm5uYzNbQ0gyXWMoW2NIXVtjSF00KW5jKGM0NSlPW0NIMl1PNQ==

>  <s_epik_cmdline>  (305) 
J2VwaWtfcHl0aG9uJywgJy1waHQnLCAnMi4wJywgJy1waCcsICc3LjAnLCAnLXRuJywgJzgnLCAnLW1hJywgJzIwMCcsICctaW1hZScsICc8aW5maWxlLm1hZT4nLCAnLW9tYWUnLCAnPG91dGZpbGUubWFlPic=

>  <r_lp_tautomer_probability>  (305) 
1

>  <r_epik_Ionization_Penalty>  (305) 
0.0135534

>  <r_epik_Ionization_Penalty_Charging>  (305) 
0.0135523

>  <r_epik_Ionization_Penalty_Neutral>  (305) 
1.11738e-06

>  <r_epik_State_Penalty>  (305) 
0.0105534

>  <r_epik_Charging_Adjusted_Penalty>  (305) 
0.0241058

>  <i_epik_Tot_Q>  (305) 
1

>  <i_epik_Tot_abs_Q>  (305) 
1

>  <s_epik_Chemistry_Notes>  (305) 
This compound contains an acetal/aminal-like group ( X-CH(R)-Y where X, Y are N, S, or O) that may be acid/base labile, releasing an aldehyde.

>  <s_lp_Force_Field>  (305) 
OPLS3e

>  <r_lp_Energy>  (305) 
40.4933

>  <b_lp_Chiralities_Consistent>  (305) 
1

>  <s_lp_Variant>  (305) 
100:0-1

>  <s_i_glide_gridfile>  (305) 
pfpi4k_grid

>  <i_i_glide_lignum>  (305) 
14

>  <i_i_glide_rotatable_bonds>  (305) 
3

>  <r_i_docking_score>  (305) 
-3.21766

>  <r_i_glide_ligand_efficiency>  (305) 
-0.134069

>  <r_i_glide_ligand_efficiency_sa>  (305) 
-0.386722

>  <r_i_glide_ligand_efficiency_ln>  (305) 
-0.770134

>  <r_i_glide_gscore>  (305) 
-3.21766

>  <r_i_glide_lipo>  (305) 
-0.0926618

>  <r_i_glide_hbond>  (305) 
0

>  <r_i_glide_metal>  (305) 
-0

>  <r_i_glide_rewards>  (305) 
-1.16334

>  <r_i_glide_evdw>  (305) 
-22.8181

>  <r_i_glide_ecoul>  (305) 
-6.62966

>  <r_i_glide_erotb>  (305) 
0.519703

>  <r_i_glide_esite>  (305) 
-0.346011

>  <r_i_glide_emodel>  (305) 
-39.2941

>  <r_i_glide_energy>  (305) 
-29.4477

>  <r_i_glide_einternal>  (305) 
0.550469

>  <r_i_glide_intrahb_reward>  (305) 
-0

>  <i_i_glide_confnum>  (305) 
3

>  <i_i_glide_posenum>  (305) 
29

>  <r_i_glide_eff_state_penalty>  (305) 
0

>  <ligand_id>  (305) 
100

>  <original_smiles>  (305) 
CN1C2CCC1CC(n1nnnc1Cc1ccc3c(n1)OCO3)C2

>  <smiles>  (305) 
[H]c1c(C([H])([H])c2nnnn2C2([H])C([H])([H])C3([H])C([H])([H])C([H])([H])C([H])(C2([H])[H])[N+]3([H])C([H])([H])[H])nc2c(c1[H])OC([H])([H])O2

$$$$
100:1:0
     RDKit          3D

 45 49  0  0  1  0  0  0  0  0999 V2000
    2.9448   -1.6061   -3.8090 C   0  0  0  0  0  0  0  0  0  0  0  0
    3.0214   -1.8744   -2.3532 N   0  0  1  0  0  0  0  0  0  0  0  0
    3.0161   -3.3053   -2.0294 C   0  0  1  0  0  0  0  0  0  0  0  0
    4.4620   -3.7797   -2.2758 C   0  0  0  0  0  0  0  0  0  0  0  0
    5.3098   -2.5114   -2.0703 C   0  0  0  0  0  0  0  0  0  0  0  0
    4.2801   -1.4147   -1.7226 C   0  0  2  0  0  0  0  0  0  0  0  0
    4.0344   -1.3231   -0.2004 C   0  0  0  0  0  0  0  0  0  0  0  0
    3.6090   -2.6921    0.4018 C   0  0  1  0  0  0  0  0  0  0  0  0
    3.0563   -2.6043    1.7576 N   0  0  0  0  0  0  0  0  0  0  0  0
    2.5765   -1.4298    2.2467 N   0  0  0  0  0  0  0  0  0  0  0  0
    2.1477   -1.6587    3.4483 N   0  0  0  0  0  0  0  0  0  0  0  0
    2.3046   -2.9838    3.7826 N   0  0  0  0  0  0  0  0  0  0  0  0
    2.8527   -3.5294    2.7080 C   0  0  0  0  0  0  0  0  0  0  0  0
    3.2125   -4.9860    2.5894 C   0  0  0  0  0  0  0  0  0  0  0  0
    2.0045   -5.9199    2.5402 C   0  0  0  0  0  0  0  0  0  0  0  0
    1.4239   -6.3178    1.2963 C   0  0  0  0  0  0  0  0  0  0  0  0
    0.3042   -7.1677    1.2859 C   0  0  0  0  0  0  0  0  0  0  0  0
   -0.1379   -7.6180    2.5298 C   0  0  0  0  0  0  0  0  0  0  0  0
    0.5040   -7.2161    3.6794 C   0  0  0  0  0  0  0  0  0  0  0  0
    1.5423   -6.3624    3.7392 N   0  0  0  0  0  0  0  0  0  0  0  0
   -0.0594   -7.8113    4.7574 O   0  0  0  0  0  0  0  0  0  0  0  0
   -0.9929   -8.7163    4.2159 C   0  0  0  0  0  0  0  0  0  0  0  0
   -1.1294   -8.4818    2.8372 O   0  0  0  0  0  0  0  0  0  0  0  0
    2.6334   -3.4268   -0.5477 C   0  0  0  0  0  0  0  0  0  0  0  0
    3.7738   -2.0664   -4.3503 H   0  0  0  0  0  0  0  0  0  0  0  0
    2.9747   -0.5328   -4.0004 H   0  0  0  0  0  0  0  0  0  0  0  0
    2.0230   -2.0129   -4.2290 H   0  0  0  0  0  0  0  0  0  0  0  0
    2.2862   -3.8427   -2.6332 H   0  0  0  0  0  0  0  0  0  0  0  0
    4.7587   -4.6025   -1.6219 H   0  0  0  0  0  0  0  0  0  0  0  0
    4.5708   -4.1463   -3.2971 H   0  0  0  0  0  0  0  0  0  0  0  0
    6.0770   -2.6378   -1.3038 H   0  0  0  0  0  0  0  0  0  0  0  0
    5.8153   -2.2673   -3.0020 H   0  0  0  0  0  0  0  0  0  0  0  0
    4.5753   -0.4325   -2.0947 H   0  0  0  0  0  0  0  0  0  0  0  0
    4.9177   -0.9434    0.3195 H   0  0  0  0  0  0  0  0  0  0  0  0
    3.2417   -0.5888   -0.0623 H   0  0  0  0  0  0  0  0  0  0  0  0
    4.5127   -3.3012    0.4734 H   0  0  0  0  0  0  0  0  0  0  0  0
    3.8188   -5.1481    1.7041 H   0  0  0  0  0  0  0  0  0  0  0  0
    3.8509   -5.2376    3.4373 H   0  0  0  0  0  0  0  0  0  0  0  0
    1.8261   -6.0586    0.3417 H   0  0  0  0  0  0  0  0  0  0  0  0
   -0.1536   -7.4813    0.3602 H   0  0  0  0  0  0  0  0  0  0  0  0
   -0.5853   -9.7217    4.3399 H   0  0  0  0  0  0  0  0  0  0  0  0
   -1.9644   -8.6399    4.7066 H   0  0  0  0  0  0  0  0  0  0  0  0
    1.6163   -3.0586   -0.4065 H   0  0  0  0  0  0  0  0  0  0  0  0
    2.6736   -4.4712   -0.3179 H   0  0  0  0  0  0  0  0  0  0  0  0
    2.2121   -1.4588   -1.8900 H   0  0  0  0  0  0  0  0  0  0  0  0
  1  2  1  0
  1 25  1  0
  1 26  1  0
  1 27  1  0
  2  6  1  0
  2  3  1  0
  2 45  1  1
  3 24  1  0
  3  4  1  0
  3 28  1  6
  4  5  1  0
  4 29  1  0
  4 30  1  0
  5  6  1  0
  5 31  1  0
  5 32  1  0
  6  7  1  0
  6 33  1  6
  7  8  1  0
  7 34  1  0
  7 35  1  0
  8  9  1  0
  8 24  1  0
  8 36  1  1
  9 13  1  0
  9 10  1  0
 10 11  2  0
 11 12  1  0
 12 13  2  0
 13 14  1  0
 14 15  1  0
 14 37  1  0
 14 38  1  0
 15 20  1  0
 15 16  2  0
 16 17  1  0
 16 39  1  0
 17 18  2  0
 17 40  1  0
 18 23  1  0
 18 19  1  0
 19 20  2  0
 19 21  1  0
 21 22  1  0
 22 23  1  0
 22 41  1  0
 22 42  1  0
 24 43  1  0
 24 44  1  0
M  CHG  1   2   1
M  END
>  <i_m_ct_stereo_status>  (306) 
1

>  <s_m_source_file>  (306) 
/var/tmp/pbs.5076255.sched01/tmphrhi8tfx/132_dydaaau.sdf

>  <i_m_source_file_index>  (306) 
15

>  <i_lp_mmshare_version>  (306) 
48012

>  <i_f3d_flags>  (306) 
0

>  <s_epik_input>  (306) 
W0NIM11OKFtDQEBIXTEyKVtDQEhdKFtDSDJdW0NIMl0xKVtDSDJdW0NASF0oW0NIMl0yKW4zbm5uYzNbQ0gyXWMoW2NIXVtjSF00KW5jKGM0NSlPW0NIMl1PNQ==

>  <s_epik_cmdline>  (306) 
J2VwaWtfcHl0aG9uJywgJy1waHQnLCAnMi4wJywgJy1waCcsICc3LjAnLCAnLXRuJywgJzgnLCAnLW1hJywgJzIwMCcsICctaW1hZScsICc8aW5maWxlLm1hZT4nLCAnLW9tYWUnLCAnPG91dGZpbGUubWFlPic=

>  <r_lp_tautomer_probability>  (306) 
1

>  <r_epik_Ionization_Penalty>  (306) 
0.0135534

>  <r_epik_Ionization_Penalty_Charging>  (306) 
0.0135523

>  <r_epik_Ionization_Penalty_Neutral>  (306) 
1.11738e-06

>  <r_epik_State_Penalty>  (306) 
0.0105534

>  <r_epik_Charging_Adjusted_Penalty>  (306) 
0.0241058

>  <i_epik_Tot_Q>  (306) 
1

>  <i_epik_Tot_abs_Q>  (306) 
1

>  <s_epik_Chemistry_Notes>  (306) 
This compound contains an acetal/aminal-like group ( X-CH(R)-Y where X, Y are N, S, or O) that may be acid/base labile, releasing an aldehyde.

>  <s_lp_Force_Field>  (306) 
OPLS3e

>  <r_lp_Energy>  (306) 
38.8729

>  <b_lp_Chiralities_Consistent>  (306) 
1

>  <s_lp_Variant>  (306) 
100:0-2

>  <s_i_glide_gridfile>  (306) 
pfpi4k_grid

>  <i_i_glide_lignum>  (306) 
15

>  <i_i_glide_rotatable_bonds>  (306) 
3

>  <r_i_docking_score>  (306) 
-3.36843

>  <r_i_glide_ligand_efficiency>  (306) 
-0.140351

>  <r_i_glide_ligand_efficiency_sa>  (306) 
-0.404843

>  <r_i_glide_ligand_efficiency_ln>  (306) 
-0.80622

>  <r_i_glide_gscore>  (306) 
-3.36843

>  <r_i_glide_lipo>  (306) 
-0.204616

>  <r_i_glide_hbond>  (306) 
-0.2

>  <r_i_glide_metal>  (306) 
-0

>  <r_i_glide_rewards>  (306) 
-1.16334

>  <r_i_glide_evdw>  (306) 
-26.567

>  <r_i_glide_ecoul>  (306) 
-5.30741

>  <r_i_glide_erotb>  (306) 
0.519703

>  <r_i_glide_esite>  (306) 
-0.195715

>  <r_i_glide_emodel>  (306) 
-39.579

>  <r_i_glide_energy>  (306) 
-31.8745

>  <r_i_glide_einternal>  (306) 
1.86082

>  <r_i_glide_intrahb_reward>  (306) 
-0

>  <i_i_glide_confnum>  (306) 
4

>  <i_i_glide_posenum>  (306) 
2

>  <r_i_glide_eff_state_penalty>  (306) 
0

>  <ligand_id>  (306) 
100

>  <original_smiles>  (306) 
CN1C2CCC1CC(n1nnnc1Cc1ccc3c(n1)OCO3)C2

>  <smiles>  (306) 
[H]c1c(C([H])([H])c2nnnn2C2([H])C([H])([H])C3([H])C([H])([H])C([H])([H])C([H])(C2([H])[H])[N+]3([H])C([H])([H])[H])nc2c(c1[H])OC([H])([H])O2

$$$$
100:1:1
     RDKit          3D

 45 49  0  0  1  0  0  0  0  0999 V2000
    2.8190  -12.3012    4.7230 C   0  0  0  0  0  0  0  0  0  0  0  0
    2.5733  -10.9890    4.0891 N   0  0  1  0  0  0  0  0  0  0  0  0
    1.9745   -9.9894    4.9948 C   0  0  1  0  0  0  0  0  0  0  0  0
    3.1645   -9.4647    5.8135 C   0  0  0  0  0  0  0  0  0  0  0  0
    4.3843   -9.6825    4.8915 C   0  0  0  0  0  0  0  0  0  0  0  0
    3.7944  -10.3197    3.6166 C   0  0  2  0  0  0  0  0  0  0  0  0
    3.3715   -9.2633    2.5756 C   0  0  0  0  0  0  0  0  0  0  0  0
    2.4028   -8.2015    3.1792 C   0  0  1  0  0  0  0  0  0  0  0  0
    1.8059   -7.3720    2.1418 N   0  0  0  0  0  0  0  0  0  0  0  0
    0.4812   -7.4352    1.8503 N   0  0  0  0  0  0  0  0  0  0  0  0
    0.2523   -6.6583    0.8563 N   0  0  0  0  0  0  0  0  0  0  0  0
    1.4015   -6.0085    0.4743 N   0  0  0  0  0  0  0  0  0  0  0  0
    2.3344   -6.4724    1.2902 C   0  0  0  0  0  0  0  0  0  0  0  0
    3.7833   -6.0949    1.2320 C   0  0  0  0  0  0  0  0  0  0  0  0
    4.0476   -4.6446    1.5882 C   0  0  0  0  0  0  0  0  0  0  0  0
    4.6933   -4.3131    2.8104 C   0  0  0  0  0  0  0  0  0  0  0  0
    4.9506   -2.9508    3.1093 C   0  0  0  0  0  0  0  0  0  0  0  0
    4.5425   -2.0259    2.1382 C   0  0  0  0  0  0  0  0  0  0  0  0
    3.9221   -2.4545    0.9913 C   0  0  0  0  0  0  0  0  0  0  0  0
    3.6555   -3.7323    0.6688 N   0  0  0  0  0  0  0  0  0  0  0  0
    3.6663   -1.4105    0.1682 O   0  0  0  0  0  0  0  0  0  0  0  0
    4.2182   -0.2947    0.8222 C   0  0  0  0  0  0  0  0  0  0  0  0
    4.6931   -0.6775    2.0929 O   0  0  0  0  0  0  0  0  0  0  0  0
    1.3486   -8.8849    4.1183 C   0  0  0  0  0  0  0  0  0  0  0  0
    3.4662  -12.2446    5.5993 H   0  0  0  0  0  0  0  0  0  0  0  0
    3.2951  -12.9904    4.0241 H   0  0  0  0  0  0  0  0  0  0  0  0
    1.8710  -12.7227    5.0484 H   0  0  0  0  0  0  0  0  0  0  0  0
    1.1992  -10.4341    5.6208 H   0  0  0  0  0  0  0  0  0  0  0  0
    3.0419   -8.4255    6.1230 H   0  0  0  0  0  0  0  0  0  0  0  0
    3.2702  -10.0620    6.7202 H   0  0  0  0  0  0  0  0  0  0  0  0
    4.9409   -8.7637    4.6969 H   0  0  0  0  0  0  0  0  0  0  0  0
    5.0775  -10.3795    5.3643 H   0  0  0  0  0  0  0  0  0  0  0  0
    4.4850  -11.0200    3.1437 H   0  0  0  0  0  0  0  0  0  0  0  0
    4.2856   -8.8187    2.1806 H   0  0  0  0  0  0  0  0  0  0  0  0
    2.8958   -9.7593    1.7265 H   0  0  0  0  0  0  0  0  0  0  0  0
    2.9864   -7.5290    3.8103 H   0  0  0  0  0  0  0  0  0  0  0  0
    4.3621   -6.6851    1.9337 H   0  0  0  0  0  0  0  0  0  0  0  0
    4.1577   -6.3293    0.2318 H   0  0  0  0  0  0  0  0  0  0  0  0
    5.0068   -5.0817    3.5019 H   0  0  0  0  0  0  0  0  0  0  0  0
    5.4582   -2.6462    4.0106 H   0  0  0  0  0  0  0  0  0  0  0  0
    5.0735    0.0283    0.2336 H   0  0  0  0  0  0  0  0  0  0  0  0
    3.4999    0.5252    0.8968 H   0  0  0  0  0  0  0  0  0  0  0  0
    0.5597   -9.3749    3.5467 H   0  0  0  0  0  0  0  0  0  0  0  0
    0.8546   -8.1356    4.7405 H   0  0  0  0  0  0  0  0  0  0  0  0
    1.9585  -11.1280    3.2976 H   0  0  0  0  0  0  0  0  0  0  0  0
  1  2  1  0
  1 25  1  0
  1 26  1  0
  1 27  1  0
  2  6  1  0
  2  3  1  0
  2 45  1  6
  3 24  1  0
  3  4  1  0
  3 28  1  1
  4  5  1  0
  4 29  1  0
  4 30  1  0
  5  6  1  0
  5 31  1  0
  5 32  1  0
  6  7  1  0
  6 33  1  6
  7  8  1  0
  7 34  1  0
  7 35  1  0
  8  9  1  0
  8 24  1  0
  8 36  1  1
  9 13  1  0
  9 10  1  0
 10 11  2  0
 11 12  1  0
 12 13  2  0
 13 14  1  0
 14 15  1  0
 14 37  1  0
 14 38  1  0
 15 20  1  0
 15 16  2  0
 16 17  1  0
 16 39  1  0
 17 18  2  0
 17 40  1  0
 18 23  1  0
 18 19  1  0
 19 20  2  0
 19 21  1  0
 21 22  1  0
 22 23  1  0
 22 41  1  0
 22 42  1  0
 24 43  1  0
 24 44  1  0
M  CHG  1   2   1
M  END
>  <i_m_ct_stereo_status>  (307) 
1

>  <s_m_source_file>  (307) 
/var/tmp/pbs.5076255.sched01/tmphrhi8tfx/132_dydaaau.sdf

>  <i_m_source_file_index>  (307) 
15

>  <i_lp_mmshare_version>  (307) 
48012

>  <i_f3d_flags>  (307) 
0

>  <s_epik_input>  (307) 
W0NIM11OKFtDQEBIXTEyKVtDQEhdKFtDSDJdW0NIMl0xKVtDSDJdW0NASF0oW0NIMl0yKW4zbm5uYzNbQ0gyXWMoW2NIXVtjSF00KW5jKGM0NSlPW0NIMl1PNQ==

>  <s_epik_cmdline>  (307) 
J2VwaWtfcHl0aG9uJywgJy1waHQnLCAnMi4wJywgJy1waCcsICc3LjAnLCAnLXRuJywgJzgnLCAnLW1hJywgJzIwMCcsICctaW1hZScsICc8aW5maWxlLm1hZT4nLCAnLW9tYWUnLCAnPG91dGZpbGUubWFlPic=

>  <r_lp_tautomer_probability>  (307) 
1

>  <r_epik_Ionization_Penalty>  (307) 
0.0135534

>  <r_epik_Ionization_Penalty_Charging>  (307) 
0.0135523

>  <r_epik_Ionization_Penalty_Neutral>  (307) 
1.11738e-06

>  <r_epik_State_Penalty>  (307) 
0.0105534

>  <r_epik_Charging_Adjusted_Penalty>  (307) 
0.0241058

>  <i_epik_Tot_Q>  (307) 
1

>  <i_epik_Tot_abs_Q>  (307) 
1

>  <s_epik_Chemistry_Notes>  (307) 
This compound contains an acetal/aminal-like group ( X-CH(R)-Y where X, Y are N, S, or O) that may be acid/base labile, releasing an aldehyde.

>  <s_lp_Force_Field>  (307) 
OPLS3e

>  <r_lp_Energy>  (307) 
38.8729

>  <b_lp_Chiralities_Consistent>  (307) 
1

>  <s_lp_Variant>  (307) 
100:0-2

>  <s_i_glide_gridfile>  (307) 
pfpi4k_grid

>  <i_i_glide_lignum>  (307) 
15

>  <i_i_glide_rotatable_bonds>  (307) 
3

>  <r_i_docking_score>  (307) 
-3.18615

>  <r_i_glide_ligand_efficiency>  (307) 
-0.132756

>  <r_i_glide_ligand_efficiency_sa>  (307) 
-0.382935

>  <r_i_glide_ligand_efficiency_ln>  (307) 
-0.762592

>  <r_i_glide_gscore>  (307) 
-3.18615

>  <r_i_glide_lipo>  (307) 
-0.155271

>  <r_i_glide_hbond>  (307) 
0

>  <r_i_glide_metal>  (307) 
-0

>  <r_i_glide_rewards>  (307) 
-1.33456

>  <r_i_glide_evdw>  (307) 
-21.0422

>  <r_i_glide_ecoul>  (307) 
-5.65863

>  <r_i_glide_erotb>  (307) 
0.519703

>  <r_i_glide_esite>  (307) 
-0.315117

>  <r_i_glide_emodel>  (307) 
-34.1711

>  <r_i_glide_energy>  (307) 
-26.7008

>  <r_i_glide_einternal>  (307) 
2.1492

>  <r_i_glide_intrahb_reward>  (307) 
-0

>  <i_i_glide_confnum>  (307) 
4

>  <i_i_glide_posenum>  (307) 
39

>  <r_i_glide_eff_state_penalty>  (307) 
0

>  <ligand_id>  (307) 
100

>  <original_smiles>  (307) 
CN1C2CCC1CC(n1nnnc1Cc1ccc3c(n1)OCO3)C2

>  <smiles>  (307) 
[H]c1c(C([H])([H])c2nnnn2C2([H])C([H])([H])C3([H])C([H])([H])C([H])([H])C([H])(C2([H])[H])[N+]3([H])C([H])([H])[H])nc2c(c1[H])OC([H])([H])O2

$$$$
100:1:2
     RDKit          3D

 45 49  0  0  1  0  0  0  0  0999 V2000
    2.2788    3.3289    2.4836 C   0  0  0  0  0  0  0  0  0  0  0  0
    1.7308    2.1275    3.1605 N   0  0  1  0  0  0  0  0  0  0  0  0
    1.9641    0.8598    2.4391 C   0  0  1  0  0  0  0  0  0  0  0  0
    3.4116    0.4825    2.8090 C   0  0  0  0  0  0  0  0  0  0  0  0
    3.6492    1.1593    4.1793 C   0  0  0  0  0  0  0  0  0  0  0  0
    2.3167    1.8690    4.4904 C   0  0  2  0  0  0  0  0  0  0  0  0
    1.3383    0.9531    5.2610 C   0  0  0  0  0  0  0  0  0  0  0  0
    1.1111   -0.3821    4.4982 C   0  0  1  0  0  0  0  0  0  0  0  0
    0.0011   -1.1584    5.0608 N   0  0  0  0  0  0  0  0  0  0  0  0
   -1.2363   -0.5967    5.1226 N   0  0  0  0  0  0  0  0  0  0  0  0
   -2.0145   -1.4570    5.6751 N   0  0  0  0  0  0  0  0  0  0  0  0
   -1.3236   -2.5842    6.0410 N   0  0  0  0  0  0  0  0  0  0  0  0
   -0.0983   -2.3767    5.5712 C   0  0  0  0  0  0  0  0  0  0  0  0
    1.0233   -3.3822    5.6572 C   0  0  0  0  0  0  0  0  0  0  0  0
    0.8202   -4.6230    4.8054 C   0  0  0  0  0  0  0  0  0  0  0  0
    1.5889   -4.8282    3.6171 C   0  0  0  0  0  0  0  0  0  0  0  0
    1.4140   -6.0169    2.8712 C   0  0  0  0  0  0  0  0  0  0  0  0
    0.4662   -6.9242    3.3699 C   0  0  0  0  0  0  0  0  0  0  0  0
   -0.2160   -6.6334    4.5311 C   0  0  0  0  0  0  0  0  0  0  0  0
   -0.0871   -5.5186    5.2649 N   0  0  0  0  0  0  0  0  0  0  0  0
   -1.0460   -7.6504    4.8580 O   0  0  0  0  0  0  0  0  0  0  0  0
   -0.7809   -8.6565    3.9106 C   0  0  0  0  0  0  0  0  0  0  0  0
    0.0862   -8.1432    2.9205 O   0  0  0  0  0  0  0  0  0  0  0  0
    0.9458   -0.1760    2.9710 C   0  0  0  0  0  0  0  0  0  0  0  0
    3.3577    3.2837    2.3581 H   0  0  0  0  0  0  0  0  0  0  0  0
    2.0745    4.2404    3.0426 H   0  0  0  0  0  0  0  0  0  0  0  0
    1.8310    3.4179    1.4997 H   0  0  0  0  0  0  0  0  0  0  0  0
    1.8267    0.9697    1.3630 H   0  0  0  0  0  0  0  0  0  0  0  0
    3.5900   -0.5942    2.8295 H   0  0  0  0  0  0  0  0  0  0  0  0
    4.0846    0.8968    2.0600 H   0  0  0  0  0  0  0  0  0  0  0  0
    3.9568    0.4583    4.9578 H   0  0  0  0  0  0  0  0  0  0  0  0
    4.4437    1.8998    4.0942 H   0  0  0  0  0  0  0  0  0  0  0  0
    2.4626    2.7905    5.0543 H   0  0  0  0  0  0  0  0  0  0  0  0
    1.7207    0.7485    6.2642 H   0  0  0  0  0  0  0  0  0  0  0  0
    0.4040    1.4999    5.4046 H   0  0  0  0  0  0  0  0  0  0  0  0
    2.0375   -0.9417    4.6355 H   0  0  0  0  0  0  0  0  0  0  0  0
    1.9690   -2.9444    5.3548 H   0  0  0  0  0  0  0  0  0  0  0  0
    1.1362   -3.6509    6.7066 H   0  0  0  0  0  0  0  0  0  0  0  0
    2.3220   -4.0981    3.3049 H   0  0  0  0  0  0  0  0  0  0  0  0
    1.9917   -6.2316    1.9806 H   0  0  0  0  0  0  0  0  0  0  0  0
   -0.2710   -9.4663    4.4313 H   0  0  0  0  0  0  0  0  0  0  0  0
   -1.7020   -9.0473    3.4746 H   0  0  0  0  0  0  0  0  0  0  0  0
   -0.0628    0.1677    2.7340 H   0  0  0  0  0  0  0  0  0  0  0  0
    1.0665   -1.1303    2.4542 H   0  0  0  0  0  0  0  0  0  0  0  0
    0.7326    2.2561    3.2510 H   0  0  0  0  0  0  0  0  0  0  0  0
  1  2  1  0
  1 25  1  0
  1 26  1  0
  1 27  1  0
  2  6  1  0
  2  3  1  0
  2 45  1  1
  3 24  1  0
  3  4  1  0
  3 28  1  6
  4  5  1  0
  4 29  1  0
  4 30  1  0
  5  6  1  0
  5 31  1  0
  5 32  1  0
  6  7  1  0
  6 33  1  1
  7  8  1  0
  7 34  1  0
  7 35  1  0
  8  9  1  0
  8 24  1  0
  8 36  1  6
  9 13  1  0
  9 10  1  0
 10 11  2  0
 11 12  1  0
 12 13  2  0
 13 14  1  0
 14 15  1  0
 14 37  1  0
 14 38  1  0
 15 20  1  0
 15 16  2  0
 16 17  1  0
 16 39  1  0
 17 18  2  0
 17 40  1  0
 18 23  1  0
 18 19  1  0
 19 20  2  0
 19 21  1  0
 21 22  1  0
 22 23  1  0
 22 41  1  0
 22 42  1  0
 24 43  1  0
 24 44  1  0
M  CHG  1   2   1
M  END
>  <i_m_ct_stereo_status>  (308) 
1

>  <s_m_source_file>  (308) 
/var/tmp/pbs.5076255.sched01/tmphrhi8tfx/132_dydaaau.sdf

>  <i_m_source_file_index>  (308) 
15

>  <i_lp_mmshare_version>  (308) 
48012

>  <i_f3d_flags>  (308) 
0

>  <s_epik_input>  (308) 
W0NIM11OKFtDQEBIXTEyKVtDQEhdKFtDSDJdW0NIMl0xKVtDSDJdW0NASF0oW0NIMl0yKW4zbm5uYzNbQ0gyXWMoW2NIXVtjSF00KW5jKGM0NSlPW0NIMl1PNQ==

>  <s_epik_cmdline>  (308) 
J2VwaWtfcHl0aG9uJywgJy1waHQnLCAnMi4wJywgJy1waCcsICc3LjAnLCAnLXRuJywgJzgnLCAnLW1hJywgJzIwMCcsICctaW1hZScsICc8aW5maWxlLm1hZT4nLCAnLW9tYWUnLCAnPG91dGZpbGUubWFlPic=

>  <r_lp_tautomer_probability>  (308) 
1

>  <r_epik_Ionization_Penalty>  (308) 
0.0135534

>  <r_epik_Ionization_Penalty_Charging>  (308) 
0.0135523

>  <r_epik_Ionization_Penalty_Neutral>  (308) 
1.11738e-06

>  <r_epik_State_Penalty>  (308) 
0.0105534

>  <r_epik_Charging_Adjusted_Penalty>  (308) 
0.0241058

>  <i_epik_Tot_Q>  (308) 
1

>  <i_epik_Tot_abs_Q>  (308) 
1

>  <s_epik_Chemistry_Notes>  (308) 
This compound contains an acetal/aminal-like group ( X-CH(R)-Y where X, Y are N, S, or O) that may be acid/base labile, releasing an aldehyde.

>  <s_lp_Force_Field>  (308) 
OPLS3e

>  <r_lp_Energy>  (308) 
38.8729

>  <b_lp_Chiralities_Consistent>  (308) 
1

>  <s_lp_Variant>  (308) 
100:0-2

>  <s_i_glide_gridfile>  (308) 
pfpi4k_grid

>  <i_i_glide_lignum>  (308) 
15

>  <i_i_glide_rotatable_bonds>  (308) 
3

>  <r_i_docking_score>  (308) 
-2.9725

>  <r_i_glide_ligand_efficiency>  (308) 
-0.123854

>  <r_i_glide_ligand_efficiency_sa>  (308) 
-0.357257

>  <r_i_glide_ligand_efficiency_ln>  (308) 
-0.711456

>  <r_i_glide_gscore>  (308) 
-2.9725

>  <r_i_glide_lipo>  (308) 
-0.0209671

>  <r_i_glide_hbond>  (308) 
0

>  <r_i_glide_metal>  (308) 
-0

>  <r_i_glide_rewards>  (308) 
-1.16334

>  <r_i_glide_evdw>  (308) 
-19.4171

>  <r_i_glide_ecoul>  (308) 
-7.00663

>  <r_i_glide_erotb>  (308) 
0.519703

>  <r_i_glide_esite>  (308) 
-0.286047

>  <r_i_glide_emodel>  (308) 
-34.2153

>  <r_i_glide_energy>  (308) 
-26.4237

>  <r_i_glide_einternal>  (308) 
0.380467

>  <r_i_glide_intrahb_reward>  (308) 
-0

>  <i_i_glide_confnum>  (308) 
4

>  <i_i_glide_posenum>  (308) 
4

>  <r_i_glide_eff_state_penalty>  (308) 
0

>  <ligand_id>  (308) 
100

>  <original_smiles>  (308) 
CN1C2CCC1CC(n1nnnc1Cc1ccc3c(n1)OCO3)C2

>  <smiles>  (308) 
[H]c1c(C([H])([H])c2nnnn2C2([H])C([H])([H])C3([H])C([H])([H])C([H])([H])C([H])(C2([H])[H])[N+]3([H])C([H])([H])[H])nc2c(c1[H])OC([H])([H])O2

$$$$
100:2:0
     RDKit          3D

 44 48  0  0  1  0  0  0  0  0999 V2000
    1.0229   -1.3844    4.1057 C   0  0  0  0  0  0  0  0  0  0  0  0
    2.0117   -0.4318    3.6083 N   0  0  0  0  0  0  0  0  0  0  0  0
    2.1269   -0.3164    2.1564 C   0  0  1  0  0  0  0  0  0  0  0  0
    3.2527    0.7209    2.0373 C   0  0  0  0  0  0  0  0  0  0  0  0
    4.0934    0.5233    3.3074 C   0  0  0  0  0  0  0  0  0  0  0  0
    3.3891   -0.6139    4.0604 C   0  0  2  0  0  0  0  0  0  0  0  0
    3.9278   -2.0045    3.6427 C   0  0  0  0  0  0  0  0  0  0  0  0
    3.8509   -2.2105    2.1087 C   0  0  1  0  0  0  0  0  0  0  0  0
    4.0700   -3.6000    1.7190 N   0  0  0  0  0  0  0  0  0  0  0  0
    3.3312   -4.6020    2.2603 N   0  0  0  0  0  0  0  0  0  0  0  0
    3.7372   -5.7081    1.7159 N   0  0  0  0  0  0  0  0  0  0  0  0
    4.7308   -5.4732    0.7885 N   0  0  0  0  0  0  0  0  0  0  0  0
    4.8869   -4.1578    0.8140 C   0  0  0  0  0  0  0  0  0  0  0  0
    5.8618   -3.3954   -0.0324 C   0  0  0  0  0  0  0  0  0  0  0  0
    5.2719   -2.9210   -1.3501 C   0  0  0  0  0  0  0  0  0  0  0  0
    4.9959   -3.8515   -2.3871 C   0  0  0  0  0  0  0  0  0  0  0  0
    4.4419   -3.4019   -3.6046 C   0  0  0  0  0  0  0  0  0  0  0  0
    4.1992   -2.0257   -3.6961 C   0  0  0  0  0  0  0  0  0  0  0  0
    4.5030   -1.2038   -2.6355 C   0  0  0  0  0  0  0  0  0  0  0  0
    5.0512   -1.5853   -1.4663 N   0  0  0  0  0  0  0  0  0  0  0  0
    4.2057    0.0794   -2.9481 O   0  0  0  0  0  0  0  0  0  0  0  0
    3.5260    0.0080   -4.1778 C   0  0  0  0  0  0  0  0  0  0  0  0
    3.6809   -1.2864   -4.7079 O   0  0  0  0  0  0  0  0  0  0  0  0
    2.5216   -1.6774    1.5321 C   0  0  0  0  0  0  0  0  0  0  0  0
    0.0312   -1.1164    3.7401 H   0  0  0  0  0  0  0  0  0  0  0  0
    0.9969   -1.3593    5.1949 H   0  0  0  0  0  0  0  0  0  0  0  0
    1.2229   -2.4115    3.8035 H   0  0  0  0  0  0  0  0  0  0  0  0
    1.1981    0.0470    1.7158 H   0  0  0  0  0  0  0  0  0  0  0  0
    3.8361    0.5925    1.1243 H   0  0  0  0  0  0  0  0  0  0  0  0
    2.8385    1.7289    2.0190 H   0  0  0  0  0  0  0  0  0  0  0  0
    5.1342    0.2844    3.0858 H   0  0  0  0  0  0  0  0  0  0  0  0
    4.0888    1.4352    3.9042 H   0  0  0  0  0  0  0  0  0  0  0  0
    3.4645   -0.4865    5.1400 H   0  0  0  0  0  0  0  0  0  0  0  0
    4.9641   -2.1072    3.9651 H   0  0  0  0  0  0  0  0  0  0  0  0
    3.3803   -2.7768    4.1820 H   0  0  0  0  0  0  0  0  0  0  0  0
    4.6489   -1.6073    1.6732 H   0  0  0  0  0  0  0  0  0  0  0  0
    6.2607   -2.5572    0.5383 H   0  0  0  0  0  0  0  0  0  0  0  0
    6.7126   -4.0432   -0.2474 H   0  0  0  0  0  0  0  0  0  0  0  0
    5.1796   -4.9033   -2.2390 H   0  0  0  0  0  0  0  0  0  0  0  0
    4.2143   -4.0799   -4.4149 H   0  0  0  0  0  0  0  0  0  0  0  0
    2.4633    0.1756   -3.9915 H   0  0  0  0  0  0  0  0  0  0  0  0
    3.8850    0.7694   -4.8714 H   0  0  0  0  0  0  0  0  0  0  0  0
    1.7181   -2.3996    1.6732 H   0  0  0  0  0  0  0  0  0  0  0  0
    2.6196   -1.5629    0.4531 H   0  0  0  0  0  0  0  0  0  0  0  0
  1  2  1  0
  1 25  1  0
  1 26  1  0
  1 27  1  0
  2  6  1  0
  2  3  1  0
  3 24  1  0
  3  4  1  0
  3 28  1  6
  4  5  1  0
  4 29  1  0
  4 30  1  0
  5  6  1  0
  5 31  1  0
  5 32  1  0
  6  7  1  0
  6 33  1  1
  7  8  1  0
  7 34  1  0
  7 35  1  0
  8  9  1  0
  8 24  1  0
  8 36  1  6
  9 13  1  0
  9 10  1  0
 10 11  2  0
 11 12  1  0
 12 13  2  0
 13 14  1  0
 14 15  1  0
 14 37  1  0
 14 38  1  0
 15 20  1  0
 15 16  2  0
 16 17  1  0
 16 39  1  0
 17 18  2  0
 17 40  1  0
 18 23  1  0
 18 19  1  0
 19 20  2  0
 19 21  1  0
 21 22  1  0
 22 23  1  0
 22 41  1  0
 22 42  1  0
 24 43  1  0
 24 44  1  0
M  END
>  <i_m_ct_stereo_status>  (309) 
1

>  <s_m_source_file>  (309) 
/var/tmp/pbs.5076255.sched01/tmphrhi8tfx/132_dydaaau.sdf

>  <i_m_source_file_index>  (309) 
16

>  <i_lp_mmshare_version>  (309) 
48012

>  <i_f3d_flags>  (309) 
0

>  <s_epik_input>  (309) 
W0NIM11OKFtDQEBIXTEyKVtDQEhdKFtDSDJdW0NIMl0xKVtDSDJdW0NASF0oW0NIMl0yKW4zbm5uYzNbQ0gyXWMoW2NIXVtjSF00KW5jKGM0NSlPW0NIMl1PNQ==

>  <s_epik_cmdline>  (309) 
J2VwaWtfcHl0aG9uJywgJy1waHQnLCAnMi4wJywgJy1waCcsICc3LjAnLCAnLXRuJywgJzgnLCAnLW1hJywgJzIwMCcsICctaW1hZScsICc8aW5maWxlLm1hZT4nLCAnLW9tYWUnLCAnPG91dGZpbGUubWFlPic=

>  <r_lp_tautomer_probability>  (309) 
1

>  <r_epik_Ionization_Penalty>  (309) 
2.24504

>  <r_epik_Ionization_Penalty_Charging>  (309) 
0

>  <r_epik_Ionization_Penalty_Neutral>  (309) 
2.24504

>  <r_epik_State_Penalty>  (309) 
2.39173

>  <r_epik_Charging_Adjusted_Penalty>  (309) 
2.39173

>  <i_epik_Tot_Q>  (309) 
0

>  <i_epik_Tot_abs_Q>  (309) 
0

>  <s_epik_Chemistry_Notes>  (309) 
This compound contains an acetal/aminal-like group ( X-CH(R)-Y where X, Y are N, S, or O) that may be acid/base labile, releasing an aldehyde.

>  <s_lp_Force_Field>  (309) 
OPLS3e

>  <r_lp_Energy>  (309) 
37.0393

>  <b_lp_Chiralities_Consistent>  (309) 
1

>  <s_lp_Variant>  (309) 
100:0-3

>  <s_i_glide_gridfile>  (309) 
pfpi4k_grid

>  <i_i_glide_lignum>  (309) 
16

>  <i_i_glide_rotatable_bonds>  (309) 
3

>  <r_i_docking_score>  (309) 
-3.51662

>  <r_i_glide_ligand_efficiency>  (309) 
-0.146526

>  <r_i_glide_ligand_efficiency_sa>  (309) 
-0.422653

>  <r_i_glide_ligand_efficiency_ln>  (309) 
-0.841688

>  <r_i_glide_gscore>  (309) 
-3.51662

>  <r_i_glide_lipo>  (309) 
-0.570452

>  <r_i_glide_hbond>  (309) 
-0.32

>  <r_i_glide_metal>  (309) 
-0

>  <r_i_glide_rewards>  (309) 
-1.44489

>  <r_i_glide_evdw>  (309) 
-27.7568

>  <r_i_glide_ecoul>  (309) 
-2.10641

>  <r_i_glide_erotb>  (309) 
0.522525

>  <r_i_glide_esite>  (309) 
0

>  <r_i_glide_emodel>  (309) 
-36.6311

>  <r_i_glide_energy>  (309) 
-29.8632

>  <r_i_glide_einternal>  (309) 
0.411269

>  <r_i_glide_intrahb_reward>  (309) 
-0

>  <i_i_glide_confnum>  (309) 
5

>  <i_i_glide_posenum>  (309) 
6

>  <r_i_glide_eff_state_penalty>  (309) 
0

>  <ligand_id>  (309) 
100

>  <original_smiles>  (309) 
CN1C2CCC1CC(n1nnnc1Cc1ccc3c(n1)OCO3)C2

>  <smiles>  (309) 
[H]c1c(C([H])([H])c2nnnn2C2([H])C([H])([H])C3([H])N(C([H])([H])[H])C([H])(C([H])([H])C3([H])[H])C2([H])[H])nc2c(c1[H])OC([H])([H])O2

$$$$
100:2:1
     RDKit          3D

 44 48  0  0  1  0  0  0  0  0999 V2000
    0.6303  -11.3596    3.3671 C   0  0  0  0  0  0  0  0  0  0  0  0
    1.9442  -11.0958    3.9466 N   0  0  0  0  0  0  0  0  0  0  0  0
    2.0569   -9.9211    4.8043 C   0  0  1  0  0  0  0  0  0  0  0  0
    3.5415   -9.9782    5.1857 C   0  0  0  0  0  0  0  0  0  0  0  0
    4.2129  -10.6850    3.9992 C   0  0  0  0  0  0  0  0  0  0  0  0
    3.0645  -10.9761    3.0190 C   0  0  2  0  0  0  0  0  0  0  0  0
    2.8335   -9.8044    2.0281 C   0  0  0  0  0  0  0  0  0  0  0  0
    2.6241   -8.4576    2.7655 C   0  0  1  0  0  0  0  0  0  0  0  0
    2.1207   -7.4204    1.8757 N   0  0  0  0  0  0  0  0  0  0  0  0
    0.8225   -7.4225    1.4781 N   0  0  0  0  0  0  0  0  0  0  0  0
    0.6646   -6.4139    0.6848 N   0  0  0  0  0  0  0  0  0  0  0  0
    1.8397   -5.7166    0.5269 N   0  0  0  0  0  0  0  0  0  0  0  0
    2.7129   -6.3737    1.2802 C   0  0  0  0  0  0  0  0  0  0  0  0
    4.1676   -6.0304    1.4451 C   0  0  0  0  0  0  0  0  0  0  0  0
    4.5964   -4.7399    0.7596 C   0  0  0  0  0  0  0  0  0  0  0  0
    5.0034   -4.7484   -0.6016 C   0  0  0  0  0  0  0  0  0  0  0  0
    5.3646   -3.5364   -1.2319 C   0  0  0  0  0  0  0  0  0  0  0  0
    5.2970   -2.3864   -0.4349 C   0  0  0  0  0  0  0  0  0  0  0  0
    4.8978   -2.4846    0.8795 C   0  0  0  0  0  0  0  0  0  0  0  0
    4.5513   -3.6160    1.5194 N   0  0  0  0  0  0  0  0  0  0  0  0
    4.8741   -1.2562    1.4522 O   0  0  0  0  0  0  0  0  0  0  0  0
    5.1497   -0.3620    0.4019 C   0  0  0  0  0  0  0  0  0  0  0  0
    5.5413   -1.0887   -0.7397 O   0  0  0  0  0  0  0  0  0  0  0  0
    1.7104   -8.6392    4.0093 C   0  0  0  0  0  0  0  0  0  0  0  0
   -0.1081  -11.4749    4.1601 H   0  0  0  0  0  0  0  0  0  0  0  0
    0.6520  -12.2853    2.7940 H   0  0  0  0  0  0  0  0  0  0  0  0
    0.2845  -10.5683    2.7033 H   0  0  0  0  0  0  0  0  0  0  0  0
    1.4107  -10.0166    5.6768 H   0  0  0  0  0  0  0  0  0  0  0  0
    3.9562   -8.9857    5.3686 H   0  0  0  0  0  0  0  0  0  0  0  0
    3.6724  -10.5598    6.0980 H   0  0  0  0  0  0  0  0  0  0  0  0
    4.9961  -10.0777    3.5442 H   0  0  0  0  0  0  0  0  0  0  0  0
    4.6747  -11.6136    4.3336 H   0  0  0  0  0  0  0  0  0  0  0  0
    3.2230  -11.9115    2.4813 H   0  0  0  0  0  0  0  0  0  0  0  0
    3.6921   -9.7296    1.3607 H   0  0  0  0  0  0  0  0  0  0  0  0
    1.9857  -10.0237    1.3807 H   0  0  0  0  0  0  0  0  0  0  0  0
    3.6008   -8.1338    3.1315 H   0  0  0  0  0  0  0  0  0  0  0  0
    4.3836   -5.9648    2.5112 H   0  0  0  0  0  0  0  0  0  0  0  0
    4.7683   -6.8522    1.0560 H   0  0  0  0  0  0  0  0  0  0  0  0
    5.0070   -5.6726   -1.1596 H   0  0  0  0  0  0  0  0  0  0  0  0
    5.6556   -3.4989   -2.2716 H   0  0  0  0  0  0  0  0  0  0  0  0
    4.2268    0.1687    0.1650 H   0  0  0  0  0  0  0  0  0  0  0  0
    5.9192    0.3569    0.6844 H   0  0  0  0  0  0  0  0  0  0  0  0
    0.6546   -8.6755    3.7391 H   0  0  0  0  0  0  0  0  0  0  0  0
    1.8107   -7.7665    4.6536 H   0  0  0  0  0  0  0  0  0  0  0  0
  1  2  1  0
  1 25  1  0
  1 26  1  0
  1 27  1  0
  2  6  1  0
  2  3  1  0
  3 24  1  0
  3  4  1  0
  3 28  1  1
  4  5  1  0
  4 29  1  0
  4 30  1  0
  5  6  1  0
  5 31  1  0
  5 32  1  0
  6  7  1  0
  6 33  1  6
  7  8  1  0
  7 34  1  0
  7 35  1  0
  8  9  1  0
  8 24  1  0
  8 36  1  1
  9 13  1  0
  9 10  1  0
 10 11  2  0
 11 12  1  0
 12 13  2  0
 13 14  1  0
 14 15  1  0
 14 37  1  0
 14 38  1  0
 15 20  1  0
 15 16  2  0
 16 17  1  0
 16 39  1  0
 17 18  2  0
 17 40  1  0
 18 23  1  0
 18 19  1  0
 19 20  2  0
 19 21  1  0
 21 22  1  0
 22 23  1  0
 22 41  1  0
 22 42  1  0
 24 43  1  0
 24 44  1  0
M  END
>  <i_m_ct_stereo_status>  (310) 
1

>  <s_m_source_file>  (310) 
/var/tmp/pbs.5076255.sched01/tmphrhi8tfx/132_dydaaau.sdf

>  <i_m_source_file_index>  (310) 
16

>  <i_lp_mmshare_version>  (310) 
48012

>  <i_f3d_flags>  (310) 
0

>  <s_epik_input>  (310) 
W0NIM11OKFtDQEBIXTEyKVtDQEhdKFtDSDJdW0NIMl0xKVtDSDJdW0NASF0oW0NIMl0yKW4zbm5uYzNbQ0gyXWMoW2NIXVtjSF00KW5jKGM0NSlPW0NIMl1PNQ==

>  <s_epik_cmdline>  (310) 
J2VwaWtfcHl0aG9uJywgJy1waHQnLCAnMi4wJywgJy1waCcsICc3LjAnLCAnLXRuJywgJzgnLCAnLW1hJywgJzIwMCcsICctaW1hZScsICc8aW5maWxlLm1hZT4nLCAnLW9tYWUnLCAnPG91dGZpbGUubWFlPic=

>  <r_lp_tautomer_probability>  (310) 
1

>  <r_epik_Ionization_Penalty>  (310) 
2.24504

>  <r_epik_Ionization_Penalty_Charging>  (310) 
0

>  <r_epik_Ionization_Penalty_Neutral>  (310) 
2.24504

>  <r_epik_State_Penalty>  (310) 
2.39173

>  <r_epik_Charging_Adjusted_Penalty>  (310) 
2.39173

>  <i_epik_Tot_Q>  (310) 
0

>  <i_epik_Tot_abs_Q>  (310) 
0

>  <s_epik_Chemistry_Notes>  (310) 
This compound contains an acetal/aminal-like group ( X-CH(R)-Y where X, Y are N, S, or O) that may be acid/base labile, releasing an aldehyde.

>  <s_lp_Force_Field>  (310) 
OPLS3e

>  <r_lp_Energy>  (310) 
37.0393

>  <b_lp_Chiralities_Consistent>  (310) 
1

>  <s_lp_Variant>  (310) 
100:0-3

>  <s_i_glide_gridfile>  (310) 
pfpi4k_grid

>  <i_i_glide_lignum>  (310) 
16

>  <i_i_glide_rotatable_bonds>  (310) 
3

>  <r_i_docking_score>  (310) 
-3.12997

>  <r_i_glide_ligand_efficiency>  (310) 
-0.130415

>  <r_i_glide_ligand_efficiency_sa>  (310) 
-0.376183

>  <r_i_glide_ligand_efficiency_ln>  (310) 
-0.749145

>  <r_i_glide_gscore>  (310) 
-3.12997

>  <r_i_glide_lipo>  (310) 
-0.310734

>  <r_i_glide_hbond>  (310) 
0

>  <r_i_glide_metal>  (310) 
-0

>  <r_i_glide_rewards>  (310) 
-1.41729

>  <r_i_glide_evdw>  (310) 
-25.534

>  <r_i_glide_ecoul>  (310) 
-2.59721

>  <r_i_glide_erotb>  (310) 
0.522525

>  <r_i_glide_esite>  (310) 
-0.258191

>  <r_i_glide_emodel>  (310) 
-33.7573

>  <r_i_glide_energy>  (310) 
-28.1312

>  <r_i_glide_einternal>  (310) 
1.23691

>  <r_i_glide_intrahb_reward>  (310) 
-0

>  <i_i_glide_confnum>  (310) 
5

>  <i_i_glide_posenum>  (310) 
33

>  <r_i_glide_eff_state_penalty>  (310) 
0

>  <ligand_id>  (310) 
100

>  <original_smiles>  (310) 
CN1C2CCC1CC(n1nnnc1Cc1ccc3c(n1)OCO3)C2

>  <smiles>  (310) 
[H]c1c(C([H])([H])c2nnnn2C2([H])C([H])([H])C3([H])N(C([H])([H])[H])C([H])(C([H])([H])C3([H])[H])C2([H])[H])nc2c(c1[H])OC([H])([H])O2

$$$$
100:2:2
     RDKit          3D

 44 48  0  0  1  0  0  0  0  0999 V2000
    0.6208  -11.4012    4.4445 C   0  0  0  0  0  0  0  0  0  0  0  0
    2.0746  -11.2485    4.4599 N   0  0  0  0  0  0  0  0  0  0  0  0
    2.5973  -10.0349    5.0767 C   0  0  1  0  0  0  0  0  0  0  0  0
    4.1069  -10.2399    4.8877 C   0  0  0  0  0  0  0  0  0  0  0  0
    4.2214  -11.1106    3.6272 C   0  0  0  0  0  0  0  0  0  0  0  0
    2.7691  -11.3324    3.1789 C   0  0  2  0  0  0  0  0  0  0  0  0
    2.2728  -10.2136    2.2242 C   0  0  0  0  0  0  0  0  0  0  0  0
    2.4708   -8.8082    2.8300 C   0  0  1  0  0  0  0  0  0  0  0  0
    1.7503   -7.7934    2.0752 N   0  0  0  0  0  0  0  0  0  0  0  0
    0.3929   -7.7857    2.0530 N   0  0  0  0  0  0  0  0  0  0  0  0
    0.0289   -6.8130    1.2702 N   0  0  0  0  0  0  0  0  0  0  0  0
    1.1275   -6.1594    0.7604 N   0  0  0  0  0  0  0  0  0  0  0  0
    2.1641   -6.7670    1.3184 C   0  0  0  0  0  0  0  0  0  0  0  0
    3.6114   -6.3979    1.1156 C   0  0  0  0  0  0  0  0  0  0  0  0
    3.8617   -4.9515    0.7131 C   0  0  0  0  0  0  0  0  0  0  0  0
    4.6120   -4.6477   -0.4549 C   0  0  0  0  0  0  0  0  0  0  0  0
    4.8008   -3.2977   -0.8278 C   0  0  0  0  0  0  0  0  0  0  0  0
    4.2200   -2.3390    0.0131 C   0  0  0  0  0  0  0  0  0  0  0  0
    3.5241   -2.7368    1.1305 C   0  0  0  0  0  0  0  0  0  0  0  0
    3.3345   -4.0051    1.5313 N   0  0  0  0  0  0  0  0  0  0  0  0
    3.0177   -1.6576    1.7764 O   0  0  0  0  0  0  0  0  0  0  0  0
    3.3231   -0.5627    0.9471 C   0  0  0  0  0  0  0  0  0  0  0  0
    4.1839   -0.9885   -0.0858 O   0  0  0  0  0  0  0  0  0  0  0  0
    2.0800   -8.7826    4.3263 C   0  0  0  0  0  0  0  0  0  0  0  0
    0.2294  -11.3714    5.4618 H   0  0  0  0  0  0  0  0  0  0  0  0
    0.3530  -12.3639    4.0137 H   0  0  0  0  0  0  0  0  0  0  0  0
    0.1097  -10.6278    3.8724 H   0  0  0  0  0  0  0  0  0  0  0  0
    2.3209   -9.9902    6.1298 H   0  0  0  0  0  0  0  0  0  0  0  0
    4.6432   -9.2938    4.7950 H   0  0  0  0  0  0  0  0  0  0  0  0
    4.5213  -10.7673    5.7453 H   0  0  0  0  0  0  0  0  0  0  0  0
    4.8243  -10.6463    2.8449 H   0  0  0  0  0  0  0  0  0  0  0  0
    4.6901  -12.0614    3.8769 H   0  0  0  0  0  0  0  0  0  0  0  0
    2.6365  -12.3160    2.7292 H   0  0  0  0  0  0  0  0  0  0  0  0
    2.8164  -10.2575    1.2803 H   0  0  0  0  0  0  0  0  0  0  0  0
    1.2242  -10.3810    1.9800 H   0  0  0  0  0  0  0  0  0  0  0  0
    3.5390   -8.5953    2.7651 H   0  0  0  0  0  0  0  0  0  0  0  0
    4.1558   -6.5737    2.0415 H   0  0  0  0  0  0  0  0  0  0  0  0
    4.0247   -7.0693    0.3657 H   0  0  0  0  0  0  0  0  0  0  0  0
    5.0026   -5.4427   -1.0722 H   0  0  0  0  0  0  0  0  0  0  0  0
    5.3385   -3.0231   -1.7229 H   0  0  0  0  0  0  0  0  0  0  0  0
    2.3929   -0.2161    0.4968 H   0  0  0  0  0  0  0  0  0  0  0  0
    3.7698    0.2509    1.5232 H   0  0  0  0  0  0  0  0  0  0  0  0
    0.9994   -8.7064    4.4579 H   0  0  0  0  0  0  0  0  0  0  0  0
    2.4934   -7.8841    4.7810 H   0  0  0  0  0  0  0  0  0  0  0  0
  1  2  1  0
  1 25  1  0
  1 26  1  0
  1 27  1  0
  2  6  1  0
  2  3  1  0
  3 24  1  0
  3  4  1  0
  3 28  1  1
  4  5  1  0
  4 29  1  0
  4 30  1  0
  5  6  1  0
  5 31  1  0
  5 32  1  0
  6  7  1  0
  6 33  1  6
  7  8  1  0
  7 34  1  0
  7 35  1  0
  8  9  1  0
  8 24  1  0
  8 36  1  1
  9 13  1  0
  9 10  1  0
 10 11  2  0
 11 12  1  0
 12 13  2  0
 13 14  1  0
 14 15  1  0
 14 37  1  0
 14 38  1  0
 15 20  1  0
 15 16  2  0
 16 17  1  0
 16 39  1  0
 17 18  2  0
 17 40  1  0
 18 23  1  0
 18 19  1  0
 19 20  2  0
 19 21  1  0
 21 22  1  0
 22 23  1  0
 22 41  1  0
 22 42  1  0
 24 43  1  0
 24 44  1  0
M  END
>  <i_m_ct_stereo_status>  (311) 
1

>  <s_m_source_file>  (311) 
/var/tmp/pbs.5076255.sched01/tmphrhi8tfx/132_dydaaau.sdf

>  <i_m_source_file_index>  (311) 
16

>  <i_lp_mmshare_version>  (311) 
48012

>  <i_f3d_flags>  (311) 
0

>  <s_epik_input>  (311) 
W0NIM11OKFtDQEBIXTEyKVtDQEhdKFtDSDJdW0NIMl0xKVtDSDJdW0NASF0oW0NIMl0yKW4zbm5uYzNbQ0gyXWMoW2NIXVtjSF00KW5jKGM0NSlPW0NIMl1PNQ==

>  <s_epik_cmdline>  (311) 
J2VwaWtfcHl0aG9uJywgJy1waHQnLCAnMi4wJywgJy1waCcsICc3LjAnLCAnLXRuJywgJzgnLCAnLW1hJywgJzIwMCcsICctaW1hZScsICc8aW5maWxlLm1hZT4nLCAnLW9tYWUnLCAnPG91dGZpbGUubWFlPic=

>  <r_lp_tautomer_probability>  (311) 
1

>  <r_epik_Ionization_Penalty>  (311) 
2.24504

>  <r_epik_Ionization_Penalty_Charging>  (311) 
0

>  <r_epik_Ionization_Penalty_Neutral>  (311) 
2.24504

>  <r_epik_State_Penalty>  (311) 
2.39173

>  <r_epik_Charging_Adjusted_Penalty>  (311) 
2.39173

>  <i_epik_Tot_Q>  (311) 
0

>  <i_epik_Tot_abs_Q>  (311) 
0

>  <s_epik_Chemistry_Notes>  (311) 
This compound contains an acetal/aminal-like group ( X-CH(R)-Y where X, Y are N, S, or O) that may be acid/base labile, releasing an aldehyde.

>  <s_lp_Force_Field>  (311) 
OPLS3e

>  <r_lp_Energy>  (311) 
37.0393

>  <b_lp_Chiralities_Consistent>  (311) 
1

>  <s_lp_Variant>  (311) 
100:0-3

>  <s_i_glide_gridfile>  (311) 
pfpi4k_grid

>  <i_i_glide_lignum>  (311) 
16

>  <i_i_glide_rotatable_bonds>  (311) 
3

>  <r_i_docking_score>  (311) 
-2.83773

>  <r_i_glide_ligand_efficiency>  (311) 
-0.118239

>  <r_i_glide_ligand_efficiency_sa>  (311) 
-0.341059

>  <r_i_glide_ligand_efficiency_ln>  (311) 
-0.679198

>  <r_i_glide_gscore>  (311) 
-2.83773

>  <r_i_glide_lipo>  (311) 
-0.139432

>  <r_i_glide_hbond>  (311) 
0

>  <r_i_glide_metal>  (311) 
-0

>  <r_i_glide_rewards>  (311) 
-1.17021

>  <r_i_glide_evdw>  (311) 
-25.5697

>  <r_i_glide_ecoul>  (311) 
-2.85701

>  <r_i_glide_erotb>  (311) 
0.522525

>  <r_i_glide_esite>  (311) 
-0.343573

>  <r_i_glide_emodel>  (311) 
-33.5873

>  <r_i_glide_energy>  (311) 
-28.4267

>  <r_i_glide_einternal>  (311) 
0.979595

>  <r_i_glide_intrahb_reward>  (311) 
-0

>  <i_i_glide_confnum>  (311) 
5

>  <i_i_glide_posenum>  (311) 
9

>  <r_i_glide_eff_state_penalty>  (311) 
0

>  <ligand_id>  (311) 
100

>  <original_smiles>  (311) 
CN1C2CCC1CC(n1nnnc1Cc1ccc3c(n1)OCO3)C2

>  <smiles>  (311) 
[H]c1c(C([H])([H])c2nnnn2C2([H])C([H])([H])C3([H])N(C([H])([H])[H])C([H])(C([H])([H])C3([H])[H])C2([H])[H])nc2c(c1[H])OC([H])([H])O2

$$$$
100:3:0
     RDKit          3D

 44 48  0  0  1  0  0  0  0  0999 V2000
    2.3219   -1.9256   -3.3703 C   0  0  0  0  0  0  0  0  0  0  0  0
    3.5235   -2.7385   -3.2419 N   0  0  0  0  0  0  0  0  0  0  0  0
    3.6167   -3.4993   -1.9936 C   0  0  1  0  0  0  0  0  0  0  0  0
    5.0196   -4.1602   -2.1660 C   0  0  0  0  0  0  0  0  0  0  0  0
    5.7551   -3.2033   -3.1027 C   0  0  0  0  0  0  0  0  0  0  0  0
    4.8015   -2.0146   -3.2872 C   0  0  2  0  0  0  0  0  0  0  0  0
    4.9089   -0.9245   -2.1785 C   0  0  0  0  0  0  0  0  0  0  0  0
    4.7509   -1.5186   -0.7743 C   0  0  2  0  0  0  0  0  0  0  0  0
    5.9724   -2.0744   -0.1257 N   0  0  0  0  0  0  0  0  0  0  0  0
    7.1973   -1.8605   -0.6715 N   0  0  0  0  0  0  0  0  0  0  0  0
    8.0301   -2.6751   -0.1324 N   0  0  0  0  0  0  0  0  0  0  0  0
    7.4366   -3.3306    0.8973 N   0  0  0  0  0  0  0  0  0  0  0  0
    6.2002   -2.8441    0.9500 C   0  0  0  0  0  0  0  0  0  0  0  0
    5.2003   -3.1878    2.0222 C   0  0  0  0  0  0  0  0  0  0  0  0
    4.4812   -1.9947    2.6519 C   0  0  0  0  0  0  0  0  0  0  0  0
    4.6324   -1.7200    4.0490 C   0  0  0  0  0  0  0  0  0  0  0  0
    4.0073   -0.5537    4.5695 C   0  0  0  0  0  0  0  0  0  0  0  0
    3.3171    0.2978    3.6849 C   0  0  0  0  0  0  0  0  0  0  0  0
    3.2394   -0.0748    2.3669 C   0  0  0  0  0  0  0  0  0  0  0  0
    3.7260   -1.2096    1.8558 N   0  0  0  0  0  0  0  0  0  0  0  0
    2.5628    0.8439    1.6490 O   0  0  0  0  0  0  0  0  0  0  0  0
    2.0399    1.7298    2.6111 C   0  0  0  0  0  0  0  0  0  0  0  0
    2.6264    1.4362    3.8590 O   0  0  0  0  0  0  0  0  0  0  0  0
    3.5669   -2.5425   -0.7843 C   0  0  0  0  0  0  0  0  0  0  0  0
    2.2229   -1.1807   -2.5829 H   0  0  0  0  0  0  0  0  0  0  0  0
    1.4453   -2.5764   -3.3601 H   0  0  0  0  0  0  0  0  0  0  0  0
    2.3580   -1.4007   -4.3235 H   0  0  0  0  0  0  0  0  0  0  0  0
    2.8205   -4.2483   -1.8926 H   0  0  0  0  0  0  0  0  0  0  0  0
    5.5012   -4.3583   -1.2077 H   0  0  0  0  0  0  0  0  0  0  0  0
    4.9783   -5.1357   -2.6400 H   0  0  0  0  0  0  0  0  0  0  0  0
    6.7722   -2.9013   -2.7338 H   0  0  0  0  0  0  0  0  0  0  0  0
    6.0018   -3.6863   -4.0086 H   0  0  0  0  0  0  0  0  0  0  0  0
    4.9362   -1.5185   -4.2548 H   0  0  0  0  0  0  0  0  0  0  0  0
    5.8113   -0.3564   -2.2317 H   0  0  0  0  0  0  0  0  0  0  0  0
    4.1237   -0.1708   -2.3058 H   0  0  0  0  0  0  0  0  0  0  0  0
    4.5417   -0.5813   -0.2571 H   0  0  0  0  0  0  0  0  0  0  0  0
    4.4949   -3.9433    1.6730 H   0  0  0  0  0  0  0  0  0  0  0  0
    5.7440   -3.7407    2.7873 H   0  0  0  0  0  0  0  0  0  0  0  0
    5.1858   -2.4053    4.6531 H   0  0  0  0  0  0  0  0  0  0  0  0
    4.0575   -0.3358    5.6433 H   0  0  0  0  0  0  0  0  0  0  0  0
    2.1568    2.7847    2.3334 H   0  0  0  0  0  0  0  0  0  0  0  0
    0.9765    1.4959    2.6669 H   0  0  0  0  0  0  0  0  0  0  0  0
    2.6366   -2.0385   -0.6996 H   0  0  0  0  0  0  0  0  0  0  0  0
    3.5072   -3.1811    0.0746 H   0  0  0  0  0  0  0  0  0  0  0  0
  1  2  1  0
  1 25  1  0
  1 26  1  0
  1 27  1  0
  2  6  1  0
  2  3  1  0
  3 24  1  0
  3  4  1  0
  3 28  1  1
  4  5  1  0
  4 29  1  0
  4 30  1  0
  5  6  1  0
  5 31  1  0
  5 32  1  0
  6  7  1  0
  6 33  1  6
  7  8  1  0
  7 34  1  0
  7 35  1  0
  8  9  1  0
  8 24  1  0
  8 36  1  1
  9 13  1  0
  9 10  1  0
 10 11  2  0
 11 12  1  0
 12 13  2  0
 13 14  1  0
 14 15  1  0
 14 37  1  0
 14 38  1  0
 15 20  1  0
 15 16  2  0
 16 17  1  0
 16 39  1  0
 17 18  2  0
 17 40  1  0
 18 23  1  0
 18 19  1  0
 19 20  2  0
 19 21  1  0
 21 22  1  0
 22 23  1  0
 22 41  1  0
 22 42  1  0
 24 43  1  0
 24 44  1  0
M  END
>  <i_m_ct_stereo_status>  (312) 
1

>  <s_m_source_file>  (312) 
/var/tmp/pbs.5076255.sched01/tmphrhi8tfx/132_dydaaau.sdf

>  <i_m_source_file_index>  (312) 
17

>  <i_lp_mmshare_version>  (312) 
48012

>  <i_f3d_flags>  (312) 
0

>  <s_epik_input>  (312) 
W0NIM11OKFtDQEBIXTEyKVtDQEhdKFtDSDJdW0NIMl0xKVtDSDJdW0NASF0oW0NIMl0yKW4zbm5uYzNbQ0gyXWMoW2NIXVtjSF00KW5jKGM0NSlPW0NIMl1PNQ==

>  <s_epik_cmdline>  (312) 
J2VwaWtfcHl0aG9uJywgJy1waHQnLCAnMi4wJywgJy1waCcsICc3LjAnLCAnLXRuJywgJzgnLCAnLW1hJywgJzIwMCcsICctaW1hZScsICc8aW5maWxlLm1hZT4nLCAnLW9tYWUnLCAnPG91dGZpbGUubWFlPic=

>  <r_lp_tautomer_probability>  (312) 
1

>  <r_epik_Ionization_Penalty>  (312) 
2.24504

>  <r_epik_Ionization_Penalty_Charging>  (312) 
0

>  <r_epik_Ionization_Penalty_Neutral>  (312) 
2.24504

>  <r_epik_State_Penalty>  (312) 
2.39173

>  <r_epik_Charging_Adjusted_Penalty>  (312) 
2.39173

>  <i_epik_Tot_Q>  (312) 
0

>  <i_epik_Tot_abs_Q>  (312) 
0

>  <s_epik_Chemistry_Notes>  (312) 
This compound contains an acetal/aminal-like group ( X-CH(R)-Y where X, Y are N, S, or O) that may be acid/base labile, releasing an aldehyde.

>  <s_lp_Force_Field>  (312) 
OPLS3e

>  <r_lp_Energy>  (312) 
41.2715

>  <b_lp_Chiralities_Consistent>  (312) 
1

>  <s_lp_Variant>  (312) 
100:0-4

>  <s_i_glide_gridfile>  (312) 
pfpi4k_grid

>  <i_i_glide_lignum>  (312) 
17

>  <i_i_glide_rotatable_bonds>  (312) 
3

>  <r_i_docking_score>  (312) 
-2.8436

>  <r_i_glide_ligand_efficiency>  (312) 
-0.118483

>  <r_i_glide_ligand_efficiency_sa>  (312) 
-0.341765

>  <r_i_glide_ligand_efficiency_ln>  (312) 
-0.680604

>  <r_i_glide_gscore>  (312) 
-2.8436

>  <r_i_glide_lipo>  (312) 
-0.394631

>  <r_i_glide_hbond>  (312) 
0

>  <r_i_glide_metal>  (312) 
-0

>  <r_i_glide_rewards>  (312) 
-1.3407

>  <r_i_glide_evdw>  (312) 
-22.4276

>  <r_i_glide_ecoul>  (312) 
-3.40955

>  <r_i_glide_erotb>  (312) 
0.522525

>  <r_i_glide_esite>  (312) 
-0.10298

>  <r_i_glide_emodel>  (312) 
-25.3958

>  <r_i_glide_energy>  (312) 
-25.8372

>  <r_i_glide_einternal>  (312) 
2.06763

>  <r_i_glide_intrahb_reward>  (312) 
-0

>  <i_i_glide_confnum>  (312) 
1

>  <i_i_glide_posenum>  (312) 
32

>  <r_i_glide_eff_state_penalty>  (312) 
0

>  <ligand_id>  (312) 
100

>  <original_smiles>  (312) 
CN1C2CCC1CC(n1nnnc1Cc1ccc3c(n1)OCO3)C2

>  <smiles>  (312) 
[H]c1c(C([H])([H])c2nnnn2C2([H])C([H])([H])C3([H])N(C([H])([H])[H])C([H])(C([H])([H])C3([H])[H])C2([H])[H])nc2c(c1[H])OC([H])([H])O2

$$$$
100:3:1
     RDKit          3D

 44 48  0  0  1  0  0  0  0  0999 V2000
    2.5010   -2.5017   -3.9465 C   0  0  0  0  0  0  0  0  0  0  0  0
    2.6256   -2.2376   -2.5143 N   0  0  0  0  0  0  0  0  0  0  0  0
    3.5501   -1.1993   -2.0642 C   0  0  1  0  0  0  0  0  0  0  0  0
    3.3983   -1.2594   -0.5276 C   0  0  0  0  0  0  0  0  0  0  0  0
    2.9930   -2.7260   -0.2779 C   0  0  0  0  0  0  0  0  0  0  0  0
    2.9699   -3.3782   -1.6895 C   0  0  2  0  0  0  0  0  0  0  0  0
    4.3399   -3.9226   -2.1482 C   0  0  0  0  0  0  0  0  0  0  0  0
    5.5205   -2.9308   -1.9969 C   0  0  2  0  0  0  0  0  0  0  0  0
    6.0176   -2.8519   -0.6283 N   0  0  0  0  0  0  0  0  0  0  0  0
    6.4025   -1.6646   -0.0630 N   0  0  0  0  0  0  0  0  0  0  0  0
    6.6458   -1.8712    1.1789 N   0  0  0  0  0  0  0  0  0  0  0  0
    6.5210   -3.2125    1.5106 N   0  0  0  0  0  0  0  0  0  0  0  0
    6.2180   -3.7881    0.3525 C   0  0  0  0  0  0  0  0  0  0  0  0
    6.1237   -5.2709    0.1784 C   0  0  0  0  0  0  0  0  0  0  0  0
    5.0645   -5.9323    1.0344 C   0  0  0  0  0  0  0  0  0  0  0  0
    5.4577   -6.5254    2.2558 C   0  0  0  0  0  0  0  0  0  0  0  0
    4.4966   -7.1547    3.0617 C   0  0  0  0  0  0  0  0  0  0  0  0
    3.1779   -7.1573    2.5875 C   0  0  0  0  0  0  0  0  0  0  0  0
    2.8898   -6.5540    1.3683 C   0  0  0  0  0  0  0  0  0  0  0  0
    3.7787   -5.9420    0.5847 N   0  0  0  0  0  0  0  0  0  0  0  0
    1.5613   -6.6913    1.1143 O   0  0  0  0  0  0  0  0  0  0  0  0
    1.0641   -7.5306    2.1302 C   0  0  0  0  0  0  0  0  0  0  0  0
    2.0598   -7.6852    3.1057 O   0  0  0  0  0  0  0  0  0  0  0  0
    4.9981   -1.5414   -2.5353 C   0  0  0  0  0  0  0  0  0  0  0  0
    3.4406   -2.8234   -4.4053 H   0  0  0  0  0  0  0  0  0  0  0  0
    2.1727   -1.5842   -4.4421 H   0  0  0  0  0  0  0  0  0  0  0  0
    1.7596   -3.2923   -4.1188 H   0  0  0  0  0  0  0  0  0  0  0  0
    3.2369   -0.2456   -2.4933 H   0  0  0  0  0  0  0  0  0  0  0  0
    4.2633   -0.9193    0.0295 H   0  0  0  0  0  0  0  0  0  0  0  0
    2.6062   -0.6382   -0.2060 H   0  0  0  0  0  0  0  0  0  0  0  0
    3.6892   -3.2359    0.3862 H   0  0  0  0  0  0  0  0  0  0  0  0
    2.0138   -2.8230    0.2089 H   0  0  0  0  0  0  0  0  0  0  0  0
    2.2062   -4.1653   -1.7473 H   0  0  0  0  0  0  0  0  0  0  0  0
    4.4112   -4.7906   -1.5531 H   0  0  0  0  0  0  0  0  0  0  0  0
    4.3123   -4.2605   -3.1792 H   0  0  0  0  0  0  0  0  0  0  0  0
    6.3682   -3.2479   -2.6149 H   0  0  0  0  0  0  0  0  0  0  0  0
    5.8402   -5.5394   -0.8215 H   0  0  0  0  0  0  0  0  0  0  0  0
    7.1122   -5.6995    0.3972 H   0  0  0  0  0  0  0  0  0  0  0  0
    6.4983   -6.4853    2.5246 H   0  0  0  0  0  0  0  0  0  0  0  0
    4.7795   -7.6145    3.9969 H   0  0  0  0  0  0  0  0  0  0  0  0
    0.1466   -7.1435    2.5714 H   0  0  0  0  0  0  0  0  0  0  0  0
    0.8707   -8.5112    1.6972 H   0  0  0  0  0  0  0  0  0  0  0  0
    5.0004   -1.5600   -3.6229 H   0  0  0  0  0  0  0  0  0  0  0  0
    5.6676   -0.7090   -2.2874 H   0  0  0  0  0  0  0  0  0  0  0  0
  1  2  1  0
  1 25  1  0
  1 26  1  0
  1 27  1  0
  2  6  1  0
  2  3  1  0
  3 24  1  0
  3  4  1  0
  3 28  1  6
  4  5  1  0
  4 29  1  0
  4 30  1  0
  5  6  1  0
  5 31  1  0
  5 32  1  0
  6  7  1  0
  6 33  1  1
  7  8  1  0
  7 34  1  0
  7 35  1  0
  8  9  1  0
  8 24  1  0
  8 36  1  6
  9 13  1  0
  9 10  1  0
 10 11  2  0
 11 12  1  0
 12 13  2  0
 13 14  1  0
 14 15  1  0
 14 37  1  0
 14 38  1  0
 15 20  1  0
 15 16  2  0
 16 17  1  0
 16 39  1  0
 17 18  2  0
 17 40  1  0
 18 23  1  0
 18 19  1  0
 19 20  2  0
 19 21  1  0
 21 22  1  0
 22 23  1  0
 22 41  1  0
 22 42  1  0
 24 43  1  0
 24 44  1  0
M  END
>  <i_m_ct_stereo_status>  (313) 
1

>  <s_m_source_file>  (313) 
/var/tmp/pbs.5076255.sched01/tmphrhi8tfx/132_dydaaau.sdf

>  <i_m_source_file_index>  (313) 
17

>  <i_lp_mmshare_version>  (313) 
48012

>  <i_f3d_flags>  (313) 
0

>  <s_epik_input>  (313) 
W0NIM11OKFtDQEBIXTEyKVtDQEhdKFtDSDJdW0NIMl0xKVtDSDJdW0NASF0oW0NIMl0yKW4zbm5uYzNbQ0gyXWMoW2NIXVtjSF00KW5jKGM0NSlPW0NIMl1PNQ==

>  <s_epik_cmdline>  (313) 
J2VwaWtfcHl0aG9uJywgJy1waHQnLCAnMi4wJywgJy1waCcsICc3LjAnLCAnLXRuJywgJzgnLCAnLW1hJywgJzIwMCcsICctaW1hZScsICc8aW5maWxlLm1hZT4nLCAnLW9tYWUnLCAnPG91dGZpbGUubWFlPic=

>  <r_lp_tautomer_probability>  (313) 
1

>  <r_epik_Ionization_Penalty>  (313) 
2.24504

>  <r_epik_Ionization_Penalty_Charging>  (313) 
0

>  <r_epik_Ionization_Penalty_Neutral>  (313) 
2.24504

>  <r_epik_State_Penalty>  (313) 
2.39173

>  <r_epik_Charging_Adjusted_Penalty>  (313) 
2.39173

>  <i_epik_Tot_Q>  (313) 
0

>  <i_epik_Tot_abs_Q>  (313) 
0

>  <s_epik_Chemistry_Notes>  (313) 
This compound contains an acetal/aminal-like group ( X-CH(R)-Y where X, Y are N, S, or O) that may be acid/base labile, releasing an aldehyde.

>  <s_lp_Force_Field>  (313) 
OPLS3e

>  <r_lp_Energy>  (313) 
41.2715

>  <b_lp_Chiralities_Consistent>  (313) 
1

>  <s_lp_Variant>  (313) 
100:0-4

>  <s_i_glide_gridfile>  (313) 
pfpi4k_grid

>  <i_i_glide_lignum>  (313) 
17

>  <i_i_glide_rotatable_bonds>  (313) 
3

>  <r_i_docking_score>  (313) 
-2.42036

>  <r_i_glide_ligand_efficiency>  (313) 
-0.100848

>  <r_i_glide_ligand_efficiency_sa>  (313) 
-0.290896

>  <r_i_glide_ligand_efficiency_ln>  (313) 
-0.579302

>  <r_i_glide_gscore>  (313) 
-2.42036

>  <r_i_glide_lipo>  (313) 
-0.608073

>  <r_i_glide_hbond>  (313) 
0

>  <r_i_glide_metal>  (313) 
-0

>  <r_i_glide_rewards>  (313) 
-1.29641

>  <r_i_glide_evdw>  (313) 
-21.5289

>  <r_i_glide_ecoul>  (313) 
0.236731

>  <r_i_glide_erotb>  (313) 
0.522525

>  <r_i_glide_esite>  (313) 
-0.063451

>  <r_i_glide_emodel>  (313) 
-20.3016

>  <r_i_glide_energy>  (313) 
-21.2922

>  <r_i_glide_einternal>  (313) 
1.90644

>  <r_i_glide_intrahb_reward>  (313) 
-0

>  <i_i_glide_confnum>  (313) 
4

>  <i_i_glide_posenum>  (313) 
18

>  <r_i_glide_eff_state_penalty>  (313) 
0

>  <ligand_id>  (313) 
100

>  <original_smiles>  (313) 
CN1C2CCC1CC(n1nnnc1Cc1ccc3c(n1)OCO3)C2

>  <smiles>  (313) 
[H]c1c(C([H])([H])c2nnnn2C2([H])C([H])([H])C3([H])N(C([H])([H])[H])C([H])(C([H])([H])C3([H])[H])C2([H])[H])nc2c(c1[H])OC([H])([H])O2

$$$$
100:3:2
     RDKit          3D

 44 48  0  0  1  0  0  0  0  0999 V2000
    3.0887   -3.1813   -4.3012 C   0  0  0  0  0  0  0  0  0  0  0  0
    3.4645   -2.5352   -3.0643 N   0  0  0  0  0  0  0  0  0  0  0  0
    3.5949   -3.5128   -1.9917 C   0  0  1  0  0  0  0  0  0  0  0  0
    4.9726   -4.1911   -2.2128 C   0  0  0  0  0  0  0  0  0  0  0  0
    5.7348   -3.1811   -3.0462 C   0  0  0  0  0  0  0  0  0  0  0  0
    4.8116   -1.9603   -3.1469 C   0  0  2  0  0  0  0  0  0  0  0  0
    4.9402   -0.9710   -1.9912 C   0  0  0  0  0  0  0  0  0  0  0  0
    4.8138   -1.6866   -0.6756 C   0  0  2  0  0  0  0  0  0  0  0  0
    6.0078   -2.3339   -0.0862 N   0  0  0  0  0  0  0  0  0  0  0  0
    7.2381   -2.0834   -0.5984 N   0  0  0  0  0  0  0  0  0  0  0  0
    8.0286   -3.0024   -0.1237 N   0  0  0  0  0  0  0  0  0  0  0  0
    7.4212   -3.6782    0.8925 N   0  0  0  0  0  0  0  0  0  0  0  0
    6.1822   -3.1886    0.9449 C   0  0  0  0  0  0  0  0  0  0  0  0
    5.1390   -3.6076    1.9676 C   0  0  0  0  0  0  0  0  0  0  0  0
    4.2819   -2.5088    2.5891 C   0  0  0  0  0  0  0  0  0  0  0  0
    4.0070   -2.3833    3.9723 C   0  0  0  0  0  0  0  0  0  0  0  0
    3.2371   -1.2601    4.3804 C   0  0  0  0  0  0  0  0  0  0  0  0
    2.7832   -0.2794    3.4523 C   0  0  0  0  0  0  0  0  0  0  0  0
    3.1058   -0.5198    2.1584 C   0  0  0  0  0  0  0  0  0  0  0  0
    3.7564   -1.5838    1.7347 N   0  0  0  0  0  0  0  0  0  0  0  0
    2.6677    0.4441    1.3278 O   0  0  0  0  0  0  0  0  0  0  0  0
    1.8532    1.2431    2.1646 C   0  0  0  0  0  0  0  0  0  0  0  0
    2.0685    0.8361    3.5057 O   0  0  0  0  0  0  0  0  0  0  0  0
    3.5773   -2.6673   -0.7388 C   0  0  0  0  0  0  0  0  0  0  0  0
    2.1177   -3.6539   -4.1885 H   0  0  0  0  0  0  0  0  0  0  0  0
    3.8120   -3.9314   -4.6152 H   0  0  0  0  0  0  0  0  0  0  0  0
    3.0195   -2.4223   -5.0661 H   0  0  0  0  0  0  0  0  0  0  0  0
    2.7737   -4.2287   -1.9321 H   0  0  0  0  0  0  0  0  0  0  0  0
    5.4480   -4.5118   -1.2828 H   0  0  0  0  0  0  0  0  0  0  0  0
    4.8699   -5.0901   -2.8082 H   0  0  0  0  0  0  0  0  0  0  0  0
    6.7535   -2.9584   -2.6975 H   0  0  0  0  0  0  0  0  0  0  0  0
    5.9808   -3.5842   -3.9972 H   0  0  0  0  0  0  0  0  0  0  0  0
    4.9665   -1.3886   -4.0674 H   0  0  0  0  0  0  0  0  0  0  0  0
    5.8488   -0.4068   -1.9710 H   0  0  0  0  0  0  0  0  0  0  0  0
    4.1649   -0.2003   -2.0360 H   0  0  0  0  0  0  0  0  0  0  0  0
    4.7032   -0.7576   -0.1146 H   0  0  0  0  0  0  0  0  0  0  0  0
    4.5328   -4.4158    1.5404 H   0  0  0  0  0  0  0  0  0  0  0  0
    5.6681   -4.1249    2.7768 H   0  0  0  0  0  0  0  0  0  0  0  0
    4.3800   -3.1419    4.6108 H   0  0  0  0  0  0  0  0  0  0  0  0
    2.9805   -1.1417    5.4382 H   0  0  0  0  0  0  0  0  0  0  0  0
    2.0231    2.3102    2.0313 H   0  0  0  0  0  0  0  0  0  0  0  0
    0.8215    1.0044    1.8909 H   0  0  0  0  0  0  0  0  0  0  0  0
    2.6201   -2.1582   -0.6051 H   0  0  0  0  0  0  0  0  0  0  0  0
    3.5212   -3.3832    0.0638 H   0  0  0  0  0  0  0  0  0  0  0  0
  1  2  1  0
  1 25  1  0
  1 26  1  0
  1 27  1  0
  2  6  1  0
  2  3  1  0
  3 24  1  0
  3  4  1  0
  3 28  1  1
  4  5  1  0
  4 29  1  0
  4 30  1  0
  5  6  1  0
  5 31  1  0
  5 32  1  0
  6  7  1  0
  6 33  1  6
  7  8  1  0
  7 34  1  0
  7 35  1  0
  8  9  1  0
  8 24  1  0
  8 36  1  1
  9 13  1  0
  9 10  1  0
 10 11  2  0
 11 12  1  0
 12 13  2  0
 13 14  1  0
 14 15  1  0
 14 37  1  0
 14 38  1  0
 15 20  1  0
 15 16  2  0
 16 17  1  0
 16 39  1  0
 17 18  2  0
 17 40  1  0
 18 23  1  0
 18 19  1  0
 19 20  2  0
 19 21  1  0
 21 22  1  0
 22 23  1  0
 22 41  1  0
 22 42  1  0
 24 43  1  0
 24 44  1  0
M  END
>  <i_m_ct_stereo_status>  (314) 
1

>  <s_m_source_file>  (314) 
/var/tmp/pbs.5076255.sched01/tmphrhi8tfx/132_dydaaau.sdf

>  <i_m_source_file_index>  (314) 
17

>  <i_lp_mmshare_version>  (314) 
48012

>  <i_f3d_flags>  (314) 
0

>  <s_epik_input>  (314) 
W0NIM11OKFtDQEBIXTEyKVtDQEhdKFtDSDJdW0NIMl0xKVtDSDJdW0NASF0oW0NIMl0yKW4zbm5uYzNbQ0gyXWMoW2NIXVtjSF00KW5jKGM0NSlPW0NIMl1PNQ==

>  <s_epik_cmdline>  (314) 
J2VwaWtfcHl0aG9uJywgJy1waHQnLCAnMi4wJywgJy1waCcsICc3LjAnLCAnLXRuJywgJzgnLCAnLW1hJywgJzIwMCcsICctaW1hZScsICc8aW5maWxlLm1hZT4nLCAnLW9tYWUnLCAnPG91dGZpbGUubWFlPic=

>  <r_lp_tautomer_probability>  (314) 
1

>  <r_epik_Ionization_Penalty>  (314) 
2.24504

>  <r_epik_Ionization_Penalty_Charging>  (314) 
0

>  <r_epik_Ionization_Penalty_Neutral>  (314) 
2.24504

>  <r_epik_State_Penalty>  (314) 
2.39173

>  <r_epik_Charging_Adjusted_Penalty>  (314) 
2.39173

>  <i_epik_Tot_Q>  (314) 
0

>  <i_epik_Tot_abs_Q>  (314) 
0

>  <s_epik_Chemistry_Notes>  (314) 
This compound contains an acetal/aminal-like group ( X-CH(R)-Y where X, Y are N, S, or O) that may be acid/base labile, releasing an aldehyde.

>  <s_lp_Force_Field>  (314) 
OPLS3e

>  <r_lp_Energy>  (314) 
41.2715

>  <b_lp_Chiralities_Consistent>  (314) 
1

>  <s_lp_Variant>  (314) 
100:0-4

>  <s_i_glide_gridfile>  (314) 
pfpi4k_grid

>  <i_i_glide_lignum>  (314) 
17

>  <i_i_glide_rotatable_bonds>  (314) 
3

>  <r_i_docking_score>  (314) 
-1.54475

>  <r_i_glide_ligand_efficiency>  (314) 
-0.0643648

>  <r_i_glide_ligand_efficiency_sa>  (314) 
-0.18566

>  <r_i_glide_ligand_efficiency_ln>  (314) 
-0.369731

>  <r_i_glide_gscore>  (314) 
-1.54475

>  <r_i_glide_lipo>  (314) 
-0.246605

>  <r_i_glide_hbond>  (314) 
0

>  <r_i_glide_metal>  (314) 
-0

>  <r_i_glide_rewards>  (314) 
-1.28646

>  <r_i_glide_evdw>  (314) 
-23.6238

>  <r_i_glide_ecoul>  (314) 
-1.89755

>  <r_i_glide_erotb>  (314) 
0.522525

>  <r_i_glide_esite>  (314) 
-0.0878851

>  <r_i_glide_emodel>  (314) 
-20.1599

>  <r_i_glide_energy>  (314) 
-25.5214

>  <r_i_glide_einternal>  (314) 
3.28518

>  <r_i_glide_intrahb_reward>  (314) 
-0

>  <i_i_glide_confnum>  (314) 
6

>  <i_i_glide_posenum>  (314) 
13

>  <r_i_glide_eff_state_penalty>  (314) 
0

>  <ligand_id>  (314) 
100

>  <original_smiles>  (314) 
CN1C2CCC1CC(n1nnnc1Cc1ccc3c(n1)OCO3)C2

>  <smiles>  (314) 
[H]c1c(C([H])([H])c2nnnn2C2([H])C([H])([H])C3([H])N(C([H])([H])[H])C([H])(C([H])([H])C3([H])[H])C2([H])[H])nc2c(c1[H])OC([H])([H])O2

$$$$
101:0:0
     RDKit          3D

 52 57  0  0  1  0  0  0  0  0999 V2000
    1.3159   -2.4114    3.7876 C   0  0  0  0  0  0  0  0  0  0  0  0
    2.0780   -3.3849    2.8579 C   0  0  2  0  0  0  0  0  0  0  0  0
    3.1409   -4.2357    3.6141 C   0  0  0  0  0  0  0  0  0  0  0  0
    2.8803   -4.6705    4.7347 O   0  0  0  0  0  0  0  0  0  0  0  0
    4.4422   -4.4879    2.9369 C   0  0  0  0  0  0  0  0  0  0  0  0
    4.5639   -4.1439    1.6334 C   0  0  0  0  0  0  0  0  0  0  0  0
    5.7226   -3.2453    1.2674 C   0  0  1  0  0  0  0  0  0  0  0  0
    6.2016   -3.6100   -0.1525 C   0  0  0  0  0  0  0  0  0  0  0  0
    5.1016   -3.6918   -1.1945 C   0  0  1  0  0  0  0  0  0  0  0  0
    3.6536   -3.6373   -0.7824 C   0  0  1  0  0  0  0  0  0  0  0  0
    3.3472   -3.9012    0.7384 C   0  0  1  0  0  0  0  0  0  0  0  0
    2.4977   -5.2251    0.6802 C   0  0  0  0  0  0  0  0  0  0  0  0
    2.6608   -2.7481    1.5385 C   0  0  2  0  0  0  0  0  0  0  0  0
    3.6846   -1.5801    1.8053 C   0  0  1  0  0  0  0  0  0  0  0  0
    3.9006   -1.3114    3.2037 O   0  0  0  0  0  0  0  0  0  0  0  0
    5.3202   -1.3944    3.0429 C   0  0  0  0  0  0  0  0  0  0  0  0
    5.2232   -1.7816    1.5614 C   0  0  1  0  0  0  0  0  0  0  0  0
    5.9172   -0.7319    0.6935 C   0  0  0  0  0  0  0  0  0  0  0  0
    5.8152   -0.9746   -0.6865 O   0  0  0  0  0  0  0  0  0  0  0  0
    4.5172   -1.0892   -1.2133 C   0  0  0  0  0  0  0  0  0  0  0  0
    4.2520   -2.5213   -1.7021 C   0  0  1  0  0  0  0  0  0  0  0  0
    3.7095   -2.5573   -3.1779 C   0  0  0  0  0  0  0  0  0  0  0  0
    4.3409   -3.6609   -4.0435 C   0  0  0  0  0  0  0  0  0  0  0  0
    3.7482   -1.2528   -4.0154 C   0  0  0  0  0  0  0  0  0  0  0  0
    0.5972   -2.9542    4.4026 H   0  0  0  0  0  0  0  0  0  0  0  0
    0.7588   -1.6708    3.2116 H   0  0  0  0  0  0  0  0  0  0  0  0
    1.9695   -1.8785    4.4765 H   0  0  0  0  0  0  0  0  0  0  0  0
    1.3063   -4.0893    2.5539 H   0  0  0  0  0  0  0  0  0  0  0  0
    5.3032   -4.4843    3.5869 H   0  0  0  0  0  0  0  0  0  0  0  0
    6.5648   -3.4685    1.9275 H   0  0  0  0  0  0  0  0  0  0  0  0
    7.0143   -2.9828   -0.5113 H   0  0  0  0  0  0  0  0  0  0  0  0
    6.6482   -4.6020   -0.0885 H   0  0  0  0  0  0  0  0  0  0  0  0
    5.3389   -4.5006   -1.8760 H   0  0  0  0  0  0  0  0  0  0  0  0
    2.9723   -4.2331   -1.3875 H   0  0  0  0  0  0  0  0  0  0  0  0
    1.5110   -5.0543    0.2509 H   0  0  0  0  0  0  0  0  0  0  0  0
    2.3423   -5.7396    1.6295 H   0  0  0  0  0  0  0  0  0  0  0  0
    2.9825   -5.9737    0.0521 H   0  0  0  0  0  0  0  0  0  0  0  0
    1.8247   -2.3676    0.9466 H   0  0  0  0  0  0  0  0  0  0  0  0
    3.3247   -0.6503    1.3688 H   0  0  0  0  0  0  0  0  0  0  0  0
    5.8145   -0.4366    3.2173 H   0  0  0  0  0  0  0  0  0  0  0  0
    5.7591   -2.1672    3.6762 H   0  0  0  0  0  0  0  0  0  0  0  0
    5.5128    0.2643    0.8815 H   0  0  0  0  0  0  0  0  0  0  0  0
    6.9794   -0.6783    0.9304 H   0  0  0  0  0  0  0  0  0  0  0  0
    3.6926   -0.7340   -0.6090 H   0  0  0  0  0  0  0  0  0  0  0  0
    4.5962   -0.3444   -1.9911 H   0  0  0  0  0  0  0  0  0  0  0  0
    2.6483   -2.7962   -3.0983 H   0  0  0  0  0  0  0  0  0  0  0  0
    5.4111   -3.5256   -4.1636 H   0  0  0  0  0  0  0  0  0  0  0  0
    3.8823   -3.7080   -5.0237 H   0  0  0  0  0  0  0  0  0  0  0  0
    4.2067   -4.6536   -3.6251 H   0  0  0  0  0  0  0  0  0  0  0  0
    4.7657   -0.8868   -4.1459 H   0  0  0  0  0  0  0  0  0  0  0  0
    3.1408   -0.4613   -3.5701 H   0  0  0  0  0  0  0  0  0  0  0  0
    3.3479   -1.3942   -5.0183 H   0  0  0  0  0  0  0  0  0  0  0  0
  1  2  1  0
  1 25  1  0
  1 26  1  0
  1 27  1  0
  2 13  1  0
  2  3  1  0
  2 28  1  6
  3  4  2  0
  3  5  1  0
  5  6  2  0
  5 29  1  0
  6 11  1  0
  6  7  1  0
  7 17  1  0
  7  8  1  0
  7 30  1  1
  8  9  1  0
  8 31  1  0
  8 32  1  0
  9 21  1  0
  9 10  1  0
  9 33  1  6
 10 21  1  0
 10 11  1  0
 10 34  1  6
 11 12  1  6
 11 13  1  0
 12 35  1  0
 12 36  1  0
 12 37  1  0
 13 14  1  0
 13 38  1  6
 14 17  1  0
 14 15  1  0
 14 39  1  6
 15 16  1  0
 17 16  1  1
 16 40  1  0
 16 41  1  0
 17 18  1  0
 18 19  1  0
 18 42  1  0
 18 43  1  0
 19 20  1  0
 20 21  1  0
 20 44  1  0
 20 45  1  0
 21 22  1  6
 22 23  1  0
 22 24  1  0
 22 46  1  0
 23 47  1  0
 23 48  1  0
 23 49  1  0
 24 50  1  0
 24 51  1  0
 24 52  1  0
M  END
>  <i_m_ct_stereo_status>  (315) 
1

>  <s_m_source_file>  (315) 
/var/tmp/pbs.5076255.sched01/tmphrhi8tfx/132_dydaaau.sdf

>  <i_m_source_file_index>  (315) 
18

>  <i_lp_mmshare_version>  (315) 
48012

>  <i_f3d_flags>  (315) 
0

>  <s_epik_input>  (315) 
Tz1DKFtDSF09MSlbQ0BASF0oW0NIM10pW0NAQEhdKFtDQEBIXTJPW0NIMl0zKVtDQF0oW0NIM10pKEMxW0NAQEhdNFtDQEBdMjM1KVtDQEBIXTZbQ0BIXShbQ0gyXTQpW0NAXTYoW0NIXShbQ0gzXSlbQ0gzXSlbQ0gyXU9bQ0gyXTU=

>  <s_epik_cmdline>  (315) 
J2VwaWtfcHl0aG9uJywgJy1waHQnLCAnMi4wJywgJy1waCcsICc3LjAnLCAnLXRuJywgJzgnLCAnLW1hJywgJzIwMCcsICctaW1hZScsICc8aW5maWxlLm1hZT4nLCAnLW9tYWUnLCAnPG91dGZpbGUubWFlPic=

>  <r_lp_tautomer_probability>  (315) 
1

>  <r_epik_Ionization_Penalty>  (315) 
1.06169e-11

>  <r_epik_Ionization_Penalty_Charging>  (315) 
0

>  <r_epik_Ionization_Penalty_Neutral>  (315) 
1.06169e-11

>  <r_epik_State_Penalty>  (315) 
-0

>  <r_epik_Charging_Adjusted_Penalty>  (315) 
0

>  <i_epik_Tot_Q>  (315) 
0

>  <i_epik_Tot_abs_Q>  (315) 
0

>  <s_lp_Force_Field>  (315) 
OPLS3e

>  <r_lp_Energy>  (315) 
106.053

>  <b_lp_Chiralities_Consistent>  (315) 
1

>  <s_lp_Variant>  (315) 
101:0-1

>  <s_i_glide_gridfile>  (315) 
pfpi4k_grid

>  <i_i_glide_lignum>  (315) 
18

>  <i_i_glide_rotatable_bonds>  (315) 
1

>  <r_i_docking_score>  (315) 
-3.27109

>  <r_i_glide_ligand_efficiency>  (315) 
-0.136295

>  <r_i_glide_ligand_efficiency_sa>  (315) 
-0.393144

>  <r_i_glide_ligand_efficiency_ln>  (315) 
-0.782922

>  <r_i_glide_gscore>  (315) 
-3.27109

>  <r_i_glide_lipo>  (315) 
-0.723591

>  <r_i_glide_hbond>  (315) 
-0.0373227

>  <r_i_glide_metal>  (315) 
-0

>  <r_i_glide_rewards>  (315) 
-1.16969

>  <r_i_glide_evdw>  (315) 
-21.3444

>  <r_i_glide_ecoul>  (315) 
-1.82177

>  <r_i_glide_erotb>  (315) 
0

>  <r_i_glide_esite>  (315) 
0

>  <r_i_glide_emodel>  (315) 
-23.3459

>  <r_i_glide_energy>  (315) 
-23.1662

>  <r_i_glide_einternal>  (315) 
8.79523

>  <r_i_glide_intrahb_reward>  (315) 
-0

>  <i_i_glide_confnum>  (315) 
2

>  <i_i_glide_posenum>  (315) 
30

>  <r_i_glide_eff_state_penalty>  (315) 
0

>  <ligand_id>  (315) 
101

>  <original_smiles>  (315) 
CC1C(=O)C=C2C3CC4C5C2(C)C1C1OCC31COCC45C(C)C

>  <smiles>  (315) 
[H]C1=C2C3([H])C([H])([H])C4([H])C5([H])C2(C([H])([H])[H])C([H])(C2([H])OC([H])([H])C23C([H])([H])OC([H])([H])C45C([H])(C([H])([H])[H])C([H])([H])[H])C([H])(C([H])([H])[H])C1=O

$$$$
101:0:1
     RDKit          3D

 52 57  0  0  1  0  0  0  0  0999 V2000
    2.4488   -2.5897    3.1248 C   0  0  0  0  0  0  0  0  0  0  0  0
    2.4727   -3.2812    1.7471 C   0  0  2  0  0  0  0  0  0  0  0  0
    2.8277   -4.7997    1.8260 C   0  0  0  0  0  0  0  0  0  0  0  0
    2.3363   -5.4703    2.7219 O   0  0  0  0  0  0  0  0  0  0  0  0
    3.7282   -5.3681    0.7810 C   0  0  0  0  0  0  0  0  0  0  0  0
    3.9952   -4.5944   -0.2982 C   0  0  0  0  0  0  0  0  0  0  0  0
    5.4303   -4.3546   -0.6640 C   0  0  1  0  0  0  0  0  0  0  0  0
    5.5175   -4.1753   -2.1947 C   0  0  0  0  0  0  0  0  0  0  0  0
    4.5544   -3.2570   -2.8226 C   0  0  1  0  0  0  0  0  0  0  0  0
    3.4367   -2.6755   -1.9964 C   0  0  1  0  0  0  0  0  0  0  0  0
    3.1315   -3.4044   -0.6721 C   0  0  1  0  0  0  0  0  0  0  0  0
    1.7151   -3.9366   -1.0064 C   0  0  0  0  0  0  0  0  0  0  0  0
    3.2691   -2.5431    0.6207 C   0  0  2  0  0  0  0  0  0  0  0  0
    4.7892   -2.3450    0.9803 C   0  0  1  0  0  0  0  0  0  0  0  0
    5.1476   -2.8861    2.2621 O   0  0  0  0  0  0  0  0  0  0  0  0
    6.2135   -3.6348    1.6818 C   0  0  0  0  0  0  0  0  0  0  0  0
    5.8972   -3.1847    0.2591 C   0  0  1  0  0  0  0  0  0  0  0  0
    7.0717   -2.4118   -0.3393 C   0  0  0  0  0  0  0  0  0  0  0  0
    6.8165   -1.8842   -1.6134 O   0  0  0  0  0  0  0  0  0  0  0  0
    5.6200   -1.1480   -1.7638 C   0  0  0  0  0  0  0  0  0  0  0  0
    4.5378   -1.7980   -2.5908 C   0  0  1  0  0  0  0  0  0  0  0  0
    4.1848   -0.8899   -3.7951 C   0  0  0  0  0  0  0  0  0  0  0  0
    3.7603    0.4749   -3.3885 C   0  0  0  0  0  0  0  0  0  0  0  0
    3.0714   -1.3770   -4.6883 C   0  0  0  0  0  0  0  0  0  0  0  0
    1.5535   -2.8815    3.6739 H   0  0  0  0  0  0  0  0  0  0  0  0
    2.4231   -1.5039    3.0119 H   0  0  0  0  0  0  0  0  0  0  0  0
    3.3002   -2.8527    3.7511 H   0  0  0  0  0  0  0  0  0  0  0  0
    1.4322   -3.2177    1.4603 H   0  0  0  0  0  0  0  0  0  0  0  0
    4.4322   -6.1171    1.1228 H   0  0  0  0  0  0  0  0  0  0  0  0
    5.9860   -5.2558   -0.3932 H   0  0  0  0  0  0  0  0  0  0  0  0
    6.5112   -3.9526   -2.5893 H   0  0  0  0  0  0  0  0  0  0  0  0
    5.1674   -5.1139   -2.6045 H   0  0  0  0  0  0  0  0  0  0  0  0
    4.3173   -3.6072   -3.8142 H   0  0  0  0  0  0  0  0  0  0  0  0
    2.5153   -2.4995   -2.5242 H   0  0  0  0  0  0  0  0  0  0  0  0
    1.0261   -3.0629   -1.0607 H   0  0  0  0  0  0  0  0  0  0  0  0
    1.3739   -4.7222   -0.3409 H   0  0  0  0  0  0  0  0  0  0  0  0
    1.6443   -4.3910   -1.9922 H   0  0  0  0  0  0  0  0  0  0  0  0
    2.8022   -1.5730    0.4460 H   0  0  0  0  0  0  0  0  0  0  0  0
    5.0602   -1.2903    0.9983 H   0  0  0  0  0  0  0  0  0  0  0  0
    7.1898   -3.2872    1.9919 H   0  0  0  0  0  0  0  0  0  0  0  0
    6.1252   -4.7103    1.8554 H   0  0  0  0  0  0  0  0  0  0  0  0
    7.3460   -1.5710    0.2985 H   0  0  0  0  0  0  0  0  0  0  0  0
    7.9573   -3.0430   -0.4123 H   0  0  0  0  0  0  0  0  0  0  0  0
    5.1997   -0.6919   -0.8819 H   0  0  0  0  0  0  0  0  0  0  0  0
    5.9626   -0.3103   -2.3176 H   0  0  0  0  0  0  0  0  0  0  0  0
    5.0130   -0.7891   -4.4626 H   0  0  0  0  0  0  0  0  0  0  0  0
    2.8277    0.2820   -2.8400 H   0  0  0  0  0  0  0  0  0  0  0  0
    3.5834    1.1434   -4.2368 H   0  0  0  0  0  0  0  0  0  0  0  0
    4.4574    0.9556   -2.7299 H   0  0  0  0  0  0  0  0  0  0  0  0
    2.0803   -1.4376   -4.2377 H   0  0  0  0  0  0  0  0  0  0  0  0
    3.3209   -2.3544   -5.0552 H   0  0  0  0  0  0  0  0  0  0  0  0
    2.9946   -0.6740   -5.5237 H   0  0  0  0  0  0  0  0  0  0  0  0
  1  2  1  0
  1 25  1  0
  1 26  1  0
  1 27  1  0
  2 13  1  0
  2  3  1  0
  2 28  1  6
  3  4  2  0
  3  5  1  0
  5  6  2  0
  5 29  1  0
  6 11  1  0
  6  7  1  0
  7 17  1  0
  7  8  1  0
  7 30  1  1
  8  9  1  0
  8 31  1  0
  8 32  1  0
  9 21  1  0
  9 10  1  0
  9 33  1  6
 10 21  1  0
 10 11  1  0
 10 34  1  6
 11 12  1  6
 11 13  1  0
 12 35  1  0
 12 36  1  0
 12 37  1  0
 13 14  1  0
 13 38  1  6
 14 17  1  0
 14 15  1  0
 14 39  1  1
 15 16  1  0
 17 16  1  1
 16 40  1  0
 16 41  1  0
 17 18  1  0
 18 19  1  0
 18 42  1  0
 18 43  1  0
 19 20  1  0
 20 21  1  0
 20 44  1  0
 20 45  1  0
 21 22  1  6
 22 23  1  0
 22 24  1  0
 22 46  1  0
 23 47  1  0
 23 48  1  0
 23 49  1  0
 24 50  1  0
 24 51  1  0
 24 52  1  0
M  END
>  <i_m_ct_stereo_status>  (316) 
1

>  <s_m_source_file>  (316) 
/var/tmp/pbs.5076255.sched01/tmphrhi8tfx/132_dydaaau.sdf

>  <i_m_source_file_index>  (316) 
18

>  <i_lp_mmshare_version>  (316) 
48012

>  <i_f3d_flags>  (316) 
0

>  <s_epik_input>  (316) 
Tz1DKFtDSF09MSlbQ0BASF0oW0NIM10pW0NAQEhdKFtDQEBIXTJPW0NIMl0zKVtDQF0oW0NIM10pKEMxW0NAQEhdNFtDQEBdMjM1KVtDQEBIXTZbQ0BIXShbQ0gyXTQpW0NAXTYoW0NIXShbQ0gzXSlbQ0gzXSlbQ0gyXU9bQ0gyXTU=

>  <s_epik_cmdline>  (316) 
J2VwaWtfcHl0aG9uJywgJy1waHQnLCAnMi4wJywgJy1waCcsICc3LjAnLCAnLXRuJywgJzgnLCAnLW1hJywgJzIwMCcsICctaW1hZScsICc8aW5maWxlLm1hZT4nLCAnLW9tYWUnLCAnPG91dGZpbGUubWFlPic=

>  <r_lp_tautomer_probability>  (316) 
1

>  <r_epik_Ionization_Penalty>  (316) 
1.06169e-11

>  <r_epik_Ionization_Penalty_Charging>  (316) 
0

>  <r_epik_Ionization_Penalty_Neutral>  (316) 
1.06169e-11

>  <r_epik_State_Penalty>  (316) 
-0

>  <r_epik_Charging_Adjusted_Penalty>  (316) 
0

>  <i_epik_Tot_Q>  (316) 
0

>  <i_epik_Tot_abs_Q>  (316) 
0

>  <s_lp_Force_Field>  (316) 
OPLS3e

>  <r_lp_Energy>  (316) 
106.053

>  <b_lp_Chiralities_Consistent>  (316) 
1

>  <s_lp_Variant>  (316) 
101:0-1

>  <s_i_glide_gridfile>  (316) 
pfpi4k_grid

>  <i_i_glide_lignum>  (316) 
18

>  <i_i_glide_rotatable_bonds>  (316) 
1

>  <r_i_docking_score>  (316) 
-2.69804

>  <r_i_glide_ligand_efficiency>  (316) 
-0.112418

>  <r_i_glide_ligand_efficiency_sa>  (316) 
-0.32427

>  <r_i_glide_ligand_efficiency_ln>  (316) 
-0.645764

>  <r_i_glide_gscore>  (316) 
-2.69804

>  <r_i_glide_lipo>  (316) 
-0.526734

>  <r_i_glide_hbond>  (316) 
-0.16

>  <r_i_glide_metal>  (316) 
-0

>  <r_i_glide_rewards>  (316) 
-1.16969

>  <r_i_glide_evdw>  (316) 
-7.11827

>  <r_i_glide_ecoul>  (316) 
-3.18766

>  <r_i_glide_erotb>  (316) 
0

>  <r_i_glide_esite>  (316) 
-0.00755006

>  <r_i_glide_emodel>  (316) 
-11.7564

>  <r_i_glide_energy>  (316) 
-10.3059

>  <r_i_glide_einternal>  (316) 
2.46812

>  <r_i_glide_intrahb_reward>  (316) 
-0

>  <i_i_glide_confnum>  (316) 
1

>  <i_i_glide_posenum>  (316) 
5

>  <r_i_glide_eff_state_penalty>  (316) 
0

>  <ligand_id>  (316) 
101

>  <original_smiles>  (316) 
CC1C(=O)C=C2C3CC4C5C2(C)C1C1OCC31COCC45C(C)C

>  <smiles>  (316) 
[H]C1=C2C3([H])C([H])([H])C4([H])C5([H])C2(C([H])([H])[H])C([H])(C2([H])OC([H])([H])C23C([H])([H])OC([H])([H])C45C([H])(C([H])([H])[H])C([H])([H])[H])C([H])(C([H])([H])[H])C1=O

$$$$
101:0:2
     RDKit          3D

 52 57  0  0  1  0  0  0  0  0999 V2000
    2.3553   -3.9064    3.3753 C   0  0  0  0  0  0  0  0  0  0  0  0
    2.4390   -4.3652    1.9033 C   0  0  2  0  0  0  0  0  0  0  0  0
    3.0851   -5.7765    1.7427 C   0  0  0  0  0  0  0  0  0  0  0  0
    2.7950   -6.6710    2.5321 O   0  0  0  0  0  0  0  0  0  0  0  0
    4.0174   -5.9820    0.6070 C   0  0  0  0  0  0  0  0  0  0  0  0
    4.0730   -5.0115   -0.3277 C   0  0  0  0  0  0  0  0  0  0  0  0
    5.4128   -4.4540   -0.7198 C   0  0  1  0  0  0  0  0  0  0  0  0
    5.4104   -4.0817   -2.2200 C   0  0  0  0  0  0  0  0  0  0  0  0
    4.2485   -3.2347   -2.6841 C   0  0  1  0  0  0  0  0  0  0  0  0
    3.0859   -2.9992   -1.7383 C   0  0  1  0  0  0  0  0  0  0  0  0
    2.9664   -3.9734   -0.5250 C   0  0  1  0  0  0  0  0  0  0  0  0
    1.6068   -4.7077   -0.8589 C   0  0  0  0  0  0  0  0  0  0  0  0
    3.0150   -3.3103    0.8875 C   0  0  2  0  0  0  0  0  0  0  0  0
    4.4876   -2.8504    1.2300 C   0  0  1  0  0  0  0  0  0  0  0  0
    5.0253   -3.5016    2.4001 O   0  0  0  0  0  0  0  0  0  0  0  0
    6.1902   -3.9201    1.6779 C   0  0  0  0  0  0  0  0  0  0  0  0
    5.6911   -3.3387    0.3496 C   0  0  1  0  0  0  0  0  0  0  0  0
    6.6444   -2.2544   -0.1651 C   0  0  0  0  0  0  0  0  0  0  0  0
    6.2158   -1.6115   -1.3426 O   0  0  0  0  0  0  0  0  0  0  0  0
    4.9197   -1.0534   -1.3309 C   0  0  0  0  0  0  0  0  0  0  0  0
    3.9637   -1.8185   -2.2397 C   0  0  1  0  0  0  0  0  0  0  0  0
    3.2542   -0.8280   -3.2233 C   0  0  0  0  0  0  0  0  0  0  0  0
    2.4079   -1.4997   -4.3196 C   0  0  0  0  0  0  0  0  0  0  0  0
    4.1274    0.2005   -3.9915 C   0  0  0  0  0  0  0  0  0  0  0  0
    1.5660   -4.4542    3.8923 H   0  0  0  0  0  0  0  0  0  0  0  0
    2.1152   -2.8431    3.4373 H   0  0  0  0  0  0  0  0  0  0  0  0
    3.2793   -4.0828    3.9308 H   0  0  0  0  0  0  0  0  0  0  0  0
    1.4142   -4.5218    1.6371 H   0  0  0  0  0  0  0  0  0  0  0  0
    4.8631   -6.6307    0.7860 H   0  0  0  0  0  0  0  0  0  0  0  0
    6.1452   -5.2477   -0.5852 H   0  0  0  0  0  0  0  0  0  0  0  0
    6.3486   -3.6488   -2.5674 H   0  0  0  0  0  0  0  0  0  0  0  0
    5.3048   -5.0014   -2.7833 H   0  0  0  0  0  0  0  0  0  0  0  0
    3.9768   -3.5091   -3.6968 H   0  0  0  0  0  0  0  0  0  0  0  0
    2.1070   -2.8687   -2.1766 H   0  0  0  0  0  0  0  0  0  0  0  0
    0.8573   -3.9531   -0.8285 H   0  0  0  0  0  0  0  0  0  0  0  0
    1.3549   -5.5727   -0.2403 H   0  0  0  0  0  0  0  0  0  0  0  0
    1.4097   -5.0272   -1.8816 H   0  0  0  0  0  0  0  0  0  0  0  0
    2.3583   -2.4368    0.8855 H   0  0  0  0  0  0  0  0  0  0  0  0
    4.5370   -1.7744    1.4228 H   0  0  0  0  0  0  0  0  0  0  0  0
    7.0900   -3.4402    2.0434 H   0  0  0  0  0  0  0  0  0  0  0  0
    6.3094   -5.0095    1.6796 H   0  0  0  0  0  0  0  0  0  0  0  0
    6.7923   -1.4870    0.5986 H   0  0  0  0  0  0  0  0  0  0  0  0
    7.6286   -2.6798   -0.3612 H   0  0  0  0  0  0  0  0  0  0  0  0
    4.4613   -0.8657   -0.3694 H   0  0  0  0  0  0  0  0  0  0  0  0
    5.1048   -0.0682   -1.7091 H   0  0  0  0  0  0  0  0  0  0  0  0
    2.5513   -0.2624   -2.6156 H   0  0  0  0  0  0  0  0  0  0  0  0
    3.0600   -2.0359   -4.9940 H   0  0  0  0  0  0  0  0  0  0  0  0
    1.9325   -0.7112   -4.9008 H   0  0  0  0  0  0  0  0  0  0  0  0
    1.6402   -2.2049   -3.9894 H   0  0  0  0  0  0  0  0  0  0  0  0
    4.8645   -0.2888   -4.6174 H   0  0  0  0  0  0  0  0  0  0  0  0
    4.5957    0.9442   -3.3550 H   0  0  0  0  0  0  0  0  0  0  0  0
    3.5297    0.8037   -4.6719 H   0  0  0  0  0  0  0  0  0  0  0  0
  1  2  1  0
  1 25  1  0
  1 26  1  0
  1 27  1  0
  2 13  1  0
  2  3  1  0
  2 28  1  6
  3  4  2  0
  3  5  1  0
  5  6  2  0
  5 29  1  0
  6 11  1  0
  6  7  1  0
  7 17  1  0
  7  8  1  0
  7 30  1  6
  8  9  1  0
  8 31  1  0
  8 32  1  0
  9 21  1  0
  9 10  1  0
  9 33  1  6
 10 21  1  0
 10 11  1  0
 10 34  1  6
 11 12  1  6
 11 13  1  0
 12 35  1  0
 12 36  1  0
 12 37  1  0
 13 14  1  0
 13 38  1  6
 14 17  1  0
 14 15  1  0
 14 39  1  1
 15 16  1  0
 17 16  1  1
 16 40  1  0
 16 41  1  0
 17 18  1  0
 18 19  1  0
 18 42  1  0
 18 43  1  0
 19 20  1  0
 20 21  1  0
 20 44  1  0
 20 45  1  0
 21 22  1  6
 22 23  1  0
 22 24  1  0
 22 46  1  0
 23 47  1  0
 23 48  1  0
 23 49  1  0
 24 50  1  0
 24 51  1  0
 24 52  1  0
M  END
>  <i_m_ct_stereo_status>  (317) 
1

>  <s_m_source_file>  (317) 
/var/tmp/pbs.5076255.sched01/tmphrhi8tfx/132_dydaaau.sdf

>  <i_m_source_file_index>  (317) 
18

>  <i_lp_mmshare_version>  (317) 
48012

>  <i_f3d_flags>  (317) 
0

>  <s_epik_input>  (317) 
Tz1DKFtDSF09MSlbQ0BASF0oW0NIM10pW0NAQEhdKFtDQEBIXTJPW0NIMl0zKVtDQF0oW0NIM10pKEMxW0NAQEhdNFtDQEBdMjM1KVtDQEBIXTZbQ0BIXShbQ0gyXTQpW0NAXTYoW0NIXShbQ0gzXSlbQ0gzXSlbQ0gyXU9bQ0gyXTU=

>  <s_epik_cmdline>  (317) 
J2VwaWtfcHl0aG9uJywgJy1waHQnLCAnMi4wJywgJy1waCcsICc3LjAnLCAnLXRuJywgJzgnLCAnLW1hJywgJzIwMCcsICctaW1hZScsICc8aW5maWxlLm1hZT4nLCAnLW9tYWUnLCAnPG91dGZpbGUubWFlPic=

>  <r_lp_tautomer_probability>  (317) 
1

>  <r_epik_Ionization_Penalty>  (317) 
1.06169e-11

>  <r_epik_Ionization_Penalty_Charging>  (317) 
0

>  <r_epik_Ionization_Penalty_Neutral>  (317) 
1.06169e-11

>  <r_epik_State_Penalty>  (317) 
-0

>  <r_epik_Charging_Adjusted_Penalty>  (317) 
0

>  <i_epik_Tot_Q>  (317) 
0

>  <i_epik_Tot_abs_Q>  (317) 
0

>  <s_lp_Force_Field>  (317) 
OPLS3e

>  <r_lp_Energy>  (317) 
106.053

>  <b_lp_Chiralities_Consistent>  (317) 
1

>  <s_lp_Variant>  (317) 
101:0-1

>  <s_i_glide_gridfile>  (317) 
pfpi4k_grid

>  <i_i_glide_lignum>  (317) 
18

>  <i_i_glide_rotatable_bonds>  (317) 
1

>  <r_i_docking_score>  (317) 
-2.45663

>  <r_i_glide_ligand_efficiency>  (317) 
-0.102359

>  <r_i_glide_ligand_efficiency_sa>  (317) 
-0.295256

>  <r_i_glide_ligand_efficiency_ln>  (317) 
-0.587983

>  <r_i_glide_gscore>  (317) 
-2.45663

>  <r_i_glide_lipo>  (317) 
-0.422361

>  <r_i_glide_hbond>  (317) 
-0.129023

>  <r_i_glide_metal>  (317) 
-0

>  <r_i_glide_rewards>  (317) 
-1.18649

>  <r_i_glide_evdw>  (317) 
-8.64708

>  <r_i_glide_ecoul>  (317) 
-1.9093

>  <r_i_glide_erotb>  (317) 
0

>  <r_i_glide_esite>  (317) 
0

>  <r_i_glide_emodel>  (317) 
-8.72493

>  <r_i_glide_energy>  (317) 
-10.5564

>  <r_i_glide_einternal>  (317) 
9.19786

>  <r_i_glide_intrahb_reward>  (317) 
-0

>  <i_i_glide_confnum>  (317) 
1

>  <i_i_glide_posenum>  (317) 
23

>  <r_i_glide_eff_state_penalty>  (317) 
0

>  <ligand_id>  (317) 
101

>  <original_smiles>  (317) 
CC1C(=O)C=C2C3CC4C5C2(C)C1C1OCC31COCC45C(C)C

>  <smiles>  (317) 
[H]C1=C2C3([H])C([H])([H])C4([H])C5([H])C2(C([H])([H])[H])C([H])(C2([H])OC([H])([H])C23C([H])([H])OC([H])([H])C45C([H])(C([H])([H])[H])C([H])([H])[H])C([H])(C([H])([H])[H])C1=O

$$$$
101:1:0
     RDKit          3D

 52 57  0  0  1  0  0  0  0  0999 V2000
    1.6877   -3.1893   -2.4908 C   0  0  0  0  0  0  0  0  0  0  0  0
    2.9816   -2.5476   -1.9882 C   0  0  2  0  0  0  0  0  0  0  0  0
    4.2387   -3.1611   -2.7445 C   0  0  0  0  0  0  0  0  0  0  0  0
    4.2151   -3.2540   -3.9572 O   0  0  0  0  0  0  0  0  0  0  0  0
    5.4142   -3.5793   -1.8909 C   0  0  0  0  0  0  0  0  0  0  0  0
    5.4392   -3.1520   -0.5995 C   0  0  0  0  0  0  0  0  0  0  0  0
    5.6018   -4.1815    0.5506 C   0  0  1  0  0  0  0  0  0  0  0  0
    6.4322   -3.4864    1.6453 C   0  0  0  0  0  0  0  0  0  0  0  0
    5.9867   -2.0518    2.0079 C   0  0  1  0  0  0  0  0  0  0  0  0
    4.9729   -1.3073    1.1635 C   0  0  1  0  0  0  0  0  0  0  0  0
    4.5839   -1.9571   -0.1961 C   0  0  1  0  0  0  0  0  0  0  0  0
    4.9101   -0.7121   -1.1147 C   0  0  0  0  0  0  0  0  0  0  0  0
    3.1418   -2.5981   -0.4165 C   0  0  2  0  0  0  0  0  0  0  0  0
    3.1584   -4.1130    0.0313 C   0  0  2  0  0  0  0  0  0  0  0  0
    2.1961   -5.0947    0.4112 O   0  0  0  0  0  0  0  0  0  0  0  0
    3.3831   -5.9629    0.6066 C   0  0  0  0  0  0  0  0  0  0  0  0
    4.1720   -4.6823    1.0372 C   0  0  1  0  0  0  0  0  0  0  0  0
    3.9722   -4.7570    2.5834 C   0  0  0  0  0  0  0  0  0  0  0  0
    4.2638   -3.6632    3.4155 O   0  0  0  0  0  0  0  0  0  0  0  0
    3.5929   -2.4932    3.0335 C   0  0  0  0  0  0  0  0  0  0  0  0
    4.6894   -1.5679    2.6300 C   0  0  1  0  0  0  0  0  0  0  0  0
    4.8149   -0.3938    3.6332 C   0  0  0  0  0  0  0  0  0  0  0  0
    5.0048   -0.8076    5.1098 C   0  0  0  0  0  0  0  0  0  0  0  0
    3.6673    0.6274    3.5127 C   0  0  0  0  0  0  0  0  0  0  0  0
    1.4893   -2.9270   -3.5297 H   0  0  0  0  0  0  0  0  0  0  0  0
    0.8318   -2.8750   -1.9094 H   0  0  0  0  0  0  0  0  0  0  0  0
    1.7014   -4.2670   -2.3942 H   0  0  0  0  0  0  0  0  0  0  0  0
    2.8939   -1.5001   -2.2827 H   0  0  0  0  0  0  0  0  0  0  0  0
    5.7960   -4.5498   -2.1526 H   0  0  0  0  0  0  0  0  0  0  0  0
    6.1708   -5.0406    0.1797 H   0  0  0  0  0  0  0  0  0  0  0  0
    6.5136   -4.1164    2.5225 H   0  0  0  0  0  0  0  0  0  0  0  0
    7.4517   -3.4194    1.2717 H   0  0  0  0  0  0  0  0  0  0  0  0
    6.8392   -1.4167    2.2494 H   0  0  0  0  0  0  0  0  0  0  0  0
    5.2197   -0.2511    1.0684 H   0  0  0  0  0  0  0  0  0  0  0  0
    4.2229    0.0996   -0.8969 H   0  0  0  0  0  0  0  0  0  0  0  0
    4.9187   -0.8199   -2.1983 H   0  0  0  0  0  0  0  0  0  0  0  0
    5.9008   -0.3250   -0.9012 H   0  0  0  0  0  0  0  0  0  0  0  0
    2.3901   -2.0183    0.1160 H   0  0  0  0  0  0  0  0  0  0  0  0
    3.3926   -4.5384   -0.9453 H   0  0  0  0  0  0  0  0  0  0  0  0
    3.2512   -6.7185    1.3623 H   0  0  0  0  0  0  0  0  0  0  0  0
    3.7725   -6.4166   -0.2960 H   0  0  0  0  0  0  0  0  0  0  0  0
    2.9321   -5.0046    2.8220 H   0  0  0  0  0  0  0  0  0  0  0  0
    4.5446   -5.5950    2.9791 H   0  0  0  0  0  0  0  0  0  0  0  0
    2.8893   -2.6248    2.2182 H   0  0  0  0  0  0  0  0  0  0  0  0
    3.0074   -2.1090    3.8658 H   0  0  0  0  0  0  0  0  0  0  0  0
    5.7186    0.1539    3.3785 H   0  0  0  0  0  0  0  0  0  0  0  0
    4.1345   -1.3029    5.5299 H   0  0  0  0  0  0  0  0  0  0  0  0
    5.1782    0.0711    5.7355 H   0  0  0  0  0  0  0  0  0  0  0  0
    5.8498   -1.4720    5.2327 H   0  0  0  0  0  0  0  0  0  0  0  0
    2.6907    0.1945    3.7500 H   0  0  0  0  0  0  0  0  0  0  0  0
    3.6036    1.0642    2.5085 H   0  0  0  0  0  0  0  0  0  0  0  0
    3.8241    1.4612    4.2111 H   0  0  0  0  0  0  0  0  0  0  0  0
  1  2  1  0
  1 25  1  0
  1 26  1  0
  1 27  1  0
  2 13  1  0
  2  3  1  0
  2 28  1  6
  3  4  2  0
  3  5  1  0
  5  6  2  0
  5 29  1  0
  6 11  1  0
  6  7  1  0
  7 17  1  0
  7  8  1  0
  7 30  1  6
  8  9  1  0
  8 31  1  0
  8 32  1  0
  9 21  1  0
  9 10  1  0
  9 33  1  1
 10 21  1  0
 10 11  1  0
 10 34  1  6
 11 12  1  6
 11 13  1  0
 12 35  1  0
 12 36  1  0
 12 37  1  0
 13 14  1  0
 13 38  1  1
 14 17  1  0
 14 15  1  0
 14 39  1  6
 15 16  1  0
 17 16  1  6
 16 40  1  0
 16 41  1  0
 17 18  1  0
 18 19  1  0
 18 42  1  0
 18 43  1  0
 19 20  1  0
 20 21  1  0
 20 44  1  0
 20 45  1  0
 21 22  1  1
 22 23  1  0
 22 24  1  0
 22 46  1  0
 23 47  1  0
 23 48  1  0
 23 49  1  0
 24 50  1  0
 24 51  1  0
 24 52  1  0
M  END
>  <i_m_ct_stereo_status>  (318) 
1

>  <s_m_source_file>  (318) 
/var/tmp/pbs.5076255.sched01/tmphrhi8tfx/132_dydaaau.sdf

>  <i_m_source_file_index>  (318) 
19

>  <i_lp_mmshare_version>  (318) 
48012

>  <i_f3d_flags>  (318) 
0

>  <s_epik_input>  (318) 
Tz1DKFtDSF09MSlbQ0BASF0oW0NIM10pW0NAQEhdKFtDQEBIXTJPW0NIMl0zKVtDQF0oW0NIM10pKEMxW0NAQEhdNFtDQEBdMjM1KVtDQEBIXTZbQ0BIXShbQ0gyXTQpW0NAXTYoW0NIXShbQ0gzXSlbQ0gzXSlbQ0gyXU9bQ0gyXTU=

>  <s_epik_cmdline>  (318) 
J2VwaWtfcHl0aG9uJywgJy1waHQnLCAnMi4wJywgJy1waCcsICc3LjAnLCAnLXRuJywgJzgnLCAnLW1hJywgJzIwMCcsICctaW1hZScsICc8aW5maWxlLm1hZT4nLCAnLW9tYWUnLCAnPG91dGZpbGUubWFlPic=

>  <r_lp_tautomer_probability>  (318) 
1

>  <r_epik_Ionization_Penalty>  (318) 
1.06169e-11

>  <r_epik_Ionization_Penalty_Charging>  (318) 
0

>  <r_epik_Ionization_Penalty_Neutral>  (318) 
1.06169e-11

>  <r_epik_State_Penalty>  (318) 
-0

>  <r_epik_Charging_Adjusted_Penalty>  (318) 
0

>  <i_epik_Tot_Q>  (318) 
0

>  <i_epik_Tot_abs_Q>  (318) 
0

>  <s_lp_Force_Field>  (318) 
OPLS3e

>  <r_lp_Energy>  (318) 
172.863

>  <b_lp_Chiralities_Consistent>  (318) 
1

>  <s_lp_Variant>  (318) 
101:0-2

>  <s_i_glide_gridfile>  (318) 
pfpi4k_grid

>  <i_i_glide_lignum>  (318) 
19

>  <i_i_glide_rotatable_bonds>  (318) 
1

>  <r_i_docking_score>  (318) 
-3.52408

>  <r_i_glide_ligand_efficiency>  (318) 
-0.146837

>  <r_i_glide_ligand_efficiency_sa>  (318) 
-0.423551

>  <r_i_glide_ligand_efficiency_ln>  (318) 
-0.843475

>  <r_i_glide_gscore>  (318) 
-3.52408

>  <r_i_glide_lipo>  (318) 
-0.714081

>  <r_i_glide_hbond>  (318) 
-0.078911

>  <r_i_glide_metal>  (318) 
-0

>  <r_i_glide_rewards>  (318) 
-1.16969

>  <r_i_glide_evdw>  (318) 
-18.6083

>  <r_i_glide_ecoul>  (318) 
-4.17339

>  <r_i_glide_erotb>  (318) 
0

>  <r_i_glide_esite>  (318) 
-0.0049756

>  <r_i_glide_emodel>  (318) 
-27.2857

>  <r_i_glide_energy>  (318) 
-22.7817

>  <r_i_glide_einternal>  (318) 
0.295781

>  <r_i_glide_intrahb_reward>  (318) 
-0

>  <i_i_glide_confnum>  (318) 
2

>  <i_i_glide_posenum>  (318) 
24

>  <r_i_glide_eff_state_penalty>  (318) 
0

>  <ligand_id>  (318) 
101

>  <original_smiles>  (318) 
CC1C(=O)C=C2C3CC4C5C2(C)C1C1OCC31COCC45C(C)C

>  <smiles>  (318) 
[H]C1=C2C3([H])C([H])([H])C4([H])C5([H])C2(C([H])([H])[H])C([H])(C2([H])OC([H])([H])C23C([H])([H])OC([H])([H])C45C([H])(C([H])([H])[H])C([H])([H])[H])C([H])(C([H])([H])[H])C1=O

$$$$
101:1:1
     RDKit          3D

 52 57  0  0  1  0  0  0  0  0999 V2000
    2.2237   -3.0619   -2.3090 C   0  0  0  0  0  0  0  0  0  0  0  0
    3.2117   -2.5534   -1.2371 C   0  0  2  0  0  0  0  0  0  0  0  0
    4.6855   -3.0858   -1.4893 C   0  0  0  0  0  0  0  0  0  0  0  0
    5.1648   -3.0436   -2.6204 O   0  0  0  0  0  0  0  0  0  0  0  0
    5.4375   -3.6392   -0.3006 C   0  0  0  0  0  0  0  0  0  0  0  0
    4.9379   -3.3796    0.9415 C   0  0  0  0  0  0  0  0  0  0  0  0
    4.6588   -4.5583    1.9245 C   0  0  1  0  0  0  0  0  0  0  0  0
    4.9544   -4.0394    3.3488 C   0  0  0  0  0  0  0  0  0  0  0  0
    4.3793   -2.6514    3.7001 C   0  0  1  0  0  0  0  0  0  0  0  0
    3.7614   -1.7748    2.6172 C   0  0  1  0  0  0  0  0  0  0  0  0
    3.9494   -2.2197    1.1252 C   0  0  1  0  0  0  0  0  0  0  0  0
    4.5675   -0.8662    0.5732 C   0  0  0  0  0  0  0  0  0  0  0  0
    2.7334   -2.8082    0.2576 C   0  0  2  0  0  0  0  0  0  0  0  0
    2.6108   -4.3834    0.4682 C   0  0  2  0  0  0  0  0  0  0  0  0
    1.6412   -5.4279    0.2895 O   0  0  0  0  0  0  0  0  0  0  0  0
    2.7004   -6.3016    0.8513 C   0  0  0  0  0  0  0  0  0  0  0  0
    3.1744   -5.0936    1.7214 C   0  0  1  0  0  0  0  0  0  0  0  0
    2.3659   -5.3705    3.0270 C   0  0  0  0  0  0  0  0  0  0  0  0
    2.2654   -4.4119    4.0420 O   0  0  0  0  0  0  0  0  0  0  0  0
    1.7780   -3.1851    3.5875 C   0  0  0  0  0  0  0  0  0  0  0  0
    2.9130   -2.2242    3.7929 C   0  0  1  0  0  0  0  0  0  0  0  0
    2.5542   -1.1827    4.8863 C   0  0  0  0  0  0  0  0  0  0  0  0
    2.3474   -1.7952    6.2851 C   0  0  0  0  0  0  0  0  0  0  0  0
    1.3683   -0.2605    4.5186 C   0  0  0  0  0  0  0  0  0  0  0  0
    2.4806   -2.6706   -3.2940 H   0  0  0  0  0  0  0  0  0  0  0  0
    1.2063   -2.7450   -2.0943 H   0  0  0  0  0  0  0  0  0  0  0  0
    2.1989   -4.1478   -2.3777 H   0  0  0  0  0  0  0  0  0  0  0  0
    3.2289   -1.4756   -1.3962 H   0  0  0  0  0  0  0  0  0  0  0  0
    5.9649   -4.5606   -0.4857 H   0  0  0  0  0  0  0  0  0  0  0  0
    5.3562   -5.3669    1.7043 H   0  0  0  0  0  0  0  0  0  0  0  0
    4.6979   -4.7598    4.1232 H   0  0  0  0  0  0  0  0  0  0  0  0
    6.0365   -3.9670    3.4148 H   0  0  0  0  0  0  0  0  0  0  0  0
    5.0503   -2.1230    4.3750 H   0  0  0  0  0  0  0  0  0  0  0  0
    3.9662   -0.7149    2.7567 H   0  0  0  0  0  0  0  0  0  0  0  0
    3.8195   -0.0717    0.5760 H   0  0  0  0  0  0  0  0  0  0  0  0
    5.0116   -0.8486   -0.4182 H   0  0  0  0  0  0  0  0  0  0  0  0
    5.3966   -0.5285    1.1993 H   0  0  0  0  0  0  0  0  0  0  0  0
    1.8193   -2.2760    0.4870 H   0  0  0  0  0  0  0  0  0  0  0  0
    3.2248   -4.6672   -0.3861 H   0  0  0  0  0  0  0  0  0  0  0  0
    2.2978   -7.1650    1.3822 H   0  0  0  0  0  0  0  0  0  0  0  0
    3.4218   -6.6355    0.1015 H   0  0  0  0  0  0  0  0  0  0  0  0
    1.3288   -5.6300    2.7897 H   0  0  0  0  0  0  0  0  0  0  0  0
    2.7669   -6.2592    3.5072 H   0  0  0  0  0  0  0  0  0  0  0  0
    1.4480   -3.1695    2.5516 H   0  0  0  0  0  0  0  0  0  0  0  0
    0.9099   -2.9242    4.1850 H   0  0  0  0  0  0  0  0  0  0  0  0
    3.4163   -0.5208    4.9921 H   0  0  0  0  0  0  0  0  0  0  0  0
    1.4798   -2.4515    6.3262 H   0  0  0  0  0  0  0  0  0  0  0  0
    2.1835   -1.0124    7.0269 H   0  0  0  0  0  0  0  0  0  0  0  0
    3.2190   -2.3642    6.6039 H   0  0  0  0  0  0  0  0  0  0  0  0
    0.4292   -0.8012    4.3946 H   0  0  0  0  0  0  0  0  0  0  0  0
    1.5562    0.3003    3.6007 H   0  0  0  0  0  0  0  0  0  0  0  0
    1.1965    0.4702    5.3134 H   0  0  0  0  0  0  0  0  0  0  0  0
  1  2  1  0
  1 25  1  0
  1 26  1  0
  1 27  1  0
  2 13  1  0
  2  3  1  0
  2 28  1  1
  3  4  2  0
  3  5  1  0
  5  6  2  0
  5 29  1  0
  6 11  1  0
  6  7  1  0
  7 17  1  0
  7  8  1  0
  7 30  1  6
  8  9  1  0
  8 31  1  0
  8 32  1  0
  9 21  1  0
  9 10  1  0
  9 33  1  1
 10 21  1  0
 10 11  1  0
 10 34  1  6
 11 12  1  6
 11 13  1  0
 12 35  1  0
 12 36  1  0
 12 37  1  0
 13 14  1  0
 13 38  1  1
 14 17  1  0
 14 15  1  0
 14 39  1  6
 15 16  1  0
 17 16  1  6
 16 40  1  0
 16 41  1  0
 17 18  1  0
 18 19  1  0
 18 42  1  0
 18 43  1  0
 19 20  1  0
 20 21  1  0
 20 44  1  0
 20 45  1  0
 21 22  1  1
 22 23  1  0
 22 24  1  0
 22 46  1  0
 23 47  1  0
 23 48  1  0
 23 49  1  0
 24 50  1  0
 24 51  1  0
 24 52  1  0
M  END
>  <i_m_ct_stereo_status>  (319) 
1

>  <s_m_source_file>  (319) 
/var/tmp/pbs.5076255.sched01/tmphrhi8tfx/132_dydaaau.sdf

>  <i_m_source_file_index>  (319) 
19

>  <i_lp_mmshare_version>  (319) 
48012

>  <i_f3d_flags>  (319) 
0

>  <s_epik_input>  (319) 
Tz1DKFtDSF09MSlbQ0BASF0oW0NIM10pW0NAQEhdKFtDQEBIXTJPW0NIMl0zKVtDQF0oW0NIM10pKEMxW0NAQEhdNFtDQEBdMjM1KVtDQEBIXTZbQ0BIXShbQ0gyXTQpW0NAXTYoW0NIXShbQ0gzXSlbQ0gzXSlbQ0gyXU9bQ0gyXTU=

>  <s_epik_cmdline>  (319) 
J2VwaWtfcHl0aG9uJywgJy1waHQnLCAnMi4wJywgJy1waCcsICc3LjAnLCAnLXRuJywgJzgnLCAnLW1hJywgJzIwMCcsICctaW1hZScsICc8aW5maWxlLm1hZT4nLCAnLW9tYWUnLCAnPG91dGZpbGUubWFlPic=

>  <r_lp_tautomer_probability>  (319) 
1

>  <r_epik_Ionization_Penalty>  (319) 
1.06169e-11

>  <r_epik_Ionization_Penalty_Charging>  (319) 
0

>  <r_epik_Ionization_Penalty_Neutral>  (319) 
1.06169e-11

>  <r_epik_State_Penalty>  (319) 
-0

>  <r_epik_Charging_Adjusted_Penalty>  (319) 
0

>  <i_epik_Tot_Q>  (319) 
0

>  <i_epik_Tot_abs_Q>  (319) 
0

>  <s_lp_Force_Field>  (319) 
OPLS3e

>  <r_lp_Energy>  (319) 
172.863

>  <b_lp_Chiralities_Consistent>  (319) 
1

>  <s_lp_Variant>  (319) 
101:0-2

>  <s_i_glide_gridfile>  (319) 
pfpi4k_grid

>  <i_i_glide_lignum>  (319) 
19

>  <i_i_glide_rotatable_bonds>  (319) 
1

>  <r_i_docking_score>  (319) 
-3.06384

>  <r_i_glide_ligand_efficiency>  (319) 
-0.12766

>  <r_i_glide_ligand_efficiency_sa>  (319) 
-0.368235

>  <r_i_glide_ligand_efficiency_ln>  (319) 
-0.733317

>  <r_i_glide_gscore>  (319) 
-3.06384

>  <r_i_glide_lipo>  (319) 
-0.324213

>  <r_i_glide_hbond>  (319) 
-0.108972

>  <r_i_glide_metal>  (319) 
-0

>  <r_i_glide_rewards>  (319) 
-1.16994

>  <r_i_glide_evdw>  (319) 
-16.5848

>  <r_i_glide_ecoul>  (319) 
-4.20981

>  <r_i_glide_erotb>  (319) 
0

>  <r_i_glide_esite>  (319) 
0

>  <r_i_glide_emodel>  (319) 
-24.9058

>  <r_i_glide_energy>  (319) 
-20.7946

>  <r_i_glide_einternal>  (319) 
0.00935704

>  <r_i_glide_intrahb_reward>  (319) 
-0

>  <i_i_glide_confnum>  (319) 
1

>  <i_i_glide_posenum>  (319) 
16

>  <r_i_glide_eff_state_penalty>  (319) 
0

>  <ligand_id>  (319) 
101

>  <original_smiles>  (319) 
CC1C(=O)C=C2C3CC4C5C2(C)C1C1OCC31COCC45C(C)C

>  <smiles>  (319) 
[H]C1=C2C3([H])C([H])([H])C4([H])C5([H])C2(C([H])([H])[H])C([H])(C2([H])OC([H])([H])C23C([H])([H])OC([H])([H])C45C([H])(C([H])([H])[H])C([H])([H])[H])C([H])(C([H])([H])[H])C1=O

$$$$
101:1:2
     RDKit          3D

 52 57  0  0  1  0  0  0  0  0999 V2000
    2.6335   -2.7801   -2.5268 C   0  0  0  0  0  0  0  0  0  0  0  0
    3.6295   -2.3937   -1.4127 C   0  0  2  0  0  0  0  0  0  0  0  0
    5.0541   -3.0477   -1.6476 C   0  0  0  0  0  0  0  0  0  0  0  0
    5.5571   -3.0227   -2.7705 O   0  0  0  0  0  0  0  0  0  0  0  0
    5.7240   -3.6997   -0.4650 C   0  0  0  0  0  0  0  0  0  0  0  0
    5.2255   -3.4431    0.7754 C   0  0  0  0  0  0  0  0  0  0  0  0
    4.8163   -4.6274    1.7052 C   0  0  1  0  0  0  0  0  0  0  0  0
    5.1222   -4.1953    3.1534 C   0  0  0  0  0  0  0  0  0  0  0  0
    4.6746   -2.7733    3.5406 C   0  0  1  0  0  0  0  0  0  0  0  0
    4.1590   -1.8029    2.4815 C   0  0  1  0  0  0  0  0  0  0  0  0
    4.3360   -2.2052    0.9777 C   0  0  1  0  0  0  0  0  0  0  0  0
    5.0789   -0.8935    0.4849 C   0  0  0  0  0  0  0  0  0  0  0  0
    3.0959   -2.6546    0.0653 C   0  0  2  0  0  0  0  0  0  0  0  0
    2.8354   -4.2162    0.2101 C   0  0  2  0  0  0  0  0  0  0  0  0
    1.7849   -5.1541   -0.0271 O   0  0  0  0  0  0  0  0  0  0  0  0
    2.7417   -6.1447    0.5228 C   0  0  0  0  0  0  0  0  0  0  0  0
    3.2972   -5.0200    1.4477 C   0  0  1  0  0  0  0  0  0  0  0  0
    2.4247   -5.2678    2.7215 C   0  0  0  0  0  0  0  0  0  0  0  0
    2.3828   -4.3413    3.7726 O   0  0  0  0  0  0  0  0  0  0  0  0
    2.0336   -3.0554    3.3538 C   0  0  0  0  0  0  0  0  0  0  0  0
    3.2516   -2.2134    3.6214 C   0  0  1  0  0  0  0  0  0  0  0  0
    2.9007   -1.1699    4.7235 C   0  0  0  0  0  0  0  0  0  0  0  0
    1.9548   -0.0677    4.2024 C   0  0  0  0  0  0  0  0  0  0  0  0
    4.0962   -0.5060    5.4533 C   0  0  0  0  0  0  0  0  0  0  0  0
    2.9456   -2.3810   -3.4916 H   0  0  0  0  0  0  0  0  0  0  0  0
    1.6405   -2.3819   -2.3281 H   0  0  0  0  0  0  0  0  0  0  0  0
    2.5265   -3.8540   -2.6400 H   0  0  0  0  0  0  0  0  0  0  0  0
    3.7437   -1.3189   -1.5385 H   0  0  0  0  0  0  0  0  0  0  0  0
    6.1753   -4.6579   -0.6696 H   0  0  0  0  0  0  0  0  0  0  0  0
    5.4429   -5.4885    1.4673 H   0  0  0  0  0  0  0  0  0  0  0  0
    4.7656   -4.9117    3.8911 H   0  0  0  0  0  0  0  0  0  0  0  0
    6.2079   -4.2350    3.2533 H   0  0  0  0  0  0  0  0  0  0  0  0
    5.4051   -2.3444    4.2146 H   0  0  0  0  0  0  0  0  0  0  0  0
    4.4407   -0.7676    2.6581 H   0  0  0  0  0  0  0  0  0  0  0  0
    4.4028   -0.0369    0.4976 H   0  0  0  0  0  0  0  0  0  0  0  0
    5.5479   -0.8853   -0.4939 H   0  0  0  0  0  0  0  0  0  0  0  0
    5.9171   -0.6490    1.1427 H   0  0  0  0  0  0  0  0  0  0  0  0
    2.2242   -2.0650    0.2992 H   0  0  0  0  0  0  0  0  0  0  0  0
    3.4382   -4.5276   -0.6402 H   0  0  0  0  0  0  0  0  0  0  0  0
    2.2491   -6.9883    1.0087 H   0  0  0  0  0  0  0  0  0  0  0  0
    3.4556   -6.5221   -0.2122 H   0  0  0  0  0  0  0  0  0  0  0  0
    1.3767   -5.4281    2.4454 H   0  0  0  0  0  0  0  0  0  0  0  0
    2.7290   -6.2090    3.1807 H   0  0  0  0  0  0  0  0  0  0  0  0
    1.7305   -2.9711    2.3119 H   0  0  0  0  0  0  0  0  0  0  0  0
    1.1750   -2.7316    3.9421 H   0  0  0  0  0  0  0  0  0  0  0  0
    2.3668   -1.7087    5.5078 H   0  0  0  0  0  0  0  0  0  0  0  0
    2.4402    0.5406    3.4393 H   0  0  0  0  0  0  0  0  0  0  0  0
    1.6499    0.6024    5.0090 H   0  0  0  0  0  0  0  0  0  0  0  0
    1.0431   -0.4766    3.7714 H   0  0  0  0  0  0  0  0  0  0  0  0
    4.7445    0.0543    4.7762 H   0  0  0  0  0  0  0  0  0  0  0  0
    4.7055   -1.2351    5.9925 H   0  0  0  0  0  0  0  0  0  0  0  0
    3.7440    0.2042    6.2072 H   0  0  0  0  0  0  0  0  0  0  0  0
  1  2  1  0
  1 25  1  0
  1 26  1  0
  1 27  1  0
  2 13  1  0
  2  3  1  0
  2 28  1  1
  3  4  2  0
  3  5  1  0
  5  6  2  0
  5 29  1  0
  6 11  1  0
  6  7  1  0
  7 17  1  0
  7  8  1  0
  7 30  1  6
  8  9  1  0
  8 31  1  0
  8 32  1  0
  9 21  1  0
  9 10  1  0
  9 33  1  1
 10 21  1  0
 10 11  1  0
 10 34  1  6
 11 12  1  6
 11 13  1  0
 12 35  1  0
 12 36  1  0
 12 37  1  0
 13 14  1  0
 13 38  1  1
 14 17  1  0
 14 15  1  0
 14 39  1  6
 15 16  1  0
 17 16  1  6
 16 40  1  0
 16 41  1  0
 17 18  1  0
 18 19  1  0
 18 42  1  0
 18 43  1  0
 19 20  1  0
 20 21  1  0
 20 44  1  0
 20 45  1  0
 21 22  1  1
 22 23  1  0
 22 24  1  0
 22 46  1  0
 23 47  1  0
 23 48  1  0
 23 49  1  0
 24 50  1  0
 24 51  1  0
 24 52  1  0
M  END
>  <i_m_ct_stereo_status>  (320) 
1

>  <s_m_source_file>  (320) 
/var/tmp/pbs.5076255.sched01/tmphrhi8tfx/132_dydaaau.sdf

>  <i_m_source_file_index>  (320) 
19

>  <i_lp_mmshare_version>  (320) 
48012

>  <i_f3d_flags>  (320) 
0

>  <s_epik_input>  (320) 
Tz1DKFtDSF09MSlbQ0BASF0oW0NIM10pW0NAQEhdKFtDQEBIXTJPW0NIMl0zKVtDQF0oW0NIM10pKEMxW0NAQEhdNFtDQEBdMjM1KVtDQEBIXTZbQ0BIXShbQ0gyXTQpW0NAXTYoW0NIXShbQ0gzXSlbQ0gzXSlbQ0gyXU9bQ0gyXTU=

>  <s_epik_cmdline>  (320) 
J2VwaWtfcHl0aG9uJywgJy1waHQnLCAnMi4wJywgJy1waCcsICc3LjAnLCAnLXRuJywgJzgnLCAnLW1hJywgJzIwMCcsICctaW1hZScsICc8aW5maWxlLm1hZT4nLCAnLW9tYWUnLCAnPG91dGZpbGUubWFlPic=

>  <r_lp_tautomer_probability>  (320) 
1

>  <r_epik_Ionization_Penalty>  (320) 
1.06169e-11

>  <r_epik_Ionization_Penalty_Charging>  (320) 
0

>  <r_epik_Ionization_Penalty_Neutral>  (320) 
1.06169e-11

>  <r_epik_State_Penalty>  (320) 
-0

>  <r_epik_Charging_Adjusted_Penalty>  (320) 
0

>  <i_epik_Tot_Q>  (320) 
0

>  <i_epik_Tot_abs_Q>  (320) 
0

>  <s_lp_Force_Field>  (320) 
OPLS3e

>  <r_lp_Energy>  (320) 
172.863

>  <b_lp_Chiralities_Consistent>  (320) 
1

>  <s_lp_Variant>  (320) 
101:0-2

>  <s_i_glide_gridfile>  (320) 
pfpi4k_grid

>  <i_i_glide_lignum>  (320) 
19

>  <i_i_glide_rotatable_bonds>  (320) 
1

>  <r_i_docking_score>  (320) 
-2.9723

>  <r_i_glide_ligand_efficiency>  (320) 
-0.123846

>  <r_i_glide_ligand_efficiency_sa>  (320) 
-0.357233

>  <r_i_glide_ligand_efficiency_ln>  (320) 
-0.711407

>  <r_i_glide_gscore>  (320) 
-2.9723

>  <r_i_glide_lipo>  (320) 
-0.315371

>  <r_i_glide_hbond>  (320) 
-0.074323

>  <r_i_glide_metal>  (320) 
-0

>  <r_i_glide_rewards>  (320) 
-1.22426

>  <r_i_glide_evdw>  (320) 
-18.2823

>  <r_i_glide_ecoul>  (320) 
-2.96153

>  <r_i_glide_erotb>  (320) 
0

>  <r_i_glide_esite>  (320) 
0

>  <r_i_glide_emodel>  (320) 
-24.921

>  <r_i_glide_energy>  (320) 
-21.2438

>  <r_i_glide_einternal>  (320) 
0.628049

>  <r_i_glide_intrahb_reward>  (320) 
-0

>  <i_i_glide_confnum>  (320) 
2

>  <i_i_glide_posenum>  (320) 
5

>  <r_i_glide_eff_state_penalty>  (320) 
0

>  <ligand_id>  (320) 
101

>  <original_smiles>  (320) 
CC1C(=O)C=C2C3CC4C5C2(C)C1C1OCC31COCC45C(C)C

>  <smiles>  (320) 
[H]C1=C2C3([H])C([H])([H])C4([H])C5([H])C2(C([H])([H])[H])C([H])(C2([H])OC([H])([H])C23C([H])([H])OC([H])([H])C45C([H])(C([H])([H])[H])C([H])([H])[H])C([H])(C([H])([H])[H])C1=O

$$$$
103:0:0
     RDKit          3D

 41 44  0  0  1  0  0  0  0  0999 V2000
    5.8028   -2.5171   -2.2286 C   0  0  0  0  0  0  0  0  0  0  0  0
    5.9858   -3.2704   -0.9240 C   0  0  0  0  0  0  0  0  0  0  0  0
    7.1788   -3.4925   -0.5309 N   0  0  0  0  0  0  0  0  0  0  0  0
    7.4626   -4.3031    0.5299 C   0  0  0  0  0  0  0  0  0  0  0  0
    8.6504   -4.7173    0.9610 N   0  0  0  0  0  0  0  0  0  0  0  0
    8.2829   -5.4959    2.0285 C   0  0  0  0  0  0  0  0  0  0  0  0
    6.9759   -5.6009    2.2460 N   0  0  0  0  0  0  0  0  0  0  0  0
    6.4591   -4.8086    1.2727 N   0  0  0  0  0  0  0  0  0  0  0  0
    5.0215   -4.6334    1.0958 C   0  0  1  0  0  0  0  0  0  0  0  0
    4.3523   -4.1606    2.3892 C   0  0  0  0  0  0  0  0  0  0  0  0
    4.8638   -3.3016    3.3274 C   0  0  0  0  0  0  0  0  0  0  0  0
    3.9268   -3.1389    4.3201 N   0  0  0  0  0  0  0  0  0  0  0  0
    3.9872   -2.3043    5.5079 C   0  0  0  0  0  0  0  0  0  0  0  0
    2.8339   -3.8878    4.0854 N   0  0  0  0  0  0  0  0  0  0  0  0
    3.0755   -4.5168    2.9397 C   0  0  0  0  0  0  0  0  0  0  0  0
    2.0483   -5.4307    2.4218 C   0  0  0  0  0  0  0  0  0  0  0  0
    1.1746   -6.1258    3.2907 C   0  0  0  0  0  0  0  0  0  0  0  0
    0.2123   -6.9865    2.7269 C   0  0  0  0  0  0  0  0  0  0  0  0
    0.1367   -7.1021    1.3293 C   0  0  0  0  0  0  0  0  0  0  0  0
    0.9157   -6.3931    0.4913 N   0  0  0  0  0  0  0  0  0  0  0  0
    1.8758   -5.6279    1.0380 C   0  0  0  0  0  0  0  0  0  0  0  0
    4.7161   -3.7945   -0.2099 C   0  0  1  0  0  0  0  0  0  0  0  0
    3.6953   -2.6368   -0.0440 C   0  0  0  0  0  0  0  0  0  0  0  0
    2.6168   -2.6632   -0.8294 N   0  0  0  0  0  0  0  0  0  0  0  0
    3.8784   -1.7286    0.7617 O   0  0  0  0  0  0  0  0  0  0  0  0
    5.2316   -3.0945   -2.9560 H   0  0  0  0  0  0  0  0  0  0  0  0
    6.7869   -2.3668   -2.6609 H   0  0  0  0  0  0  0  0  0  0  0  0
    5.3467   -1.5415   -2.0665 H   0  0  0  0  0  0  0  0  0  0  0  0
    8.9929   -5.9872    2.6840 H   0  0  0  0  0  0  0  0  0  0  0  0
    4.6706   -5.6467    0.8967 H   0  0  0  0  0  0  0  0  0  0  0  0
    5.8114   -2.7931    3.3687 H   0  0  0  0  0  0  0  0  0  0  0  0
    4.9564   -1.8135    5.5707 H   0  0  0  0  0  0  0  0  0  0  0  0
    3.8416   -2.9080    6.4043 H   0  0  0  0  0  0  0  0  0  0  0  0
    3.2119   -1.5381    5.4676 H   0  0  0  0  0  0  0  0  0  0  0  0
    1.2545   -6.0247    4.3622 H   0  0  0  0  0  0  0  0  0  0  0  0
   -0.4494   -7.5711    3.3485 H   0  0  0  0  0  0  0  0  0  0  0  0
   -0.5744   -7.7603    0.8518 H   0  0  0  0  0  0  0  0  0  0  0  0
    2.4686   -5.1107    0.3061 H   0  0  0  0  0  0  0  0  0  0  0  0
    4.2797   -4.5116   -0.9114 H   0  0  0  0  0  0  0  0  0  0  0  0
    2.5003   -3.3657   -1.5429 H   0  0  0  0  0  0  0  0  0  0  0  0
    1.9127   -1.9065   -0.7340 H   0  0  0  0  0  0  0  0  0  0  0  0
  1  2  1  0
  1 26  1  0
  1 27  1  0
  1 28  1  0
  2 22  1  0
  2  3  2  0
  3  4  1  0
  4  8  1  0
  4  5  2  0
  5  6  1  0
  6  7  2  0
  6 29  1  0
  7  8  1  0
  8  9  1  0
  9 10  1  0
  9 22  1  0
  9 30  1  6
 10 15  1  0
 10 11  2  0
 11 12  1  0
 11 31  1  0
 12 13  1  0
 12 14  1  0
 13 32  1  0
 13 33  1  0
 13 34  1  0
 14 15  2  0
 15 16  1  0
 16 21  1  0
 16 17  2  0
 17 18  1  0
 17 35  1  0
 18 19  2  0
 18 36  1  0
 19 20  1  0
 19 37  1  0
 20 21  2  0
 21 38  1  0
 22 23  1  0
 22 39  1  6
 23 24  1  0
 23 25  2  0
 24 40  1  0
 24 41  1  0
M  END
>  <i_m_ct_stereo_status>  (321) 
1

>  <s_m_source_file>  (321) 
/var/tmp/pbs.5076255.sched01/tmphrhi8tfx/132_dydaaau.sdf

>  <i_m_source_file_index>  (321) 
21

>  <i_lp_mmshare_version>  (321) 
48012

>  <i_f3d_flags>  (321) 
0

>  <s_epik_input>  (321) 
bjFbY0hdbm4oYzEyKVtDQEhdKFtDQEhdKEMoPU4yKVtDSDNdKUMoPU8pW05IMl0pYzNbY0hdbihbQ0gzXSluYzMtYzRbY0hdW2NIXVtjSF1uW2NIXTQ=

>  <s_epik_cmdline>  (321) 
J2VwaWtfcHl0aG9uJywgJy1waHQnLCAnMi4wJywgJy1waCcsICc3LjAnLCAnLXRuJywgJzgnLCAnLW1hJywgJzIwMCcsICctaW1hZScsICc8aW5maWxlLm1hZT4nLCAnLW9tYWUnLCAnPG91dGZpbGUubWFlPic=

>  <r_lp_tautomer_probability>  (321) 
0.999601

>  <r_epik_Ionization_Penalty>  (321) 
0.00307781

>  <r_epik_Ionization_Penalty_Charging>  (321) 
0

>  <r_epik_Ionization_Penalty_Neutral>  (321) 
0.00307781

>  <r_epik_State_Penalty>  (321) 
0.00215052

>  <r_epik_Charging_Adjusted_Penalty>  (321) 
0.00215052

>  <i_epik_Tot_Q>  (321) 
0

>  <i_epik_Tot_abs_Q>  (321) 
0

>  <s_epik_Chemistry_Notes>  (321) 
This compound has an imine and may undergo hydrolysis.

>  <s_lp_Force_Field>  (321) 
OPLS3e

>  <r_lp_Energy>  (321) 
30.6974

>  <b_lp_Chiralities_Consistent>  (321) 
1

>  <s_lp_Variant>  (321) 
103:0-1

>  <s_i_glide_gridfile>  (321) 
pfpi4k_grid

>  <i_i_glide_lignum>  (321) 
21

>  <i_i_glide_rotatable_bonds>  (321) 
3

>  <r_i_docking_score>  (321) 
-4.57768

>  <r_i_glide_ligand_efficiency>  (321) 
-0.183107

>  <r_i_glide_ligand_efficiency_sa>  (321) 
-0.535409

>  <r_i_glide_ligand_efficiency_ln>  (321) 
-1.08505

>  <r_i_glide_gscore>  (321) 
-4.57768

>  <r_i_glide_lipo>  (321) 
-0.119967

>  <r_i_glide_hbond>  (321) 
-0.362761

>  <r_i_glide_metal>  (321) 
-0

>  <r_i_glide_rewards>  (321) 
-1.58076

>  <r_i_glide_evdw>  (321) 
-22.0992

>  <r_i_glide_ecoul>  (321) 
-11.0574

>  <r_i_glide_erotb>  (321) 
0.333862

>  <r_i_glide_esite>  (321) 
-0.0844828

>  <r_i_glide_emodel>  (321) 
-42.8449

>  <r_i_glide_energy>  (321) 
-33.1566

>  <r_i_glide_einternal>  (321) 
0.441364

>  <r_i_glide_intrahb_reward>  (321) 
-0

>  <i_i_glide_confnum>  (321) 
5

>  <i_i_glide_posenum>  (321) 
1

>  <r_i_glide_eff_state_penalty>  (321) 
0

>  <ligand_id>  (321) 
103

>  <original_smiles>  (321) 
CC1=Nc2ncnn2C(c2cn(C)nc2-c2cccnc2)C1C(N)=O

>  <smiles>  (321) 
[H]c1nc2n(n1)C([H])(c1c(-c3c([H])nc([H])c([H])c3[H])nn(C([H])([H])[H])c1[H])C([H])(C(=O)N([H])[H])C(C([H])([H])[H])=N2

$$$$
103:0:1
     RDKit          3D

 41 44  0  0  1  0  0  0  0  0999 V2000
    6.3272   -2.6296   -2.0088 C   0  0  0  0  0  0  0  0  0  0  0  0
    6.4002   -3.4189   -0.7195 C   0  0  0  0  0  0  0  0  0  0  0  0
    7.5525   -3.7544   -0.2829 N   0  0  0  0  0  0  0  0  0  0  0  0
    7.7174   -4.5728    0.7944 C   0  0  0  0  0  0  0  0  0  0  0  0
    8.8528   -5.0767    1.2763 N   0  0  0  0  0  0  0  0  0  0  0  0
    8.3697   -5.8456    2.3028 C   0  0  0  0  0  0  0  0  0  0  0  0
    7.0462   -5.8433    2.4561 N   0  0  0  0  0  0  0  0  0  0  0  0
    6.6478   -4.9910    1.4825 N   0  0  0  0  0  0  0  0  0  0  0  0
    5.2425   -4.7116    1.2253 C   0  0  1  0  0  0  0  0  0  0  0  0
    4.5448   -4.2366    2.5054 C   0  0  0  0  0  0  0  0  0  0  0  0
    4.9575   -3.2523    3.3555 C   0  0  0  0  0  0  0  0  0  0  0  0
    4.0215   -3.1106    4.3565 N   0  0  0  0  0  0  0  0  0  0  0  0
    3.9998   -2.1698    5.4622 C   0  0  0  0  0  0  0  0  0  0  0  0
    3.0205   -3.9942    4.2023 N   0  0  0  0  0  0  0  0  0  0  0  0
    3.3252   -4.6989    3.1160 C   0  0  0  0  0  0  0  0  0  0  0  0
    2.4204   -5.7855    2.7160 C   0  0  0  0  0  0  0  0  0  0  0  0
    2.9039   -6.9769    2.1277 C   0  0  0  0  0  0  0  0  0  0  0  0
    1.9878   -7.9509    1.7041 C   0  0  0  0  0  0  0  0  0  0  0  0
    0.6156   -7.7441    1.9434 C   0  0  0  0  0  0  0  0  0  0  0  0
    0.1292   -6.6280    2.5316 N   0  0  0  0  0  0  0  0  0  0  0  0
    1.0170   -5.6865    2.9158 C   0  0  0  0  0  0  0  0  0  0  0  0
    5.0623   -3.8387   -0.0706 C   0  0  1  0  0  0  0  0  0  0  0  0
    4.1079   -2.6250    0.0581 C   0  0  0  0  0  0  0  0  0  0  0  0
    3.0162   -2.6125   -0.7179 N   0  0  0  0  0  0  0  0  0  0  0  0
    4.3504   -1.6879    0.8259 O   0  0  0  0  0  0  0  0  0  0  0  0
    5.7461   -3.1580   -2.7694 H   0  0  0  0  0  0  0  0  0  0  0  0
    7.3422   -2.5259   -2.3927 H   0  0  0  0  0  0  0  0  0  0  0  0
    5.9161   -1.6286   -1.8517 H   0  0  0  0  0  0  0  0  0  0  0  0
    9.0081   -6.4051    2.9834 H   0  0  0  0  0  0  0  0  0  0  0  0
    4.8432   -5.6621    0.8994 H   0  0  0  0  0  0  0  0  0  0  0  0
    5.8351   -2.6161    3.3250 H   0  0  0  0  0  0  0  0  0  0  0  0
    4.9029   -1.5560    5.4505 H   0  0  0  0  0  0  0  0  0  0  0  0
    3.9531   -2.7035    6.4116 H   0  0  0  0  0  0  0  0  0  0  0  0
    3.1338   -1.5120    5.3792 H   0  0  0  0  0  0  0  0  0  0  0  0
    3.9624   -7.1689    2.0123 H   0  0  0  0  0  0  0  0  0  0  0  0
    2.3399   -8.8541    1.2297 H   0  0  0  0  0  0  0  0  0  0  0  0
   -0.1049   -8.5068    1.6871 H   0  0  0  0  0  0  0  0  0  0  0  0
    0.5863   -4.8209    3.3980 H   0  0  0  0  0  0  0  0  0  0  0  0
    4.5896   -4.5113   -0.7905 H   0  0  0  0  0  0  0  0  0  0  0  0
    2.8491   -3.3541   -1.3842 H   0  0  0  0  0  0  0  0  0  0  0  0
    2.3427   -1.8507   -0.6533 H   0  0  0  0  0  0  0  0  0  0  0  0
  1  2  1  0
  1 26  1  0
  1 27  1  0
  1 28  1  0
  2 22  1  0
  2  3  2  0
  3  4  1  0
  4  8  1  0
  4  5  2  0
  5  6  1  0
  6  7  2  0
  6 29  1  0
  7  8  1  0
  8  9  1  0
  9 10  1  0
  9 22  1  0
  9 30  1  6
 10 15  1  0
 10 11  2  0
 11 12  1  0
 11 31  1  0
 12 13  1  0
 12 14  1  0
 13 32  1  0
 13 33  1  0
 13 34  1  0
 14 15  2  0
 15 16  1  0
 16 21  1  0
 16 17  2  0
 17 18  1  0
 17 35  1  0
 18 19  2  0
 18 36  1  0
 19 20  1  0
 19 37  1  0
 20 21  2  0
 21 38  1  0
 22 23  1  0
 22 39  1  6
 23 24  1  0
 23 25  2  0
 24 40  1  0
 24 41  1  0
M  END
>  <i_m_ct_stereo_status>  (322) 
1

>  <s_m_source_file>  (322) 
/var/tmp/pbs.5076255.sched01/tmphrhi8tfx/132_dydaaau.sdf

>  <i_m_source_file_index>  (322) 
21

>  <i_lp_mmshare_version>  (322) 
48012

>  <i_f3d_flags>  (322) 
0

>  <s_epik_input>  (322) 
bjFbY0hdbm4oYzEyKVtDQEhdKFtDQEhdKEMoPU4yKVtDSDNdKUMoPU8pW05IMl0pYzNbY0hdbihbQ0gzXSluYzMtYzRbY0hdW2NIXVtjSF1uW2NIXTQ=

>  <s_epik_cmdline>  (322) 
J2VwaWtfcHl0aG9uJywgJy1waHQnLCAnMi4wJywgJy1waCcsICc3LjAnLCAnLXRuJywgJzgnLCAnLW1hJywgJzIwMCcsICctaW1hZScsICc8aW5maWxlLm1hZT4nLCAnLW9tYWUnLCAnPG91dGZpbGUubWFlPic=

>  <r_lp_tautomer_probability>  (322) 
0.999601

>  <r_epik_Ionization_Penalty>  (322) 
0.00307781

>  <r_epik_Ionization_Penalty_Charging>  (322) 
0

>  <r_epik_Ionization_Penalty_Neutral>  (322) 
0.00307781

>  <r_epik_State_Penalty>  (322) 
0.00215052

>  <r_epik_Charging_Adjusted_Penalty>  (322) 
0.00215052

>  <i_epik_Tot_Q>  (322) 
0

>  <i_epik_Tot_abs_Q>  (322) 
0

>  <s_epik_Chemistry_Notes>  (322) 
This compound has an imine and may undergo hydrolysis.

>  <s_lp_Force_Field>  (322) 
OPLS3e

>  <r_lp_Energy>  (322) 
30.6974

>  <b_lp_Chiralities_Consistent>  (322) 
1

>  <s_lp_Variant>  (322) 
103:0-1

>  <s_i_glide_gridfile>  (322) 
pfpi4k_grid

>  <i_i_glide_lignum>  (322) 
21

>  <i_i_glide_rotatable_bonds>  (322) 
3

>  <r_i_docking_score>  (322) 
-4.20043

>  <r_i_glide_ligand_efficiency>  (322) 
-0.168017

>  <r_i_glide_ligand_efficiency_sa>  (322) 
-0.491285

>  <r_i_glide_ligand_efficiency_ln>  (322) 
-0.995627

>  <r_i_glide_gscore>  (322) 
-4.20043

>  <r_i_glide_lipo>  (322) 
-0.155874

>  <r_i_glide_hbond>  (322) 
-0.272345

>  <r_i_glide_metal>  (322) 
-0

>  <r_i_glide_rewards>  (322) 
-1.58562

>  <r_i_glide_evdw>  (322) 
-24.4753

>  <r_i_glide_ecoul>  (322) 
-8.08312

>  <r_i_glide_erotb>  (322) 
0.333862

>  <r_i_glide_esite>  (322) 
-0.084214

>  <r_i_glide_emodel>  (322) 
-41.4558

>  <r_i_glide_energy>  (322) 
-32.5585

>  <r_i_glide_einternal>  (322) 
0.158578

>  <r_i_glide_intrahb_reward>  (322) 
-0

>  <i_i_glide_confnum>  (322) 
5

>  <i_i_glide_posenum>  (322) 
34

>  <r_i_glide_eff_state_penalty>  (322) 
0

>  <ligand_id>  (322) 
103

>  <original_smiles>  (322) 
CC1=Nc2ncnn2C(c2cn(C)nc2-c2cccnc2)C1C(N)=O

>  <smiles>  (322) 
[H]c1nc2n(n1)C([H])(c1c(-c3c([H])nc([H])c([H])c3[H])nn(C([H])([H])[H])c1[H])C([H])(C(=O)N([H])[H])C(C([H])([H])[H])=N2

$$$$
103:0:2
     RDKit          3D

 41 44  0  0  1  0  0  0  0  0999 V2000
    4.2992   -1.5082   -1.2341 C   0  0  0  0  0  0  0  0  0  0  0  0
    3.7933   -2.4297   -0.1355 C   0  0  0  0  0  0  0  0  0  0  0  0
    3.9086   -3.6892   -0.2925 N   0  0  0  0  0  0  0  0  0  0  0  0
    3.3972   -4.5903    0.5873 C   0  0  0  0  0  0  0  0  0  0  0  0
    3.4015   -5.9142    0.5004 N   0  0  0  0  0  0  0  0  0  0  0  0
    2.7157   -6.2523    1.6315 C   0  0  0  0  0  0  0  0  0  0  0  0
    2.2801   -5.2343    2.3666 N   0  0  0  0  0  0  0  0  0  0  0  0
    2.7729   -4.1658    1.6987 N   0  0  0  0  0  0  0  0  0  0  0  0
    2.5462   -2.8042    2.1410 C   0  0  1  0  0  0  0  0  0  0  0  0
    3.0181   -2.6187    3.5770 C   0  0  0  0  0  0  0  0  0  0  0  0
    4.2077   -3.0053    4.1313 C   0  0  0  0  0  0  0  0  0  0  0  0
    4.2054   -2.6263    5.4560 N   0  0  0  0  0  0  0  0  0  0  0  0
    5.2549   -2.7770    6.4474 C   0  0  0  0  0  0  0  0  0  0  0  0
    3.0357   -2.0539    5.7988 N   0  0  0  0  0  0  0  0  0  0  0  0
    2.3200   -2.0374    4.6822 C   0  0  0  0  0  0  0  0  0  0  0  0
    0.9762   -1.4591    4.7263 C   0  0  0  0  0  0  0  0  0  0  0  0
    0.6130   -0.4065    3.8628 C   0  0  0  0  0  0  0  0  0  0  0  0
   -0.6897    0.1205    3.9416 C   0  0  0  0  0  0  0  0  0  0  0  0
   -1.5768   -0.4316    4.8800 C   0  0  0  0  0  0  0  0  0  0  0  0
   -1.2520   -1.4401    5.7173 N   0  0  0  0  0  0  0  0  0  0  0  0
    0.0055   -1.9325    5.6375 C   0  0  0  0  0  0  0  0  0  0  0  0
    3.0997   -1.7776    1.0830 C   0  0  1  0  0  0  0  0  0  0  0  0
    3.9553   -0.6242    1.6545 C   0  0  0  0  0  0  0  0  0  0  0  0
    3.3999    0.5906    1.6772 N   0  0  0  0  0  0  0  0  0  0  0  0
    5.1032   -0.8084    2.0595 O   0  0  0  0  0  0  0  0  0  0  0  0
    3.4961   -0.8823   -1.6305 H   0  0  0  0  0  0  0  0  0  0  0  0
    4.6605   -2.1207   -2.0591 H   0  0  0  0  0  0  0  0  0  0  0  0
    5.1308   -0.8848   -0.8984 H   0  0  0  0  0  0  0  0  0  0  0  0
    2.5050   -7.2746    1.9200 H   0  0  0  0  0  0  0  0  0  0  0  0
    1.4658   -2.6828    2.1332 H   0  0  0  0  0  0  0  0  0  0  0  0
    5.0484   -3.5172    3.6859 H   0  0  0  0  0  0  0  0  0  0  0  0
    6.1010   -3.3155    6.0190 H   0  0  0  0  0  0  0  0  0  0  0  0
    4.8873   -3.3338    7.3089 H   0  0  0  0  0  0  0  0  0  0  0  0
    5.6035   -1.7993    6.7810 H   0  0  0  0  0  0  0  0  0  0  0  0
    1.3230   -0.0039    3.1585 H   0  0  0  0  0  0  0  0  0  0  0  0
   -1.0076    0.9242    3.2945 H   0  0  0  0  0  0  0  0  0  0  0  0
   -2.5845   -0.0600    4.9585 H   0  0  0  0  0  0  0  0  0  0  0  0
    0.2329   -2.7280    6.3302 H   0  0  0  0  0  0  0  0  0  0  0  0
    2.2188   -1.2939    0.6749 H   0  0  0  0  0  0  0  0  0  0  0  0
    2.4713    0.7322    1.2990 H   0  0  0  0  0  0  0  0  0  0  0  0
    3.9191    1.3822    2.0485 H   0  0  0  0  0  0  0  0  0  0  0  0
  1  2  1  0
  1 26  1  0
  1 27  1  0
  1 28  1  0
  2 22  1  0
  2  3  2  0
  3  4  1  0
  4  8  1  0
  4  5  2  0
  5  6  1  0
  6  7  2  0
  6 29  1  0
  7  8  1  0
  8  9  1  0
  9 10  1  0
  9 22  1  0
  9 30  1  1
 10 15  1  0
 10 11  2  0
 11 12  1  0
 11 31  1  0
 12 13  1  0
 12 14  1  0
 13 32  1  0
 13 33  1  0
 13 34  1  0
 14 15  2  0
 15 16  1  0
 16 21  1  0
 16 17  2  0
 17 18  1  0
 17 35  1  0
 18 19  2  0
 18 36  1  0
 19 20  1  0
 19 37  1  0
 20 21  2  0
 21 38  1  0
 22 23  1  0
 22 39  1  6
 23 24  1  0
 23 25  2  0
 24 40  1  0
 24 41  1  0
M  END
>  <i_m_ct_stereo_status>  (323) 
1

>  <s_m_source_file>  (323) 
/var/tmp/pbs.5076255.sched01/tmphrhi8tfx/132_dydaaau.sdf

>  <i_m_source_file_index>  (323) 
21

>  <i_lp_mmshare_version>  (323) 
48012

>  <i_f3d_flags>  (323) 
0

>  <s_epik_input>  (323) 
bjFbY0hdbm4oYzEyKVtDQEhdKFtDQEhdKEMoPU4yKVtDSDNdKUMoPU8pW05IMl0pYzNbY0hdbihbQ0gzXSluYzMtYzRbY0hdW2NIXVtjSF1uW2NIXTQ=

>  <s_epik_cmdline>  (323) 
J2VwaWtfcHl0aG9uJywgJy1waHQnLCAnMi4wJywgJy1waCcsICc3LjAnLCAnLXRuJywgJzgnLCAnLW1hJywgJzIwMCcsICctaW1hZScsICc8aW5maWxlLm1hZT4nLCAnLW9tYWUnLCAnPG91dGZpbGUubWFlPic=

>  <r_lp_tautomer_probability>  (323) 
0.999601

>  <r_epik_Ionization_Penalty>  (323) 
0.00307781

>  <r_epik_Ionization_Penalty_Charging>  (323) 
0

>  <r_epik_Ionization_Penalty_Neutral>  (323) 
0.00307781

>  <r_epik_State_Penalty>  (323) 
0.00215052

>  <r_epik_Charging_Adjusted_Penalty>  (323) 
0.00215052

>  <i_epik_Tot_Q>  (323) 
0

>  <i_epik_Tot_abs_Q>  (323) 
0

>  <s_epik_Chemistry_Notes>  (323) 
This compound has an imine and may undergo hydrolysis.

>  <s_lp_Force_Field>  (323) 
OPLS3e

>  <r_lp_Energy>  (323) 
30.6974

>  <b_lp_Chiralities_Consistent>  (323) 
1

>  <s_lp_Variant>  (323) 
103:0-1

>  <s_i_glide_gridfile>  (323) 
pfpi4k_grid

>  <i_i_glide_lignum>  (323) 
21

>  <i_i_glide_rotatable_bonds>  (323) 
3

>  <r_i_docking_score>  (323) 
-3.16815

>  <r_i_glide_ligand_efficiency>  (323) 
-0.126726

>  <r_i_glide_ligand_efficiency_sa>  (323) 
-0.370549

>  <r_i_glide_ligand_efficiency_ln>  (323) 
-0.750947

>  <r_i_glide_gscore>  (323) 
-3.16815

>  <r_i_glide_lipo>  (323) 
-0.00935661

>  <r_i_glide_hbond>  (323) 
-0.32

>  <r_i_glide_metal>  (323) 
-0

>  <r_i_glide_rewards>  (323) 
-1.17332

>  <r_i_glide_evdw>  (323) 
-23.6456

>  <r_i_glide_ecoul>  (323) 
-5.13683

>  <r_i_glide_erotb>  (323) 
0.333862

>  <r_i_glide_esite>  (323) 
-0.0465325

>  <r_i_glide_emodel>  (323) 
-34.97

>  <r_i_glide_energy>  (323) 
-28.7825

>  <r_i_glide_einternal>  (323) 
1.49292

>  <r_i_glide_intrahb_reward>  (323) 
-0

>  <i_i_glide_confnum>  (323) 
2

>  <i_i_glide_posenum>  (323) 
11

>  <r_i_glide_eff_state_penalty>  (323) 
0

>  <ligand_id>  (323) 
103

>  <original_smiles>  (323) 
CC1=Nc2ncnn2C(c2cn(C)nc2-c2cccnc2)C1C(N)=O

>  <smiles>  (323) 
[H]c1nc2n(n1)C([H])(c1c(-c3c([H])nc([H])c([H])c3[H])nn(C([H])([H])[H])c1[H])C([H])(C(=O)N([H])[H])C(C([H])([H])[H])=N2

$$$$
104:0:0
     RDKit          3D

 21 22  0  0  1  0  0  0  0  0999 V2000
   -5.7643   -4.0496   -4.9236 C   0  0  0  0  0  0  0  0  0  0  0  0
   -6.0007   -5.4858   -5.0795 C   0  0  0  0  0  0  0  0  0  0  0  0
   -6.2160   -6.6737   -5.2609 C   0  0  0  0  0  0  0  0  0  0  0  0
   -6.5449   -8.0728   -5.5619 C   0  0  0  0  0  0  0  0  0  0  0  0
   -6.9095   -8.3246   -6.9408 N   0  0  0  0  0  0  0  0  0  0  0  0
   -6.5357   -9.5072   -7.5134 N   0  0  0  0  0  0  0  0  0  0  0  0
   -6.9836   -9.5368   -8.7383 N   0  0  0  0  0  0  0  0  0  0  0  0
   -7.6687   -8.3519   -8.9739 C   0  0  0  0  0  0  0  0  0  0  0  0
   -8.3293   -7.8046  -10.0952 C   0  0  0  0  0  0  0  0  0  0  0  0
   -8.9498   -6.5372   -9.9686 C   0  0  0  0  0  0  0  0  0  0  0  0
   -8.8965   -5.8641   -8.7318 C   0  0  0  0  0  0  0  0  0  0  0  0
   -8.2743   -6.3491   -7.6359 N   0  0  0  0  0  0  0  0  0  0  0  0
   -7.6735   -7.5634   -7.8091 C   0  0  0  0  0  0  0  0  0  0  0  0
   -5.0059   -3.7451   -5.6428 H   0  0  0  0  0  0  0  0  0  0  0  0
   -5.3994   -3.8433   -3.9207 H   0  0  0  0  0  0  0  0  0  0  0  0
   -6.6809   -3.4826   -5.0846 H   0  0  0  0  0  0  0  0  0  0  0  0
   -5.6938   -8.6871   -5.2756 H   0  0  0  0  0  0  0  0  0  0  0  0
   -7.3827   -8.3577   -4.9444 H   0  0  0  0  0  0  0  0  0  0  0  0
   -8.3662   -8.3358  -11.0334 H   0  0  0  0  0  0  0  0  0  0  0  0
   -9.4751   -6.0935  -10.8024 H   0  0  0  0  0  0  0  0  0  0  0  0
   -9.3606   -4.8917   -8.6041 H   0  0  0  0  0  0  0  0  0  0  0  0
  1  2  1  0
  1 14  1  0
  1 15  1  0
  1 16  1  0
  2  3  3  0
  3  4  1  0
  4  5  1  0
  4 17  1  0
  4 18  1  0
  5 13  1  0
  5  6  1  0
  6  7  2  0
  7  8  1  0
  8 13  2  0
  8  9  1  0
  9 10  2  0
  9 19  1  0
 10 11  1  0
 10 20  1  0
 11 12  2  0
 11 21  1  0
 12 13  1  0
M  END
>  <i_m_ct_stereo_status>  (324) 
1

>  <s_m_source_file>  (324) 
/var/tmp/pbs.5076255.sched01/tmphrhi8tfx/132_dydaaau.sdf

>  <i_m_source_file_index>  (324) 
22

>  <i_lp_mmshare_version>  (324) 
48012

>  <i_f3d_flags>  (324) 
0

>  <s_epik_input>  (324) 
W0NIM11DI0NbQ0gyXW4obm4xKWMoYzEyKW5bY0hdW2NIXVtjSF0y

>  <s_epik_cmdline>  (324) 
J2VwaWtfcHl0aG9uJywgJy1waHQnLCAnMi4wJywgJy1waCcsICc3LjAnLCAnLXRuJywgJzgnLCAnLW1hJywgJzIwMCcsICctaW1hZScsICc8aW5maWxlLm1hZT4nLCAnLW9tYWUnLCAnPG91dGZpbGUubWFlPic=

>  <r_lp_tautomer_probability>  (324) 
1

>  <r_epik_Ionization_Penalty>  (324) 
1.92067e-10

>  <r_epik_Ionization_Penalty_Charging>  (324) 
0

>  <r_epik_Ionization_Penalty_Neutral>  (324) 
1.92067e-10

>  <r_epik_State_Penalty>  (324) 
-0

>  <r_epik_Charging_Adjusted_Penalty>  (324) 
0

>  <i_epik_Tot_Q>  (324) 
0

>  <i_epik_Tot_abs_Q>  (324) 
0

>  <s_lp_Force_Field>  (324) 
OPLS3e

>  <r_lp_Energy>  (324) 
10.7062

>  <b_lp_Chiralities_Consistent>  (324) 
1

>  <s_lp_Variant>  (324) 
104:0-1

>  <s_i_glide_gridfile>  (324) 
pfpi4k_grid

>  <i_i_glide_lignum>  (324) 
22

>  <i_i_glide_rotatable_bonds>  (324) 
2

>  <r_i_docking_score>  (324) 
-4.50564

>  <r_i_glide_ligand_efficiency>  (324) 
-0.346588

>  <r_i_glide_ligand_efficiency_sa>  (324) 
-0.814944

>  <r_i_glide_ligand_efficiency_ln>  (324) 
-1.26387

>  <r_i_glide_gscore>  (324) 
-4.50564

>  <r_i_glide_lipo>  (324) 
-1.68848

>  <r_i_glide_hbond>  (324) 
0

>  <r_i_glide_metal>  (324) 
-0

>  <r_i_glide_rewards>  (324) 
-2.39729

>  <r_i_glide_evdw>  (324) 
-18.8008

>  <r_i_glide_ecoul>  (324) 
-0.0172081

>  <r_i_glide_erotb>  (324) 
0.522757

>  <r_i_glide_esite>  (324) 
0

>  <r_i_glide_emodel>  (324) 
-24.527

>  <r_i_glide_energy>  (324) 
-18.818

>  <r_i_glide_einternal>  (324) 
1.39669

>  <r_i_glide_intrahb_reward>  (324) 
-0

>  <i_i_glide_confnum>  (324) 
2

>  <i_i_glide_posenum>  (324) 
2

>  <r_i_glide_eff_state_penalty>  (324) 
0

>  <ligand_id>  (324) 
104

>  <original_smiles>  (324) 
CC#CCn1nnc2cccnc21

>  <smiles>  (324) 
[H]c1nc2c(nnn2C([H])([H])C#CC([H])([H])[H])c([H])c1[H]

$$$$
104:0:1
     RDKit          3D

 21 22  0  0  1  0  0  0  0  0999 V2000
   -7.1701   -4.6566   -3.8877 C   0  0  0  0  0  0  0  0  0  0  0  0
   -6.1771   -5.6446   -4.3224 C   0  0  0  0  0  0  0  0  0  0  0  0
   -5.3756   -6.4857   -4.6958 C   0  0  0  0  0  0  0  0  0  0  0  0
   -4.4523   -7.5185   -5.1975 C   0  0  0  0  0  0  0  0  0  0  0  0
   -5.1127   -8.6457   -5.8362 N   0  0  0  0  0  0  0  0  0  0  0  0
   -4.6628   -9.9114   -5.5913 N   0  0  0  0  0  0  0  0  0  0  0  0
   -5.3729  -10.7503   -6.2942 N   0  0  0  0  0  0  0  0  0  0  0  0
   -6.3006  -10.0219   -7.0193 C   0  0  0  0  0  0  0  0  0  0  0  0
   -7.3217  -10.3701   -7.9320 C   0  0  0  0  0  0  0  0  0  0  0  0
   -8.0892   -9.3379   -8.5141 C   0  0  0  0  0  0  0  0  0  0  0  0
   -7.8188   -7.9955   -8.1657 C   0  0  0  0  0  0  0  0  0  0  0  0
   -6.8556   -7.6188   -7.2992 N   0  0  0  0  0  0  0  0  0  0  0  0
   -6.1427   -8.6481   -6.7585 C   0  0  0  0  0  0  0  0  0  0  0  0
   -6.9380   -3.6834   -4.3221 H   0  0  0  0  0  0  0  0  0  0  0  0
   -7.1467   -4.5799   -2.8022 H   0  0  0  0  0  0  0  0  0  0  0  0
   -8.1676   -4.9565   -4.2043 H   0  0  0  0  0  0  0  0  0  0  0  0
   -3.7931   -7.0470   -5.9228 H   0  0  0  0  0  0  0  0  0  0  0  0
   -3.8384   -7.8671   -4.3650 H   0  0  0  0  0  0  0  0  0  0  0  0
   -7.5090  -11.4027   -8.1845 H   0  0  0  0  0  0  0  0  0  0  0  0
   -8.8749   -9.5652   -9.2199 H   0  0  0  0  0  0  0  0  0  0  0  0
   -8.3976   -7.1916   -8.5999 H   0  0  0  0  0  0  0  0  0  0  0  0
  1  2  1  0
  1 14  1  0
  1 15  1  0
  1 16  1  0
  2  3  3  0
  3  4  1  0
  4  5  1  0
  4 17  1  0
  4 18  1  0
  5 13  1  0
  5  6  1  0
  6  7  2  0
  7  8  1  0
  8 13  2  0
  8  9  1  0
  9 10  2  0
  9 19  1  0
 10 11  1  0
 10 20  1  0
 11 12  2  0
 11 21  1  0
 12 13  1  0
M  END
>  <i_m_ct_stereo_status>  (325) 
1

>  <s_m_source_file>  (325) 
/var/tmp/pbs.5076255.sched01/tmphrhi8tfx/132_dydaaau.sdf

>  <i_m_source_file_index>  (325) 
22

>  <i_lp_mmshare_version>  (325) 
48012

>  <i_f3d_flags>  (325) 
0

>  <s_epik_input>  (325) 
W0NIM11DI0NbQ0gyXW4obm4xKWMoYzEyKW5bY0hdW2NIXVtjSF0y

>  <s_epik_cmdline>  (325) 
J2VwaWtfcHl0aG9uJywgJy1waHQnLCAnMi4wJywgJy1waCcsICc3LjAnLCAnLXRuJywgJzgnLCAnLW1hJywgJzIwMCcsICctaW1hZScsICc8aW5maWxlLm1hZT4nLCAnLW9tYWUnLCAnPG91dGZpbGUubWFlPic=

>  <r_lp_tautomer_probability>  (325) 
1

>  <r_epik_Ionization_Penalty>  (325) 
1.92067e-10

>  <r_epik_Ionization_Penalty_Charging>  (325) 
0

>  <r_epik_Ionization_Penalty_Neutral>  (325) 
1.92067e-10

>  <r_epik_State_Penalty>  (325) 
-0

>  <r_epik_Charging_Adjusted_Penalty>  (325) 
0

>  <i_epik_Tot_Q>  (325) 
0

>  <i_epik_Tot_abs_Q>  (325) 
0

>  <s_lp_Force_Field>  (325) 
OPLS3e

>  <r_lp_Energy>  (325) 
10.7062

>  <b_lp_Chiralities_Consistent>  (325) 
1

>  <s_lp_Variant>  (325) 
104:0-1

>  <s_i_glide_gridfile>  (325) 
pfpi4k_grid

>  <i_i_glide_lignum>  (325) 
22

>  <i_i_glide_rotatable_bonds>  (325) 
2

>  <r_i_docking_score>  (325) 
-4.37606

>  <r_i_glide_ligand_efficiency>  (325) 
-0.33662

>  <r_i_glide_ligand_efficiency_sa>  (325) 
-0.791507

>  <r_i_glide_ligand_efficiency_ln>  (325) 
-1.22752

>  <r_i_glide_gscore>  (325) 
-4.37606

>  <r_i_glide_lipo>  (325) 
-1.31349

>  <r_i_glide_hbond>  (325) 
0

>  <r_i_glide_metal>  (325) 
-0

>  <r_i_glide_rewards>  (325) 
-2.39423

>  <r_i_glide_evdw>  (325) 
-23.8071

>  <r_i_glide_ecoul>  (325) 
-0.00504297

>  <r_i_glide_erotb>  (325) 
0.522757

>  <r_i_glide_esite>  (325) 
0

>  <r_i_glide_emodel>  (325) 
-29.6958

>  <r_i_glide_energy>  (325) 
-23.8121

>  <r_i_glide_einternal>  (325) 
0.767209

>  <r_i_glide_intrahb_reward>  (325) 
-0

>  <i_i_glide_confnum>  (325) 
1

>  <i_i_glide_posenum>  (325) 
36

>  <r_i_glide_eff_state_penalty>  (325) 
0

>  <ligand_id>  (325) 
104

>  <original_smiles>  (325) 
CC#CCn1nnc2cccnc21

>  <smiles>  (325) 
[H]c1nc2c(nnn2C([H])([H])C#CC([H])([H])[H])c([H])c1[H]

$$$$
104:0:2
     RDKit          3D

 21 22  0  0  1  0  0  0  0  0999 V2000
    1.5841   -1.6018    2.3680 C   0  0  0  0  0  0  0  0  0  0  0  0
    2.2608   -2.3295    1.2844 C   0  0  0  0  0  0  0  0  0  0  0  0
    2.8361   -2.9258    0.3878 C   0  0  0  0  0  0  0  0  0  0  0  0
    3.5343   -3.6476   -0.6891 C   0  0  0  0  0  0  0  0  0  0  0  0
    4.9451   -3.3273   -0.7727 N   0  0  0  0  0  0  0  0  0  0  0  0
    5.3647   -2.3617   -1.6426 N   0  0  0  0  0  0  0  0  0  0  0  0
    6.6603   -2.2566   -1.5565 N   0  0  0  0  0  0  0  0  0  0  0  0
    7.1028   -3.1595   -0.6080 C   0  0  0  0  0  0  0  0  0  0  0  0
    8.3767   -3.4899   -0.0995 C   0  0  0  0  0  0  0  0  0  0  0  0
    8.4643   -4.5057    0.8800 C   0  0  0  0  0  0  0  0  0  0  0  0
    7.2853   -5.1466    1.3195 C   0  0  0  0  0  0  0  0  0  0  0  0
    6.0444   -4.8536    0.8680 N   0  0  0  0  0  0  0  0  0  0  0  0
    6.0080   -3.8740   -0.0794 C   0  0  0  0  0  0  0  0  0  0  0  0
    0.9030   -2.2664    2.8977 H   0  0  0  0  0  0  0  0  0  0  0  0
    1.0182   -0.7646    1.9590 H   0  0  0  0  0  0  0  0  0  0  0  0
    2.3262   -1.2205    3.0679 H   0  0  0  0  0  0  0  0  0  0  0  0
    3.4317   -4.7179   -0.5118 H   0  0  0  0  0  0  0  0  0  0  0  0
    3.0455   -3.4294   -1.6417 H   0  0  0  0  0  0  0  0  0  0  0  0
    9.2631   -2.9864   -0.4591 H   0  0  0  0  0  0  0  0  0  0  0  0
    9.4157   -4.7933    1.3038 H   0  0  0  0  0  0  0  0  0  0  0  0
    7.3409   -5.9213    2.0729 H   0  0  0  0  0  0  0  0  0  0  0  0
  1  2  1  0
  1 14  1  0
  1 15  1  0
  1 16  1  0
  2  3  3  0
  3  4  1  0
  4  5  1  0
  4 17  1  0
  4 18  1  0
  5 13  1  0
  5  6  1  0
  6  7  2  0
  7  8  1  0
  8 13  2  0
  8  9  1  0
  9 10  2  0
  9 19  1  0
 10 11  1  0
 10 20  1  0
 11 12  2  0
 11 21  1  0
 12 13  1  0
M  END
>  <i_m_ct_stereo_status>  (326) 
1

>  <s_m_source_file>  (326) 
/var/tmp/pbs.5076255.sched01/tmphrhi8tfx/132_dydaaau.sdf

>  <i_m_source_file_index>  (326) 
22

>  <i_lp_mmshare_version>  (326) 
48012

>  <i_f3d_flags>  (326) 
0

>  <s_epik_input>  (326) 
W0NIM11DI0NbQ0gyXW4obm4xKWMoYzEyKW5bY0hdW2NIXVtjSF0y

>  <s_epik_cmdline>  (326) 
J2VwaWtfcHl0aG9uJywgJy1waHQnLCAnMi4wJywgJy1waCcsICc3LjAnLCAnLXRuJywgJzgnLCAnLW1hJywgJzIwMCcsICctaW1hZScsICc8aW5maWxlLm1hZT4nLCAnLW9tYWUnLCAnPG91dGZpbGUubWFlPic=

>  <r_lp_tautomer_probability>  (326) 
1

>  <r_epik_Ionization_Penalty>  (326) 
1.92067e-10

>  <r_epik_Ionization_Penalty_Charging>  (326) 
0

>  <r_epik_Ionization_Penalty_Neutral>  (326) 
1.92067e-10

>  <r_epik_State_Penalty>  (326) 
-0

>  <r_epik_Charging_Adjusted_Penalty>  (326) 
0

>  <i_epik_Tot_Q>  (326) 
0

>  <i_epik_Tot_abs_Q>  (326) 
0

>  <s_lp_Force_Field>  (326) 
OPLS3e

>  <r_lp_Energy>  (326) 
10.7062

>  <b_lp_Chiralities_Consistent>  (326) 
1

>  <s_lp_Variant>  (326) 
104:0-1

>  <s_i_glide_gridfile>  (326) 
pfpi4k_grid

>  <i_i_glide_lignum>  (326) 
22

>  <i_i_glide_rotatable_bonds>  (326) 
2

>  <r_i_docking_score>  (326) 
-3.59295

>  <r_i_glide_ligand_efficiency>  (326) 
-0.276381

>  <r_i_glide_ligand_efficiency_sa>  (326) 
-0.649864

>  <r_i_glide_ligand_efficiency_ln>  (326) 
-1.00785

>  <r_i_glide_gscore>  (326) 
-3.59295

>  <r_i_glide_lipo>  (326) 
-0.404109

>  <r_i_glide_hbond>  (326) 
0

>  <r_i_glide_metal>  (326) 
-0

>  <r_i_glide_rewards>  (326) 
-2.39231

>  <r_i_glide_evdw>  (326) 
-16.9808

>  <r_i_glide_ecoul>  (326) 
-2.49707

>  <r_i_glide_erotb>  (326) 
0.522757

>  <r_i_glide_esite>  (326) 
-0.0956931

>  <r_i_glide_emodel>  (326) 
-24.6743

>  <r_i_glide_energy>  (326) 
-19.4778

>  <r_i_glide_einternal>  (326) 
-0.0552842

>  <r_i_glide_intrahb_reward>  (326) 
-0

>  <i_i_glide_confnum>  (326) 
1

>  <i_i_glide_posenum>  (326) 
9

>  <r_i_glide_eff_state_penalty>  (326) 
0

>  <ligand_id>  (326) 
104

>  <original_smiles>  (326) 
CC#CCn1nnc2cccnc21

>  <smiles>  (326) 
[H]c1nc2c(nnn2C([H])([H])C#CC([H])([H])[H])c([H])c1[H]

$$$$
105:0:0
     RDKit          3D

 37 40  0  0  1  0  0  0  0  0999 V2000
    1.2805    1.2870    2.5715 O   0  0  0  0  0  0  0  0  0  0  0  0
    0.1237    1.3946    2.9647 C   0  0  0  0  0  0  0  0  0  0  0  0
   -0.5762    2.5326    2.8706 N   0  0  0  0  0  0  0  0  0  0  0  0
   -1.8276    2.8612    3.5335 C   0  0  0  0  0  0  0  0  0  0  0  0
   -1.7966    2.7560    5.0570 C   0  0  0  0  0  0  0  0  0  0  0  0
   -0.8830    2.1471    5.8963 C   0  0  0  0  0  0  0  0  0  0  0  0
   -1.3759    2.3103    7.1793 N   0  0  0  0  0  0  0  0  0  0  0  0
   -1.0158    1.9271    8.4290 C   0  0  0  0  0  0  0  0  0  0  0  0
   -1.8353    2.3865    9.4289 C   0  0  0  0  0  0  0  0  0  0  0  0
   -3.1235    3.3428    8.6872 S   0  0  0  0  0  0  0  0  0  0  0  0
   -2.5279    3.0531    7.0404 C   0  0  0  0  0  0  0  0  0  0  0  0
   -2.8391    3.3082    5.7992 N   0  0  0  0  0  0  0  0  0  0  0  0
   -0.6006    0.4209    3.5375 N   0  0  0  0  0  0  0  0  0  0  0  0
   -0.1752   -0.8155    4.0819 C   0  0  0  0  0  0  0  0  0  0  0  0
    0.9556   -1.4943    3.5882 C   0  0  0  0  0  0  0  0  0  0  0  0
    1.3246   -2.7331    4.1323 C   0  0  0  0  0  0  0  0  0  0  0  0
    0.5609   -3.3207    5.1557 C   0  0  0  0  0  0  0  0  0  0  0  0
   -0.5577   -2.6259    5.6894 C   0  0  0  0  0  0  0  0  0  0  0  0
   -0.9289   -1.3815    5.1370 C   0  0  0  0  0  0  0  0  0  0  0  0
   -1.3094   -3.1733    6.7122 O   0  0  0  0  0  0  0  0  0  0  0  0
   -0.6845   -4.2695    7.3806 C   0  0  0  0  0  0  0  0  0  0  0  0
   -0.0851   -5.2420    6.3511 C   0  0  0  0  0  0  0  0  0  0  0  0
    0.9113   -4.5723    5.5970 O   0  0  0  0  0  0  0  0  0  0  0  0
   -0.1404    3.2848    2.3196 H   0  0  0  0  0  0  0  0  0  0  0  0
   -2.1043    3.8719    3.2234 H   0  0  0  0  0  0  0  0  0  0  0  0
   -2.6072    2.2016    3.1410 H   0  0  0  0  0  0  0  0  0  0  0  0
    0.0344    1.5893    5.7587 H   0  0  0  0  0  0  0  0  0  0  0  0
   -0.1276    1.3097    8.5255 H   0  0  0  0  0  0  0  0  0  0  0  0
   -1.7498    2.2347   10.5014 H   0  0  0  0  0  0  0  0  0  0  0  0
   -1.5435    0.7069    3.7806 H   0  0  0  0  0  0  0  0  0  0  0  0
    1.5514   -1.1013    2.7772 H   0  0  0  0  0  0  0  0  0  0  0  0
    2.1696   -3.2605    3.7180 H   0  0  0  0  0  0  0  0  0  0  0  0
   -1.7925   -0.8629    5.5369 H   0  0  0  0  0  0  0  0  0  0  0  0
    0.0960   -3.8934    8.0464 H   0  0  0  0  0  0  0  0  0  0  0  0
   -1.4128   -4.7973    7.9973 H   0  0  0  0  0  0  0  0  0  0  0  0
    0.3951   -6.0913    6.8413 H   0  0  0  0  0  0  0  0  0  0  0  0
   -0.8511   -5.6340    5.6783 H   0  0  0  0  0  0  0  0  0  0  0  0
  1  2  2  0
  2  3  1  0
  2 13  1  0
  3  4  1  0
  3 24  1  0
  4  5  1  0
  4 25  1  0
  4 26  1  0
  5 12  1  0
  5  6  2  0
  6  7  1  0
  6 27  1  0
  7 11  1  0
  7  8  1  0
  8  9  2  0
  8 28  1  0
  9 10  1  0
  9 29  1  0
 10 11  1  0
 11 12  2  0
 13 14  1  0
 13 30  1  0
 14 19  1  0
 14 15  2  0
 15 16  1  0
 15 31  1  0
 16 17  2  0
 16 32  1  0
 17 23  1  0
 17 18  1  0
 18 19  2  0
 18 20  1  0
 19 33  1  0
 20 21  1  0
 21 22  1  0
 21 34  1  0
 21 35  1  0
 22 23  1  0
 22 36  1  0
 22 37  1  0
M  END
>  <i_m_ct_stereo_status>  (327) 
1

>  <s_m_source_file>  (327) 
/var/tmp/pbs.5076255.sched01/tmphrhi8tfx/132_dydaaau.sdf

>  <i_m_source_file_index>  (327) 
23

>  <i_lp_mmshare_version>  (327) 
48012

>  <i_f3d_flags>  (327) 
0

>  <s_epik_input>  (327) 
TzFbQ0gyXVtDSDJdT2MoYzEyKVtjSF1jKFtjSF1bY0hdMilbTkhdQyg9TylbTkhdW0NIMl1jKFtjSF0zKW5jKG4zNClzW2NIXVtjSF00

>  <s_epik_cmdline>  (327) 
J2VwaWtfcHl0aG9uJywgJy1waHQnLCAnMi4wJywgJy1waCcsICc3LjAnLCAnLXRuJywgJzgnLCAnLW1hJywgJzIwMCcsICctaW1hZScsICc8aW5maWxlLm1hZT4nLCAnLW9tYWUnLCAnPG91dGZpbGUubWFlPic=

>  <r_lp_tautomer_probability>  (327) 
1

>  <r_epik_Ionization_Penalty>  (327) 
0.00017743

>  <r_epik_Ionization_Penalty_Charging>  (327) 
0

>  <r_epik_Ionization_Penalty_Neutral>  (327) 
0.00017743

>  <r_epik_State_Penalty>  (327) 
-0

>  <r_epik_Charging_Adjusted_Penalty>  (327) 
0

>  <i_epik_Tot_Q>  (327) 
0

>  <i_epik_Tot_abs_Q>  (327) 
0

>  <s_lp_Force_Field>  (327) 
OPLS3e

>  <r_lp_Energy>  (327) 
25.004

>  <b_lp_Chiralities_Consistent>  (327) 
1

>  <s_lp_Variant>  (327) 
105:0-1

>  <s_i_glide_gridfile>  (327) 
pfpi4k_grid

>  <i_i_glide_lignum>  (327) 
23

>  <i_i_glide_rotatable_bonds>  (327) 
5

>  <r_i_docking_score>  (327) 
-3.05821

>  <r_i_glide_ligand_efficiency>  (327) 
-0.132966

>  <r_i_glide_ligand_efficiency_sa>  (327) 
-0.378136

>  <r_i_glide_ligand_efficiency_ln>  (327) 
-0.739502

>  <r_i_glide_gscore>  (327) 
-3.05821

>  <r_i_glide_lipo>  (327) 
-0.0682684

>  <r_i_glide_hbond>  (327) 
-0.16

>  <r_i_glide_metal>  (327) 
-0

>  <r_i_glide_rewards>  (327) 
-1.33687

>  <r_i_glide_evdw>  (327) 
-26.0919

>  <r_i_glide_ecoul>  (327) 
-3.58014

>  <r_i_glide_erotb>  (327) 
0.516966

>  <r_i_glide_esite>  (327) 
-0.16842

>  <r_i_glide_emodel>  (327) 
-29.4191

>  <r_i_glide_energy>  (327) 
-29.672

>  <r_i_glide_einternal>  (327) 
12.2529

>  <r_i_glide_intrahb_reward>  (327) 
-0

>  <i_i_glide_confnum>  (327) 
4

>  <i_i_glide_posenum>  (327) 
23

>  <r_i_glide_eff_state_penalty>  (327) 
0

>  <ligand_id>  (327) 
105

>  <original_smiles>  (327) 
O=C(NCc1cn2ccsc2n1)Nc1ccc2c(c1)OCCO2

>  <smiles>  (327) 
[H]c1sc2nc(C([H])([H])N([H])C(=O)N([H])c3c([H])c([H])c4c(c3[H])OC([H])([H])C([H])([H])O4)c([H])n2c1[H]

$$$$
105:0:1
     RDKit          3D

 37 40  0  0  1  0  0  0  0  0999 V2000
    2.0202    1.3719    1.9925 O   0  0  0  0  0  0  0  0  0  0  0  0
    0.8861    1.1725    2.4287 C   0  0  0  0  0  0  0  0  0  0  0  0
   -0.0411    2.1355    2.4697 N   0  0  0  0  0  0  0  0  0  0  0  0
   -1.3833    2.0539    3.0224 C   0  0  0  0  0  0  0  0  0  0  0  0
   -1.3936    2.0877    4.5389 C   0  0  0  0  0  0  0  0  0  0  0  0
   -0.6023    1.4242    5.4506 C   0  0  0  0  0  0  0  0  0  0  0  0
   -1.0553    1.8063    6.6957 N   0  0  0  0  0  0  0  0  0  0  0  0
   -0.7282    1.5068    7.9745 C   0  0  0  0  0  0  0  0  0  0  0  0
   -1.4790    2.1515    8.9214 C   0  0  0  0  0  0  0  0  0  0  0  0
   -2.6324    3.1579    8.0615 S   0  0  0  0  0  0  0  0  0  0  0  0
   -2.0799    2.6979    6.4523 C   0  0  0  0  0  0  0  0  0  0  0  0
   -2.3118    2.9206    5.1938 N   0  0  0  0  0  0  0  0  0  0  0  0
    0.4230    0.0254    2.9296 N   0  0  0  0  0  0  0  0  0  0  0  0
    1.0916   -1.2036    3.1463 C   0  0  0  0  0  0  0  0  0  0  0  0
    2.1061   -1.6443    2.2767 C   0  0  0  0  0  0  0  0  0  0  0  0
    2.7066   -2.8877    2.4845 C   0  0  0  0  0  0  0  0  0  0  0  0
    2.2834   -3.7112    3.5445 C   0  0  0  0  0  0  0  0  0  0  0  0
    1.2657   -3.2659    4.4318 C   0  0  0  0  0  0  0  0  0  0  0  0
    0.6585   -2.0181    4.2154 C   0  0  0  0  0  0  0  0  0  0  0  0
    0.8521   -4.0446    5.4943 O   0  0  0  0  0  0  0  0  0  0  0  0
    1.7520   -5.0978    5.8251 C   0  0  0  0  0  0  0  0  0  0  0  0
    2.1803   -5.8305    4.5438 C   0  0  0  0  0  0  0  0  0  0  0  0
    2.8790   -4.9369    3.6929 O   0  0  0  0  0  0  0  0  0  0  0  0
    0.1976    3.0046    1.9857 H   0  0  0  0  0  0  0  0  0  0  0  0
   -1.9576    2.8890    2.6139 H   0  0  0  0  0  0  0  0  0  0  0  0
   -1.8773    1.1522    2.6467 H   0  0  0  0  0  0  0  0  0  0  0  0
    0.2360    0.7397    5.4114 H   0  0  0  0  0  0  0  0  0  0  0  0
    0.0980    0.8223    8.1556 H   0  0  0  0  0  0  0  0  0  0  0  0
   -1.4149    2.1147   10.0030 H   0  0  0  0  0  0  0  0  0  0  0  0
   -0.4899    0.1099    3.3568 H   0  0  0  0  0  0  0  0  0  0  0  0
    2.4036   -1.0609    1.4227 H   0  0  0  0  0  0  0  0  0  0  0  0
    3.4689   -3.2179    1.7998 H   0  0  0  0  0  0  0  0  0  0  0  0
   -0.1359   -1.6963    4.8810 H   0  0  0  0  0  0  0  0  0  0  0  0
    2.6215   -4.6927    6.3475 H   0  0  0  0  0  0  0  0  0  0  0  0
    1.2588   -5.7947    6.5022 H   0  0  0  0  0  0  0  0  0  0  0  0
    2.8525   -6.6564    4.7722 H   0  0  0  0  0  0  0  0  0  0  0  0
    1.3173   -6.2347    4.0123 H   0  0  0  0  0  0  0  0  0  0  0  0
  1  2  2  0
  2  3  1  0
  2 13  1  0
  3  4  1  0
  3 24  1  0
  4  5  1  0
  4 25  1  0
  4 26  1  0
  5 12  1  0
  5  6  2  0
  6  7  1  0
  6 27  1  0
  7 11  1  0
  7  8  1  0
  8  9  2  0
  8 28  1  0
  9 10  1  0
  9 29  1  0
 10 11  1  0
 11 12  2  0
 13 14  1  0
 13 30  1  0
 14 19  1  0
 14 15  2  0
 15 16  1  0
 15 31  1  0
 16 17  2  0
 16 32  1  0
 17 23  1  0
 17 18  1  0
 18 19  2  0
 18 20  1  0
 19 33  1  0
 20 21  1  0
 21 22  1  0
 21 34  1  0
 21 35  1  0
 22 23  1  0
 22 36  1  0
 22 37  1  0
M  END
>  <i_m_ct_stereo_status>  (328) 
1

>  <s_m_source_file>  (328) 
/var/tmp/pbs.5076255.sched01/tmphrhi8tfx/132_dydaaau.sdf

>  <i_m_source_file_index>  (328) 
23

>  <i_lp_mmshare_version>  (328) 
48012

>  <i_f3d_flags>  (328) 
0

>  <s_epik_input>  (328) 
TzFbQ0gyXVtDSDJdT2MoYzEyKVtjSF1jKFtjSF1bY0hdMilbTkhdQyg9TylbTkhdW0NIMl1jKFtjSF0zKW5jKG4zNClzW2NIXVtjSF00

>  <s_epik_cmdline>  (328) 
J2VwaWtfcHl0aG9uJywgJy1waHQnLCAnMi4wJywgJy1waCcsICc3LjAnLCAnLXRuJywgJzgnLCAnLW1hJywgJzIwMCcsICctaW1hZScsICc8aW5maWxlLm1hZT4nLCAnLW9tYWUnLCAnPG91dGZpbGUubWFlPic=

>  <r_lp_tautomer_probability>  (328) 
1

>  <r_epik_Ionization_Penalty>  (328) 
0.00017743

>  <r_epik_Ionization_Penalty_Charging>  (328) 
0

>  <r_epik_Ionization_Penalty_Neutral>  (328) 
0.00017743

>  <r_epik_State_Penalty>  (328) 
-0

>  <r_epik_Charging_Adjusted_Penalty>  (328) 
0

>  <i_epik_Tot_Q>  (328) 
0

>  <i_epik_Tot_abs_Q>  (328) 
0

>  <s_lp_Force_Field>  (328) 
OPLS3e

>  <r_lp_Energy>  (328) 
25.004

>  <b_lp_Chiralities_Consistent>  (328) 
1

>  <s_lp_Variant>  (328) 
105:0-1

>  <s_i_glide_gridfile>  (328) 
pfpi4k_grid

>  <i_i_glide_lignum>  (328) 
23

>  <i_i_glide_rotatable_bonds>  (328) 
5

>  <r_i_docking_score>  (328) 
-3.00179

>  <r_i_glide_ligand_efficiency>  (328) 
-0.130513

>  <r_i_glide_ligand_efficiency_sa>  (328) 
-0.371161

>  <r_i_glide_ligand_efficiency_ln>  (328) 
-0.725861

>  <r_i_glide_gscore>  (328) 
-3.00179

>  <r_i_glide_lipo>  (328) 
-0.138272

>  <r_i_glide_hbond>  (328) 
-0.16

>  <r_i_glide_metal>  (328) 
-0

>  <r_i_glide_rewards>  (328) 
-1.28798

>  <r_i_glide_evdw>  (328) 
-23.8691

>  <r_i_glide_ecoul>  (328) 
-3.65724

>  <r_i_glide_erotb>  (328) 
0.516966

>  <r_i_glide_esite>  (328) 
-0.190463

>  <r_i_glide_emodel>  (328) 
-27.4132

>  <r_i_glide_energy>  (328) 
-27.5264

>  <r_i_glide_einternal>  (328) 
11.886

>  <r_i_glide_intrahb_reward>  (328) 
-0

>  <i_i_glide_confnum>  (328) 
4

>  <i_i_glide_posenum>  (328) 
28

>  <r_i_glide_eff_state_penalty>  (328) 
0

>  <ligand_id>  (328) 
105

>  <original_smiles>  (328) 
O=C(NCc1cn2ccsc2n1)Nc1ccc2c(c1)OCCO2

>  <smiles>  (328) 
[H]c1sc2nc(C([H])([H])N([H])C(=O)N([H])c3c([H])c([H])c4c(c3[H])OC([H])([H])C([H])([H])O4)c([H])n2c1[H]

$$$$
105:0:2
     RDKit          3D

 37 40  0  0  1  0  0  0  0  0999 V2000
    1.4373    1.2850    2.7352 O   0  0  0  0  0  0  0  0  0  0  0  0
    0.2711    1.4306    3.0994 C   0  0  0  0  0  0  0  0  0  0  0  0
   -0.3966    2.5616    2.8795 N   0  0  0  0  0  0  0  0  0  0  0  0
   -1.6880    2.9480    3.4474 C   0  0  0  0  0  0  0  0  0  0  0  0
   -1.6083    3.2569    4.9187 C   0  0  0  0  0  0  0  0  0  0  0  0
   -0.5754    3.7833    5.6647 C   0  0  0  0  0  0  0  0  0  0  0  0
   -1.0484    3.8345    6.9740 N   0  0  0  0  0  0  0  0  0  0  0  0
   -0.5959    4.2409    8.1946 C   0  0  0  0  0  0  0  0  0  0  0  0
   -1.4862    4.0775    9.2277 C   0  0  0  0  0  0  0  0  0  0  0  0
   -2.9415    3.3520    8.5624 S   0  0  0  0  0  0  0  0  0  0  0  0
   -2.3193    3.3164    6.9158 C   0  0  0  0  0  0  0  0  0  0  0  0
   -2.6958    2.9495    5.7262 N   0  0  0  0  0  0  0  0  0  0  0  0
   -0.4767    0.5072    3.7263 N   0  0  0  0  0  0  0  0  0  0  0  0
   -0.1084   -0.7729    4.2051 C   0  0  0  0  0  0  0  0  0  0  0  0
    0.9606   -1.5157    3.6512 C   0  0  0  0  0  0  0  0  0  0  0  0
    1.2677   -2.7892    4.1511 C   0  0  0  0  0  0  0  0  0  0  0  0
    0.5027   -3.3467    5.1890 C   0  0  0  0  0  0  0  0  0  0  0  0
   -0.5740   -2.6109    5.7540 C   0  0  0  0  0  0  0  0  0  0  0  0
   -0.8847   -1.3332    5.2422 C   0  0  0  0  0  0  0  0  0  0  0  0
   -1.3274   -3.1240    6.7875 O   0  0  0  0  0  0  0  0  0  0  0  0
   -0.7231   -4.2288    7.4530 C   0  0  0  0  0  0  0  0  0  0  0  0
   -0.1873   -5.2271    6.4150 C   0  0  0  0  0  0  0  0  0  0  0  0
    0.8211   -4.6069    5.6337 O   0  0  0  0  0  0  0  0  0  0  0  0
    0.0592    3.2571    2.2833 H   0  0  0  0  0  0  0  0  0  0  0  0
   -2.0704    3.8050    2.8867 H   0  0  0  0  0  0  0  0  0  0  0  0
   -2.4163    2.1464    3.2805 H   0  0  0  0  0  0  0  0  0  0  0  0
    0.4291    4.1152    5.4135 H   0  0  0  0  0  0  0  0  0  0  0  0
    0.4015    4.6610    8.2752 H   0  0  0  0  0  0  0  0  0  0  0  0
   -1.3874    4.3221   10.2822 H   0  0  0  0  0  0  0  0  0  0  0  0
   -1.4110    0.8079    3.9693 H   0  0  0  0  0  0  0  0  0  0  0  0
    1.5420   -1.1507    2.8213 H   0  0  0  0  0  0  0  0  0  0  0  0
    2.0825   -3.3435    3.7121 H   0  0  0  0  0  0  0  0  0  0  0  0
   -1.7200   -0.7800    5.6560 H   0  0  0  0  0  0  0  0  0  0  0  0
    0.0822   -3.8745    8.1002 H   0  0  0  0  0  0  0  0  0  0  0  0
   -1.4657   -4.7129    8.0861 H   0  0  0  0  0  0  0  0  0  0  0  0
    0.2590   -6.0921    6.9037 H   0  0  0  0  0  0  0  0  0  0  0  0
   -0.9854   -5.5843    5.7621 H   0  0  0  0  0  0  0  0  0  0  0  0
  1  2  2  0
  2  3  1  0
  2 13  1  0
  3  4  1  0
  3 24  1  0
  4  5  1  0
  4 25  1  0
  4 26  1  0
  5 12  1  0
  5  6  2  0
  6  7  1  0
  6 27  1  0
  7 11  1  0
  7  8  1  0
  8  9  2  0
  8 28  1  0
  9 10  1  0
  9 29  1  0
 10 11  1  0
 11 12  2  0
 13 14  1  0
 13 30  1  0
 14 19  1  0
 14 15  2  0
 15 16  1  0
 15 31  1  0
 16 17  2  0
 16 32  1  0
 17 23  1  0
 17 18  1  0
 18 19  2  0
 18 20  1  0
 19 33  1  0
 20 21  1  0
 21 22  1  0
 21 34  1  0
 21 35  1  0
 22 23  1  0
 22 36  1  0
 22 37  1  0
M  END
>  <i_m_ct_stereo_status>  (329) 
1

>  <s_m_source_file>  (329) 
/var/tmp/pbs.5076255.sched01/tmphrhi8tfx/132_dydaaau.sdf

>  <i_m_source_file_index>  (329) 
23

>  <i_lp_mmshare_version>  (329) 
48012

>  <i_f3d_flags>  (329) 
0

>  <s_epik_input>  (329) 
TzFbQ0gyXVtDSDJdT2MoYzEyKVtjSF1jKFtjSF1bY0hdMilbTkhdQyg9TylbTkhdW0NIMl1jKFtjSF0zKW5jKG4zNClzW2NIXVtjSF00

>  <s_epik_cmdline>  (329) 
J2VwaWtfcHl0aG9uJywgJy1waHQnLCAnMi4wJywgJy1waCcsICc3LjAnLCAnLXRuJywgJzgnLCAnLW1hJywgJzIwMCcsICctaW1hZScsICc8aW5maWxlLm1hZT4nLCAnLW9tYWUnLCAnPG91dGZpbGUubWFlPic=

>  <r_lp_tautomer_probability>  (329) 
1

>  <r_epik_Ionization_Penalty>  (329) 
0.00017743

>  <r_epik_Ionization_Penalty_Charging>  (329) 
0

>  <r_epik_Ionization_Penalty_Neutral>  (329) 
0.00017743

>  <r_epik_State_Penalty>  (329) 
-0

>  <r_epik_Charging_Adjusted_Penalty>  (329) 
0

>  <i_epik_Tot_Q>  (329) 
0

>  <i_epik_Tot_abs_Q>  (329) 
0

>  <s_lp_Force_Field>  (329) 
OPLS3e

>  <r_lp_Energy>  (329) 
25.004

>  <b_lp_Chiralities_Consistent>  (329) 
1

>  <s_lp_Variant>  (329) 
105:0-1

>  <s_i_glide_gridfile>  (329) 
pfpi4k_grid

>  <i_i_glide_lignum>  (329) 
23

>  <i_i_glide_rotatable_bonds>  (329) 
5

>  <r_i_docking_score>  (329) 
-2.90821

>  <r_i_glide_ligand_efficiency>  (329) 
-0.126444

>  <r_i_glide_ligand_efficiency_sa>  (329) 
-0.35959

>  <r_i_glide_ligand_efficiency_ln>  (329) 
-0.703233

>  <r_i_glide_gscore>  (329) 
-2.90821

>  <r_i_glide_lipo>  (329) 
-0.113532

>  <r_i_glide_hbond>  (329) 
-0.16

>  <r_i_glide_metal>  (329) 
-0

>  <r_i_glide_rewards>  (329) 
-1.29759

>  <r_i_glide_evdw>  (329) 
-25.0953

>  <r_i_glide_ecoul>  (329) 
-2.9321

>  <r_i_glide_erotb>  (329) 
0.516966

>  <r_i_glide_esite>  (329) 
-0.159481

>  <r_i_glide_emodel>  (329) 
-27.9821

>  <r_i_glide_energy>  (329) 
-28.0274

>  <r_i_glide_einternal>  (329) 
12.046

>  <r_i_glide_intrahb_reward>  (329) 
-0

>  <i_i_glide_confnum>  (329) 
4

>  <i_i_glide_posenum>  (329) 
31

>  <r_i_glide_eff_state_penalty>  (329) 
0

>  <ligand_id>  (329) 
105

>  <original_smiles>  (329) 
O=C(NCc1cn2ccsc2n1)Nc1ccc2c(c1)OCCO2

>  <smiles>  (329) 
[H]c1sc2nc(C([H])([H])N([H])C(=O)N([H])c3c([H])c([H])c4c(c3[H])OC([H])([H])C([H])([H])O4)c([H])n2c1[H]

$$$$
106:0:0
     RDKit          3D

 23 25  0  0  1  0  0  0  0  0999 V2000
    0.5689   -6.3121    1.2106 O   0  0  0  0  0  0  0  0  0  0  0  0
    1.4667   -7.1077    1.5086 C   0  0  0  0  0  0  0  0  0  0  0  0
    2.8084   -7.0009    1.3184 N   0  0  0  0  0  0  0  0  0  0  0  0
    3.5131   -5.9118    0.7059 C   0  0  0  0  0  0  0  0  0  0  0  0
    2.8793   -4.7820    0.1379 C   0  0  0  0  0  0  0  0  0  0  0  0
    3.6536   -3.7663   -0.4440 C   0  0  0  0  0  0  0  0  0  0  0  0
    5.0506   -3.9086   -0.4533 C   0  0  0  0  0  0  0  0  0  0  0  0
    5.6803   -4.9728    0.0795 N   0  0  0  0  0  0  0  0  0  0  0  0
    4.9287   -5.9448    0.6359 C   0  0  0  0  0  0  0  0  0  0  0  0
    3.4799   -8.1027    1.7896 N   0  0  0  0  0  0  0  0  0  0  0  0
    2.5460   -8.8462    2.2527 C   0  0  0  0  0  0  0  0  0  0  0  0
    2.5702  -10.1867    2.9235 C   0  0  0  0  0  0  0  0  0  0  0  0
    1.4971  -10.7628    3.3249 N   0  0  0  0  0  0  0  0  0  0  0  0
    0.2542  -10.1259    3.1388 C   0  0  0  0  0  0  0  0  0  0  0  0
    0.1430   -8.9182    2.5382 C   0  0  0  0  0  0  0  0  0  0  0  0
    1.3082   -8.2830    2.1014 N   0  0  0  0  0  0  0  0  0  0  0  0
    1.8138   -4.6557    0.1133 H   0  0  0  0  0  0  0  0  0  0  0  0
    3.1836   -2.9004   -0.8828 H   0  0  0  0  0  0  0  0  0  0  0  0
    5.6843   -3.1527   -0.8977 H   0  0  0  0  0  0  0  0  0  0  0  0
    5.4969   -6.7727    1.0343 H   0  0  0  0  0  0  0  0  0  0  0  0
    3.5609  -10.6293    3.0508 H   0  0  0  0  0  0  0  0  0  0  0  0
   -0.6059  -10.6561    3.5045 H   0  0  0  0  0  0  0  0  0  0  0  0
   -0.7833   -8.3903    2.3557 H   0  0  0  0  0  0  0  0  0  0  0  0
  1  2  2  0
  2 16  1  0
  2  3  1  0
  3  4  1  0
  3 10  1  0
  4  9  1  0
  4  5  2  0
  5  6  1  0
  5 17  1  0
  6  7  2  0
  6 18  1  0
  7  8  1  0
  7 19  1  0
  8  9  2  0
  9 20  1  0
 10 11  2  0
 11 16  1  0
 11 12  1  0
 12 13  2  0
 12 21  1  0
 13 14  1  0
 14 15  2  0
 14 22  1  0
 15 16  1  0
 15 23  1  0
M  END
>  <i_m_ct_stereo_status>  (330) 
1

>  <s_m_source_file>  (330) 
/var/tmp/pbs.5076255.sched01/tmphrhi8tfx/132_dydaaau.sdf

>  <i_m_source_file_index>  (330) 
24

>  <i_lp_mmshare_version>  (330) 
48012

>  <i_f3d_flags>  (330) 
0

>  <s_epik_input>  (330) 
W2NIXTFuW2NIXVtjSF1uKGMxMiljKD1PKW4objIpLWMzW2NIXVtjSF1bY0hdbltjSF0z

>  <s_epik_cmdline>  (330) 
J2VwaWtfcHl0aG9uJywgJy1waHQnLCAnMi4wJywgJy1waCcsICc3LjAnLCAnLXRuJywgJzgnLCAnLW1hJywgJzIwMCcsICctaW1hZScsICc8aW5maWxlLm1hZT4nLCAnLW9tYWUnLCAnPG91dGZpbGUubWFlPic=

>  <r_lp_tautomer_probability>  (330) 
1

>  <r_epik_Ionization_Penalty>  (330) 
1.03274e-05

>  <r_epik_Ionization_Penalty_Charging>  (330) 
2.91624e-09

>  <r_epik_Ionization_Penalty_Neutral>  (330) 
1.03245e-05

>  <r_epik_State_Penalty>  (330) 
-0

>  <r_epik_Charging_Adjusted_Penalty>  (330) 
2.91624e-09

>  <i_epik_Tot_Q>  (330) 
0

>  <i_epik_Tot_abs_Q>  (330) 
0

>  <s_lp_Force_Field>  (330) 
OPLS3e

>  <r_lp_Energy>  (330) 
46.3431

>  <b_lp_Chiralities_Consistent>  (330) 
1

>  <s_lp_Variant>  (330) 
106:0-1

>  <s_i_glide_gridfile>  (330) 
pfpi4k_grid

>  <i_i_glide_lignum>  (330) 
24

>  <i_i_glide_rotatable_bonds>  (330) 
1

>  <r_i_docking_score>  (330) 
-3.80587

>  <r_i_glide_ligand_efficiency>  (330) 
-0.237867

>  <r_i_glide_ligand_efficiency_sa>  (330) 
-0.599387

>  <r_i_glide_ligand_efficiency_ln>  (330) 
-1.00882

>  <r_i_glide_gscore>  (330) 
-3.80587

>  <r_i_glide_lipo>  (330) 
-0.180947

>  <r_i_glide_hbond>  (330) 
-0.16

>  <r_i_glide_metal>  (330) 
-0

>  <r_i_glide_rewards>  (330) 
-1.98535

>  <r_i_glide_evdw>  (330) 
-21.8173

>  <r_i_glide_ecoul>  (330) 
-4.49371

>  <r_i_glide_erotb>  (330) 
0.366921

>  <r_i_glide_esite>  (330) 
-0.0815666

>  <r_i_glide_emodel>  (330) 
-33.0065

>  <r_i_glide_energy>  (330) 
-26.311

>  <r_i_glide_einternal>  (330) 
0.476528

>  <r_i_glide_intrahb_reward>  (330) 
-0

>  <i_i_glide_confnum>  (330) 
1

>  <i_i_glide_posenum>  (330) 
23

>  <r_i_glide_eff_state_penalty>  (330) 
0

>  <ligand_id>  (330) 
106

>  <original_smiles>  (330) 
O=c1n(-c2cccnc2)nc2cnccn12

>  <smiles>  (330) 
[H]c1nc([H])c(-n2nc3c([H])nc([H])c([H])n3c2=O)c([H])c1[H]

$$$$
106:0:1
     RDKit          3D

 23 25  0  0  1  0  0  0  0  0999 V2000
    0.5353   -6.2550    0.5412 O   0  0  0  0  0  0  0  0  0  0  0  0
    1.1695   -6.6790    1.5099 C   0  0  0  0  0  0  0  0  0  0  0  0
    2.4728   -6.4768    1.8222 N   0  0  0  0  0  0  0  0  0  0  0  0
    3.4204   -5.7512    1.0411 C   0  0  0  0  0  0  0  0  0  0  0  0
    3.0675   -4.6640    0.2070 C   0  0  0  0  0  0  0  0  0  0  0  0
    4.0825   -3.9743   -0.4823 C   0  0  0  0  0  0  0  0  0  0  0  0
    5.4133   -4.3987   -0.3183 C   0  0  0  0  0  0  0  0  0  0  0  0
    5.7698   -5.4248    0.4785 N   0  0  0  0  0  0  0  0  0  0  0  0
    4.7925   -6.0815    1.1345 C   0  0  0  0  0  0  0  0  0  0  0  0
    2.8199   -7.0671    3.0087 N   0  0  0  0  0  0  0  0  0  0  0  0
    1.7277   -7.6174    3.3920 C   0  0  0  0  0  0  0  0  0  0  0  0
    1.3865   -8.4187    4.6116 C   0  0  0  0  0  0  0  0  0  0  0  0
    0.2053   -8.8738    4.8116 N   0  0  0  0  0  0  0  0  0  0  0  0
   -0.8119   -8.6362    3.8622 C   0  0  0  0  0  0  0  0  0  0  0  0
   -0.5899   -7.9251    2.7298 C   0  0  0  0  0  0  0  0  0  0  0  0
    0.6960   -7.4149    2.5109 N   0  0  0  0  0  0  0  0  0  0  0  0
    2.0490   -4.3332    0.0962 H   0  0  0  0  0  0  0  0  0  0  0  0
    3.8460   -3.1428   -1.1279 H   0  0  0  0  0  0  0  0  0  0  0  0
    6.2207   -3.9034   -0.8421 H   0  0  0  0  0  0  0  0  0  0  0  0
    5.1265   -6.8893    1.7670 H   0  0  0  0  0  0  0  0  0  0  0  0
    2.2109   -8.5813    5.3131 H   0  0  0  0  0  0  0  0  0  0  0  0
   -1.7826   -9.0558    4.0891 H   0  0  0  0  0  0  0  0  0  0  0  0
   -1.3259   -7.7181    1.9659 H   0  0  0  0  0  0  0  0  0  0  0  0
  1  2  2  0
  2 16  1  0
  2  3  1  0
  3  4  1  0
  3 10  1  0
  4  9  1  0
  4  5  2  0
  5  6  1  0
  5 17  1  0
  6  7  2  0
  6 18  1  0
  7  8  1  0
  7 19  1  0
  8  9  2  0
  9 20  1  0
 10 11  2  0
 11 16  1  0
 11 12  1  0
 12 13  2  0
 12 21  1  0
 13 14  1  0
 14 15  2  0
 14 22  1  0
 15 16  1  0
 15 23  1  0
M  END
>  <i_m_ct_stereo_status>  (331) 
1

>  <s_m_source_file>  (331) 
/var/tmp/pbs.5076255.sched01/tmphrhi8tfx/132_dydaaau.sdf

>  <i_m_source_file_index>  (331) 
24

>  <i_lp_mmshare_version>  (331) 
48012

>  <i_f3d_flags>  (331) 
0

>  <s_epik_input>  (331) 
W2NIXTFuW2NIXVtjSF1uKGMxMiljKD1PKW4objIpLWMzW2NIXVtjSF1bY0hdbltjSF0z

>  <s_epik_cmdline>  (331) 
J2VwaWtfcHl0aG9uJywgJy1waHQnLCAnMi4wJywgJy1waCcsICc3LjAnLCAnLXRuJywgJzgnLCAnLW1hJywgJzIwMCcsICctaW1hZScsICc8aW5maWxlLm1hZT4nLCAnLW9tYWUnLCAnPG91dGZpbGUubWFlPic=

>  <r_lp_tautomer_probability>  (331) 
1

>  <r_epik_Ionization_Penalty>  (331) 
1.03274e-05

>  <r_epik_Ionization_Penalty_Charging>  (331) 
2.91624e-09

>  <r_epik_Ionization_Penalty_Neutral>  (331) 
1.03245e-05

>  <r_epik_State_Penalty>  (331) 
-0

>  <r_epik_Charging_Adjusted_Penalty>  (331) 
2.91624e-09

>  <i_epik_Tot_Q>  (331) 
0

>  <i_epik_Tot_abs_Q>  (331) 
0

>  <s_lp_Force_Field>  (331) 
OPLS3e

>  <r_lp_Energy>  (331) 
46.3431

>  <b_lp_Chiralities_Consistent>  (331) 
1

>  <s_lp_Variant>  (331) 
106:0-1

>  <s_i_glide_gridfile>  (331) 
pfpi4k_grid

>  <i_i_glide_lignum>  (331) 
24

>  <i_i_glide_rotatable_bonds>  (331) 
1

>  <r_i_docking_score>  (331) 
-3.76388

>  <r_i_glide_ligand_efficiency>  (331) 
-0.235243

>  <r_i_glide_ligand_efficiency_sa>  (331) 
-0.592774

>  <r_i_glide_ligand_efficiency_ln>  (331) 
-0.997692

>  <r_i_glide_gscore>  (331) 
-3.76388

>  <r_i_glide_lipo>  (331) 
-0.147842

>  <r_i_glide_hbond>  (331) 
-0.208029

>  <r_i_glide_metal>  (331) 
-0

>  <r_i_glide_rewards>  (331) 
-1.95549

>  <r_i_glide_evdw>  (331) 
-20.1116

>  <r_i_glide_ecoul>  (331) 
-4.59957

>  <r_i_glide_erotb>  (331) 
0.366921

>  <r_i_glide_esite>  (331) 
-0.123933

>  <r_i_glide_emodel>  (331) 
-31.497

>  <r_i_glide_energy>  (331) 
-24.7111

>  <r_i_glide_einternal>  (331) 
0.0711226

>  <r_i_glide_intrahb_reward>  (331) 
-0

>  <i_i_glide_confnum>  (331) 
5

>  <i_i_glide_posenum>  (331) 
13

>  <r_i_glide_eff_state_penalty>  (331) 
0

>  <ligand_id>  (331) 
106

>  <original_smiles>  (331) 
O=c1n(-c2cccnc2)nc2cnccn12

>  <smiles>  (331) 
[H]c1nc([H])c(-n2nc3c([H])nc([H])c([H])n3c2=O)c([H])c1[H]

$$$$
106:0:2
     RDKit          3D

 23 25  0  0  1  0  0  0  0  0999 V2000
   -2.1506    3.6005    4.8900 O   0  0  0  0  0  0  0  0  0  0  0  0
   -1.5495    2.5481    5.1236 C   0  0  0  0  0  0  0  0  0  0  0  0
   -1.4053    1.9058    6.3112 N   0  0  0  0  0  0  0  0  0  0  0  0
   -1.9109    2.3476    7.5676 C   0  0  0  0  0  0  0  0  0  0  0  0
   -1.1733    2.1286    8.7490 C   0  0  0  0  0  0  0  0  0  0  0  0
   -1.7168    2.5226    9.9848 C   0  0  0  0  0  0  0  0  0  0  0  0
   -2.9893    3.1240    9.9996 C   0  0  0  0  0  0  0  0  0  0  0  0
   -3.7045    3.3425    8.8771 N   0  0  0  0  0  0  0  0  0  0  0  0
   -3.1721    2.9600    7.6966 C   0  0  0  0  0  0  0  0  0  0  0  0
   -0.6575    0.7662    6.2017 N   0  0  0  0  0  0  0  0  0  0  0  0
   -0.3668    0.7336    4.9511 C   0  0  0  0  0  0  0  0  0  0  0  0
    0.4267   -0.2442    4.1407 C   0  0  0  0  0  0  0  0  0  0  0  0
    0.6075   -0.0986    2.8788 N   0  0  0  0  0  0  0  0  0  0  0  0
    0.0444    1.0144    2.2169 C   0  0  0  0  0  0  0  0  0  0  0  0
   -0.6836    1.9493    2.8759 C   0  0  0  0  0  0  0  0  0  0  0  0
   -0.8859    1.7917    4.2550 N   0  0  0  0  0  0  0  0  0  0  0  0
   -0.2090    1.6457    8.7109 H   0  0  0  0  0  0  0  0  0  0  0  0
   -1.1843    2.3477   10.9077 H   0  0  0  0  0  0  0  0  0  0  0  0
   -3.4344    3.4282   10.9380 H   0  0  0  0  0  0  0  0  0  0  0  0
   -3.7855    3.1267    6.8283 H   0  0  0  0  0  0  0  0  0  0  0  0
    0.8346   -1.0894    4.7039 H   0  0  0  0  0  0  0  0  0  0  0  0
    0.2276    1.0766    1.1523 H   0  0  0  0  0  0  0  0  0  0  0  0
   -1.1305    2.8265    2.4233 H   0  0  0  0  0  0  0  0  0  0  0  0
  1  2  2  0
  2 16  1  0
  2  3  1  0
  3  4  1  0
  3 10  1  0
  4  9  1  0
  4  5  2  0
  5  6  1  0
  5 17  1  0
  6  7  2  0
  6 18  1  0
  7  8  1  0
  7 19  1  0
  8  9  2  0
  9 20  1  0
 10 11  2  0
 11 16  1  0
 11 12  1  0
 12 13  2  0
 12 21  1  0
 13 14  1  0
 14 15  2  0
 14 22  1  0
 15 16  1  0
 15 23  1  0
M  END
>  <i_m_ct_stereo_status>  (332) 
1

>  <s_m_source_file>  (332) 
/var/tmp/pbs.5076255.sched01/tmphrhi8tfx/132_dydaaau.sdf

>  <i_m_source_file_index>  (332) 
24

>  <i_lp_mmshare_version>  (332) 
48012

>  <i_f3d_flags>  (332) 
0

>  <s_epik_input>  (332) 
W2NIXTFuW2NIXVtjSF1uKGMxMiljKD1PKW4objIpLWMzW2NIXVtjSF1bY0hdbltjSF0z

>  <s_epik_cmdline>  (332) 
J2VwaWtfcHl0aG9uJywgJy1waHQnLCAnMi4wJywgJy1waCcsICc3LjAnLCAnLXRuJywgJzgnLCAnLW1hJywgJzIwMCcsICctaW1hZScsICc8aW5maWxlLm1hZT4nLCAnLW9tYWUnLCAnPG91dGZpbGUubWFlPic=

>  <r_lp_tautomer_probability>  (332) 
1

>  <r_epik_Ionization_Penalty>  (332) 
1.03274e-05

>  <r_epik_Ionization_Penalty_Charging>  (332) 
2.91624e-09

>  <r_epik_Ionization_Penalty_Neutral>  (332) 
1.03245e-05

>  <r_epik_State_Penalty>  (332) 
-0

>  <r_epik_Charging_Adjusted_Penalty>  (332) 
2.91624e-09

>  <i_epik_Tot_Q>  (332) 
0

>  <i_epik_Tot_abs_Q>  (332) 
0

>  <s_lp_Force_Field>  (332) 
OPLS3e

>  <r_lp_Energy>  (332) 
46.3431

>  <b_lp_Chiralities_Consistent>  (332) 
1

>  <s_lp_Variant>  (332) 
106:0-1

>  <s_i_glide_gridfile>  (332) 
pfpi4k_grid

>  <i_i_glide_lignum>  (332) 
24

>  <i_i_glide_rotatable_bonds>  (332) 
1

>  <r_i_docking_score>  (332) 
-3.24546

>  <r_i_glide_ligand_efficiency>  (332) 
-0.202841

>  <r_i_glide_ligand_efficiency_sa>  (332) 
-0.511127

>  <r_i_glide_ligand_efficiency_ln>  (332) 
-0.860273

>  <r_i_glide_gscore>  (332) 
-3.24546

>  <r_i_glide_lipo>  (332) 
-0.124056

>  <r_i_glide_hbond>  (332) 
0

>  <r_i_glide_metal>  (332) 
-0

>  <r_i_glide_rewards>  (332) 
-1.95549

>  <r_i_glide_evdw>  (332) 
-22.2094

>  <r_i_glide_ecoul>  (332) 
-2.50264

>  <r_i_glide_erotb>  (332) 
0.366921

>  <r_i_glide_esite>  (332) 
-0.0469712

>  <r_i_glide_emodel>  (332) 
-30.4599

>  <r_i_glide_energy>  (332) 
-24.712

>  <r_i_glide_einternal>  (332) 
0.291519

>  <r_i_glide_intrahb_reward>  (332) 
-0

>  <i_i_glide_confnum>  (332) 
5

>  <i_i_glide_posenum>  (332) 
34

>  <r_i_glide_eff_state_penalty>  (332) 
0

>  <ligand_id>  (332) 
106

>  <original_smiles>  (332) 
O=c1n(-c2cccnc2)nc2cnccn12

>  <smiles>  (332) 
[H]c1nc([H])c(-n2nc3c([H])nc([H])c([H])n3c2=O)c([H])c1[H]

$$$$
107:0:0
     RDKit          3D

 70 74  0  0  1  0  0  0  0  0999 V2000
    3.6660    2.8181    8.1639 C   0  0  0  0  0  0  0  0  0  0  0  0
    2.6970    3.1365    6.9920 C   0  0  2  0  0  0  0  0  0  0  0  0
    1.4362    3.9284    7.6196 C   0  0  0  0  0  0  0  0  0  0  0  0
    0.5006    3.4362    8.8336 C   0  0  0  0  0  0  0  0  0  0  0  0
   -0.3965    2.1750    8.5958 C   0  0  1  0  0  0  0  0  0  0  0  0
   -0.3645    0.8383    9.1632 O   0  0  0  0  0  0  0  0  0  0  0  0
   -0.2463   -0.2675    8.0072 O   0  0  0  0  0  0  0  0  0  0  0  0
    0.7907    0.1451    7.1300 C   0  0  1  0  0  0  0  0  0  0  0  0
    2.0086    0.0945    8.1258 C   0  0  0  0  0  0  0  0  0  0  0  0
    1.2085   -0.5872    5.9918 O   0  0  0  0  0  0  0  0  0  0  0  0
    2.7046   -0.2520    5.7222 O   0  0  0  0  0  0  0  0  0  0  0  0
    3.0112    0.9086    4.8883 C   0  0  1  0  0  0  0  0  0  0  0  0
    4.5847    0.6552    4.8139 C   0  0  1  0  0  0  0  0  0  0  0  0
    5.4556    0.9311    6.0402 C   0  0  0  0  0  0  0  0  0  0  0  0
    5.0138   -0.7531    4.3222 C   0  0  0  0  0  0  0  0  0  0  0  0
    4.1585   -1.3249    3.2049 C   0  0  0  0  0  0  0  0  0  0  0  0
    3.5393   -0.1741    2.4401 C   0  0  1  0  0  0  0  0  0  0  0  0
    3.0980   -0.6345    1.0361 C   0  0  0  0  0  0  0  0  0  0  0  0
    2.5313    0.6333    3.3482 C   0  0  1  0  0  0  0  0  0  0  0  0
    1.0676    0.1612    3.0967 C   0  0  0  0  0  0  0  0  0  0  0  0
    0.0349    1.2686    2.8395 C   0  0  0  0  0  0  0  0  0  0  0  0
   -0.4190    2.0266    4.0898 C   0  0  2  0  0  0  0  0  0  0  0  0
   -1.8907    2.4504    3.8994 C   0  0  0  0  0  0  0  0  0  0  0  0
    0.3985    3.3397    4.2928 C   0  0  0  0  0  0  0  0  0  0  0  0
    1.9510    3.3938    4.4625 C   0  0  0  0  0  0  0  0  0  0  0  0
    2.7758    2.4782    5.4486 C   0  0  1  0  0  0  0  0  0  0  0  0
   -0.4925    1.0384    5.1333 O   0  0  0  0  0  0  0  0  0  0  0  0
    0.0114    1.3176    6.4292 C   0  0  1  0  0  0  0  0  0  0  0  0
   -1.0265    2.1020    7.2316 C   0  0  1  0  0  0  0  0  0  0  0  0
   -2.3103    1.5114    7.3243 O   0  0  0  0  0  0  0  0  0  0  0  0
    3.1251    2.4742    9.0427 H   0  0  0  0  0  0  0  0  0  0  0  0
    4.1820    3.7227    8.4879 H   0  0  0  0  0  0  0  0  0  0  0  0
    4.4324    2.0833    7.9934 H   0  0  0  0  0  0  0  0  0  0  0  0
    3.2223    4.0401    6.6828 H   0  0  0  0  0  0  0  0  0  0  0  0
    1.8646    4.8489    8.0134 H   0  0  0  0  0  0  0  0  0  0  0  0
    0.8054    4.3073    6.8291 H   0  0  0  0  0  0  0  0  0  0  0  0
    1.0836    3.3484    9.7650 H   0  0  0  0  0  0  0  0  0  0  0  0
   -0.1782    4.2659    9.0414 H   0  0  0  0  0  0  0  0  0  0  0  0
    0.6297    1.9681    8.4852 H   0  0  0  0  0  0  0  0  0  0  0  0
    2.2393   -0.9521    8.3138 H   0  0  0  0  0  0  0  0  0  0  0  0
    1.8881    0.5103    9.1249 H   0  0  0  0  0  0  0  0  0  0  0  0
    2.9251    0.5255    7.7648 H   0  0  0  0  0  0  0  0  0  0  0  0
    4.9773    1.3508    4.0759 H   0  0  0  0  0  0  0  0  0  0  0  0
    5.1143    0.3707    6.9092 H   0  0  0  0  0  0  0  0  0  0  0  0
    5.5252    1.9951    6.2544 H   0  0  0  0  0  0  0  0  0  0  0  0
    6.4866    0.6187    5.8647 H   0  0  0  0  0  0  0  0  0  0  0  0
    6.0244   -0.6510    3.9289 H   0  0  0  0  0  0  0  0  0  0  0  0
    5.0827   -1.4723    5.1426 H   0  0  0  0  0  0  0  0  0  0  0  0
    4.7702   -1.9532    2.5516 H   0  0  0  0  0  0  0  0  0  0  0  0
    3.3771   -1.9599    3.6163 H   0  0  0  0  0  0  0  0  0  0  0  0
    4.3454    0.5171    2.1907 H   0  0  0  0  0  0  0  0  0  0  0  0
    2.4588   -1.5167    1.0658 H   0  0  0  0  0  0  0  0  0  0  0  0
    3.9569   -0.8993    0.4194 H   0  0  0  0  0  0  0  0  0  0  0  0
    2.5555    0.1449    0.5049 H   0  0  0  0  0  0  0  0  0  0  0  0
    2.5934    1.5648    2.8012 H   0  0  0  0  0  0  0  0  0  0  0  0
    0.9978   -0.4128    2.1822 H   0  0  0  0  0  0  0  0  0  0  0  0
    0.7248   -0.5766    3.8076 H   0  0  0  0  0  0  0  0  0  0  0  0
    0.3758    1.9589    2.0639 H   0  0  0  0  0  0  0  0  0  0  0  0
   -0.8330    0.7713    2.4007 H   0  0  0  0  0  0  0  0  0  0  0  0
   -2.0168    3.0763    3.0149 H   0  0  0  0  0  0  0  0  0  0  0  0
   -2.2730    3.0058    4.7561 H   0  0  0  0  0  0  0  0  0  0  0  0
   -2.5406    1.5836    3.7789 H   0  0  0  0  0  0  0  0  0  0  0  0
    0.2121    3.9381    3.3992 H   0  0  0  0  0  0  0  0  0  0  0  0
   -0.0915    3.9268    5.0583 H   0  0  0  0  0  0  0  0  0  0  0  0
    2.4120    3.4136    3.4795 H   0  0  0  0  0  0  0  0  0  0  0  0
    2.1426    4.4216    4.7754 H   0  0  0  0  0  0  0  0  0  0  0  0
    3.7566    2.8703    5.1784 H   0  0  0  0  0  0  0  0  0  0  0  0
    0.7390    2.0357    6.2750 H   0  0  0  0  0  0  0  0  0  0  0  0
   -1.1661    3.1030    6.8256 H   0  0  0  0  0  0  0  0  0  0  0  0
   -2.8878    2.1471    7.7261 H   0  0  0  0  0  0  0  0  0  0  0  0
  1  2  1  0
  1 31  1  0
  1 32  1  0
  1 33  1  0
  2 26  1  0
  2  3  1  0
  2 34  1  6
  3  4  1  0
  3 35  1  0
  3 36  1  0
  4  5  1  0
  4 37  1  0
  4 38  1  0
  5 29  1  0
  5  6  1  0
  5 39  1  1
  6  7  1  0
  7  8  1  0
  8 28  1  0
  8  9  1  1
  8 10  1  0
  9 40  1  0
  9 41  1  0
  9 42  1  0
 10 11  1  0
 12 11  1  1
 12 19  1  0
 12 26  1  0
 12 13  1  0
 13 14  1  0
 13 15  1  0
 13 43  1  6
 14 44  1  0
 14 45  1  0
 14 46  1  0
 15 16  1  0
 15 47  1  0
 15 48  1  0
 16 17  1  0
 16 49  1  0
 16 50  1  0
 17 18  1  0
 17 19  1  0
 17 51  1  6
 18 52  1  0
 18 53  1  0
 18 54  1  0
 19 20  1  0
 19 55  1  6
 20 21  1  0
 20 56  1  0
 20 57  1  0
 21 22  1  0
 21 58  1  0
 21 59  1  0
 22 23  1  6
 22 24  1  0
 22 27  1  0
 23 60  1  0
 23 61  1  0
 23 62  1  0
 24 25  1  0
 24 63  1  0
 24 64  1  0
 25 26  1  0
 25 65  1  0
 25 66  1  0
 26 67  1  6
 27 28  1  0
 28 29  1  0
 28 68  1  6
 29 30  1  0
 29 69  1  6
 30 70  1  0
M  END
>  <i_m_ct_stereo_status>  (333) 
1

>  <s_m_source_file>  (333) 
/var/tmp/pbs.5076255.sched01/tmphrhi8tfx/132_dydaaau.sdf

>  <i_m_source_file_index>  (333) 
25

>  <i_lp_mmshare_version>  (333) 
48012

>  <i_f3d_flags>  (333) 
0

>  <s_epik_input>  (333) 
W09IXVtDQEBIXTFbQ0BIXShPMilbQ0BdKFtDSDNdKShPTzMpT09bQ0BASF0xW0NIMl1bQ0gyXVtDQEBIXShbQ0gzXSlbQ0BASF00W0NIMl1bQ0gyXVtDQEBdMihbQ0gzXSlbQ0gyXVtDSDJdW0NAQEhdKFtDQF0zNDUpW0NASF0oW0NIM10pW0NIMl1bQ0gyXVtDQEBIXTVbQ0gzXQ==

>  <s_epik_cmdline>  (333) 
J2VwaWtfcHl0aG9uJywgJy1waHQnLCAnMi4wJywgJy1waCcsICc3LjAnLCAnLXRuJywgJzgnLCAnLW1hJywgJzIwMCcsICctaW1hZScsICc8aW5maWxlLm1hZT4nLCAnLW9tYWUnLCAnPG91dGZpbGUubWFlPic=

>  <r_lp_tautomer_probability>  (333) 
1

>  <r_epik_Ionization_Penalty>  (333) 
9.73324e-06

>  <r_epik_Ionization_Penalty_Charging>  (333) 
0

>  <r_epik_Ionization_Penalty_Neutral>  (333) 
9.73324e-06

>  <r_epik_State_Penalty>  (333) 
-0

>  <r_epik_Charging_Adjusted_Penalty>  (333) 
0

>  <i_epik_Tot_Q>  (333) 
0

>  <i_epik_Tot_abs_Q>  (333) 
0

>  <s_lp_Force_Field>  (333) 
OPLS3e

>  <r_lp_Energy>  (333) 
269.037

>  <b_lp_Chiralities_Consistent>  (333) 
1

>  <s_lp_Variant>  (333) 
107:0-1

>  <s_i_glide_gridfile>  (333) 
pfpi4k_grid

>  <i_i_glide_lignum>  (333) 
25

>  <i_i_glide_rotatable_bonds>  (333) 
1

>  <r_i_docking_score>  (333) 
-2.35558

>  <r_i_glide_ligand_efficiency>  (333) 
-0.0785194

>  <r_i_glide_ligand_efficiency_sa>  (333) 
-0.243978

>  <r_i_glide_ligand_efficiency_ln>  (333) 
-0.535214

>  <r_i_glide_gscore>  (333) 
-2.35558

>  <r_i_glide_lipo>  (333) 
-0.168055

>  <r_i_glide_hbond>  (333) 
-0.00572389

>  <r_i_glide_metal>  (333) 
-0

>  <r_i_glide_rewards>  (333) 
-0.51429

>  <r_i_glide_evdw>  (333) 
-21.6009

>  <r_i_glide_ecoul>  (333) 
-3.85074

>  <r_i_glide_erotb>  (333) 
0

>  <r_i_glide_esite>  (333) 
-0.00985905

>  <r_i_glide_emodel>  (333) 
-29.3298

>  <r_i_glide_energy>  (333) 
-25.4516

>  <r_i_glide_einternal>  (333) 
0.327264

>  <r_i_glide_intrahb_reward>  (333) 
-0

>  <i_i_glide_confnum>  (333) 
1

>  <i_i_glide_posenum>  (333) 
30

>  <r_i_glide_eff_state_penalty>  (333) 
0

>  <ligand_id>  (333) 
107

>  <original_smiles>  (333) 
CC1CCC2OOC3(C)OOC45C(C)CCC(C)C4CCC(C)(CCC15)OC3C2O

>  <smiles>  (333) 
[H]OC1([H])C2([H])OOC3(C([H])([H])[H])OOC45C([H])(C([H])([H])[H])C([H])([H])C([H])([H])C([H])(C([H])([H])[H])C4([H])C([H])([H])C([H])([H])C(C([H])([H])[H])(OC13[H])C([H])([H])C([H])([H])C5([H])C([H])(C([H])([H])[H])C([H])([H])C2([H])[H]

$$$$
107:0:1
     RDKit          3D

 70 74  0  0  1  0  0  0  0  0999 V2000
    4.8000   -6.4293    0.5042 C   0  0  0  0  0  0  0  0  0  0  0  0
    3.6078   -5.9698    1.3899 C   0  0  2  0  0  0  0  0  0  0  0  0
    2.6146   -5.1290    0.4433 C   0  0  0  0  0  0  0  0  0  0  0  0
    2.9879   -3.8503   -0.4640 C   0  0  0  0  0  0  0  0  0  0  0  0
    3.4028   -2.5235    0.2571 C   0  0  1  0  0  0  0  0  0  0  0  0
    4.6672   -1.8172    0.3333 O   0  0  0  0  0  0  0  0  0  0  0  0
    5.1147   -1.6128    1.8581 O   0  0  0  0  0  0  0  0  0  0  0  0
    4.9887   -2.8825    2.4969 C   0  0  1  0  0  0  0  0  0  0  0  0
    6.0211   -3.7245    1.6618 C   0  0  0  0  0  0  0  0  0  0  0  0
    5.3174   -3.1352    3.8553 O   0  0  0  0  0  0  0  0  0  0  0  0
    5.7109   -4.6368    3.9994 O   0  0  0  0  0  0  0  0  0  0  0  0
    4.6521   -5.6101    4.2641 C   0  0  1  0  0  0  0  0  0  0  0  0
    5.6117   -6.8633    4.4951 C   0  0  1  0  0  0  0  0  0  0  0  0
    6.3272   -7.4948    3.3008 C   0  0  0  0  0  0  0  0  0  0  0  0
    6.7222   -6.6629    5.5674 C   0  0  0  0  0  0  0  0  0  0  0  0
    6.2897   -5.8703    6.7897 C   0  0  0  0  0  0  0  0  0  0  0  0
    4.7894   -6.0275    6.9578 C   0  0  1  0  0  0  0  0  0  0  0  0
    4.3598   -5.6999    8.4070 C   0  0  0  0  0  0  0  0  0  0  0  0
    4.0171   -5.3640    5.7491 C   0  0  1  0  0  0  0  0  0  0  0  0
    3.5406   -3.9319    6.1303 C   0  0  0  0  0  0  0  0  0  0  0  0
    2.0662   -3.6101    5.8491 C   0  0  0  0  0  0  0  0  0  0  0  0
    1.7458   -3.3302    4.3809 C   0  0  2  0  0  0  0  0  0  0  0  0
    0.6051   -2.2916    4.3205 C   0  0  0  0  0  0  0  0  0  0  0  0
    1.2366   -4.6148    3.6640 C   0  0  0  0  0  0  0  0  0  0  0  0
    2.0414   -5.9449    3.5301 C   0  0  0  0  0  0  0  0  0  0  0  0
    3.5451   -6.0326    3.0659 C   0  0  1  0  0  0  0  0  0  0  0  0
    2.8786   -2.6128    3.8737 O   0  0  0  0  0  0  0  0  0  0  0  0
    3.4263   -2.9065    2.6020 C   0  0  1  0  0  0  0  0  0  0  0  0
    2.6129   -2.2292    1.5044 C   0  0  1  0  0  0  0  0  0  0  0  0
    2.3875   -0.8470    1.6492 O   0  0  0  0  0  0  0  0  0  0  0  0
    5.1309   -5.6333   -0.1596 H   0  0  0  0  0  0  0  0  0  0  0  0
    4.4939   -7.2379   -0.1631 H   0  0  0  0  0  0  0  0  0  0  0  0
    5.6888   -6.7782    1.0053 H   0  0  0  0  0  0  0  0  0  0  0  0
    3.0598   -6.9106    1.2880 H   0  0  0  0  0  0  0  0  0  0  0  0
    2.2742   -5.8516   -0.2980 H   0  0  0  0  0  0  0  0  0  0  0  0
    1.7090   -4.9258    0.9818 H   0  0  0  0  0  0  0  0  0  0  0  0
    3.7115   -4.1383   -1.2481 H   0  0  0  0  0  0  0  0  0  0  0  0
    2.0876   -3.6220   -1.0410 H   0  0  0  0  0  0  0  0  0  0  0  0
    4.0374   -3.3336    0.4794 H   0  0  0  0  0  0  0  0  0  0  0  0
    7.0141   -3.3973    1.9400 H   0  0  0  0  0  0  0  0  0  0  0  0
    6.0285   -3.6307    0.5774 H   0  0  0  0  0  0  0  0  0  0  0  0
    6.0167   -4.7864    1.8361 H   0  0  0  0  0  0  0  0  0  0  0  0
    4.9820   -7.6780    4.8626 H   0  0  0  0  0  0  0  0  0  0  0  0
    6.9244   -6.7648    2.7540 H   0  0  0  0  0  0  0  0  0  0  0  0
    5.6333   -8.0138    2.6441 H   0  0  0  0  0  0  0  0  0  0  0  0
    7.0249   -8.2689    3.6273 H   0  0  0  0  0  0  0  0  0  0  0  0
    7.0165   -7.6543    5.9099 H   0  0  0  0  0  0  0  0  0  0  0  0
    7.6261   -6.2176    5.1426 H   0  0  0  0  0  0  0  0  0  0  0  0
    6.8240   -6.2266    7.6754 H   0  0  0  0  0  0  0  0  0  0  0  0
    6.5381   -4.8223    6.6654 H   0  0  0  0  0  0  0  0  0  0  0  0
    4.5758   -7.0979    6.9073 H   0  0  0  0  0  0  0  0  0  0  0  0
    4.7305   -4.7309    8.7387 H   0  0  0  0  0  0  0  0  0  0  0  0
    4.7678   -6.4317    9.1063 H   0  0  0  0  0  0  0  0  0  0  0  0
    3.2778   -5.7172    8.5238 H   0  0  0  0  0  0  0  0  0  0  0  0
    3.1204   -5.9572    5.8376 H   0  0  0  0  0  0  0  0  0  0  0  0
    3.5944   -3.7750    7.2000 H   0  0  0  0  0  0  0  0  0  0  0  0
    4.2141   -3.1497    5.7990 H   0  0  0  0  0  0  0  0  0  0  0  0
    1.4073   -4.3796    6.2547 H   0  0  0  0  0  0  0  0  0  0  0  0
    1.8410   -2.7128    6.4295 H   0  0  0  0  0  0  0  0  0  0  0  0
   -0.2942   -2.6486    4.8260 H   0  0  0  0  0  0  0  0  0  0  0  0
    0.3216   -2.0562    3.2937 H   0  0  0  0  0  0  0  0  0  0  0  0
    0.8933   -1.3483    4.7905 H   0  0  0  0  0  0  0  0  0  0  0  0
    0.3248   -4.9046    4.1849 H   0  0  0  0  0  0  0  0  0  0  0  0
    0.8585   -4.3156    2.7032 H   0  0  0  0  0  0  0  0  0  0  0  0
    1.8786   -6.5502    4.4166 H   0  0  0  0  0  0  0  0  0  0  0  0
    1.4739   -6.5274    2.8040 H   0  0  0  0  0  0  0  0  0  0  0  0
    3.6378   -7.1156    3.1689 H   0  0  0  0  0  0  0  0  0  0  0  0
    3.1891   -3.9027    2.4469 H   0  0  0  0  0  0  0  0  0  0  0  0
    1.6269   -2.6662    1.4335 H   0  0  0  0  0  0  0  0  0  0  0  0
    1.8064   -0.5806    0.9332 H   0  0  0  0  0  0  0  0  0  0  0  0
  1  2  1  0
  1 31  1  0
  1 32  1  0
  1 33  1  0
  2 26  1  0
  2  3  1  0
  2 34  1  6
  3  4  1  0
  3 35  1  0
  3 36  1  0
  4  5  1  0
  4 37  1  0
  4 38  1  0
  5 29  1  0
  5  6  1  0
  5 39  1  6
  6  7  1  0
  7  8  1  0
  8 28  1  0
  8  9  1  6
  8 10  1  0
  9 40  1  0
  9 41  1  0
  9 42  1  0
 10 11  1  0
 12 11  1  6
 12 19  1  0
 12 26  1  0
 12 13  1  0
 13 14  1  0
 13 15  1  0
 13 43  1  1
 14 44  1  0
 14 45  1  0
 14 46  1  0
 15 16  1  0
 15 47  1  0
 15 48  1  0
 16 17  1  0
 16 49  1  0
 16 50  1  0
 17 18  1  0
 17 19  1  0
 17 51  1  6
 18 52  1  0
 18 53  1  0
 18 54  1  0
 19 20  1  0
 19 55  1  6
 20 21  1  0
 20 56  1  0
 20 57  1  0
 21 22  1  0
 21 58  1  0
 21 59  1  0
 22 23  1  1
 22 24  1  0
 22 27  1  0
 23 60  1  0
 23 61  1  0
 23 62  1  0
 24 25  1  0
 24 63  1  0
 24 64  1  0
 25 26  1  0
 25 65  1  0
 25 66  1  0
 26 67  1  6
 27 28  1  0
 28 29  1  0
 28 68  1  6
 29 30  1  0
 29 69  1  6
 30 70  1  0
M  END
>  <i_m_ct_stereo_status>  (334) 
1

>  <s_m_source_file>  (334) 
/var/tmp/pbs.5076255.sched01/tmphrhi8tfx/132_dydaaau.sdf

>  <i_m_source_file_index>  (334) 
25

>  <i_lp_mmshare_version>  (334) 
48012

>  <i_f3d_flags>  (334) 
0

>  <s_epik_input>  (334) 
W09IXVtDQEBIXTFbQ0BIXShPMilbQ0BdKFtDSDNdKShPTzMpT09bQ0BASF0xW0NIMl1bQ0gyXVtDQEBIXShbQ0gzXSlbQ0BASF00W0NIMl1bQ0gyXVtDQEBdMihbQ0gzXSlbQ0gyXVtDSDJdW0NAQEhdKFtDQF0zNDUpW0NASF0oW0NIM10pW0NIMl1bQ0gyXVtDQEBIXTVbQ0gzXQ==

>  <s_epik_cmdline>  (334) 
J2VwaWtfcHl0aG9uJywgJy1waHQnLCAnMi4wJywgJy1waCcsICc3LjAnLCAnLXRuJywgJzgnLCAnLW1hJywgJzIwMCcsICctaW1hZScsICc8aW5maWxlLm1hZT4nLCAnLW9tYWUnLCAnPG91dGZpbGUubWFlPic=

>  <r_lp_tautomer_probability>  (334) 
1

>  <r_epik_Ionization_Penalty>  (334) 
9.73324e-06

>  <r_epik_Ionization_Penalty_Charging>  (334) 
0

>  <r_epik_Ionization_Penalty_Neutral>  (334) 
9.73324e-06

>  <r_epik_State_Penalty>  (334) 
-0

>  <r_epik_Charging_Adjusted_Penalty>  (334) 
0

>  <i_epik_Tot_Q>  (334) 
0

>  <i_epik_Tot_abs_Q>  (334) 
0

>  <s_lp_Force_Field>  (334) 
OPLS3e

>  <r_lp_Energy>  (334) 
269.037

>  <b_lp_Chiralities_Consistent>  (334) 
1

>  <s_lp_Variant>  (334) 
107:0-1

>  <s_i_glide_gridfile>  (334) 
pfpi4k_grid

>  <i_i_glide_lignum>  (334) 
25

>  <i_i_glide_rotatable_bonds>  (334) 
1

>  <r_i_docking_score>  (334) 
-2.3229

>  <r_i_glide_ligand_efficiency>  (334) 
-0.07743

>  <r_i_glide_ligand_efficiency_sa>  (334) 
-0.240593

>  <r_i_glide_ligand_efficiency_ln>  (334) 
-0.527788

>  <r_i_glide_gscore>  (334) 
-2.3229

>  <r_i_glide_lipo>  (334) 
-0.303127

>  <r_i_glide_hbond>  (334) 
0

>  <r_i_glide_metal>  (334) 
-0

>  <r_i_glide_rewards>  (334) 
-0.5817

>  <r_i_glide_evdw>  (334) 
-19.2603

>  <r_i_glide_ecoul>  (334) 
-3.16706

>  <r_i_glide_erotb>  (334) 
0

>  <r_i_glide_esite>  (334) 
0

>  <r_i_glide_emodel>  (334) 
-26.1949

>  <r_i_glide_energy>  (334) 
-22.4273

>  <r_i_glide_einternal>  (334) 
0.323669

>  <r_i_glide_intrahb_reward>  (334) 
-0

>  <i_i_glide_confnum>  (334) 
2

>  <i_i_glide_posenum>  (334) 
34

>  <r_i_glide_eff_state_penalty>  (334) 
0

>  <ligand_id>  (334) 
107

>  <original_smiles>  (334) 
CC1CCC2OOC3(C)OOC45C(C)CCC(C)C4CCC(C)(CCC15)OC3C2O

>  <smiles>  (334) 
[H]OC1([H])C2([H])OOC3(C([H])([H])[H])OOC45C([H])(C([H])([H])[H])C([H])([H])C([H])([H])C([H])(C([H])([H])[H])C4([H])C([H])([H])C([H])([H])C(C([H])([H])[H])(OC13[H])C([H])([H])C([H])([H])C5([H])C([H])(C([H])([H])[H])C([H])([H])C2([H])[H]

$$$$
107:0:2
     RDKit          3D

 70 74  0  0  1  0  0  0  0  0999 V2000
    4.0629   -3.0143    7.1407 C   0  0  0  0  0  0  0  0  0  0  0  0
    3.8680   -1.6565    6.4117 C   0  0  2  0  0  0  0  0  0  0  0  0
    2.9942   -0.7132    7.3902 C   0  0  0  0  0  0  0  0  0  0  0  0
    1.5652   -1.0678    8.0407 C   0  0  0  0  0  0  0  0  0  0  0  0
    0.3468   -1.2097    7.0703 C   0  0  1  0  0  0  0  0  0  0  0  0
   -0.4757   -2.3454    6.6934 O   0  0  0  0  0  0  0  0  0  0  0  0
   -0.4947   -2.5333    5.1050 O   0  0  0  0  0  0  0  0  0  0  0  0
    0.8632   -2.4788    4.6689 C   0  0  1  0  0  0  0  0  0  0  0  0
    1.4550   -3.7316    5.4204 C   0  0  0  0  0  0  0  0  0  0  0  0
    1.2822   -2.6331    3.3210 O   0  0  0  0  0  0  0  0  0  0  0  0
    2.7447   -3.1782    3.3205 O   0  0  0  0  0  0  0  0  0  0  0  0
    3.8501   -2.2182    3.3854 C   0  0  1  0  0  0  0  0  0  0  0  0
    5.0211   -3.2814    3.1760 C   0  0  1  0  0  0  0  0  0  0  0  0
    5.3954   -4.2303    4.3141 C   0  0  0  0  0  0  0  0  0  0  0  0
    4.8984   -4.1880    1.9183 C   0  0  0  0  0  0  0  0  0  0  0  0
    4.3555   -3.4865    0.6849 C   0  0  0  0  0  0  0  0  0  0  0  0
    4.6853   -2.0089    0.7895 C   0  0  1  0  0  0  0  0  0  0  0  0
    4.6272   -1.3371   -0.6018 C   0  0  0  0  0  0  0  0  0  0  0  0
    3.9175   -1.3476    2.0046 C   0  0  1  0  0  0  0  0  0  0  0  0
    2.6174   -0.6554    1.5238 C   0  0  0  0  0  0  0  0  0  0  0  0
    2.3894    0.7847    1.9906 C   0  0  0  0  0  0  0  0  0  0  0  0
    1.9120    0.9275    3.4329 C   0  0  2  0  0  0  0  0  0  0  0  0
    0.9955    2.1653    3.5197 C   0  0  0  0  0  0  0  0  0  0  0  0
    3.1096    1.1711    4.4065 C   0  0  0  0  0  0  0  0  0  0  0  0
    4.3209    0.1983    4.5769 C   0  0  0  0  0  0  0  0  0  0  0  0
    4.1957   -1.3610    4.7926 C   0  0  1  0  0  0  0  0  0  0  0  0
    0.9972   -0.1611    3.6499 O   0  0  0  0  0  0  0  0  0  0  0  0
    1.0665   -0.9292    4.8373 C   0  0  1  0  0  0  0  0  0  0  0  0
    0.3196   -0.2048    5.9559 C   0  0  1  0  0  0  0  0  0  0  0  0
   -1.0086    0.1696    5.6564 O   0  0  0  0  0  0  0  0  0  0  0  0
    3.1435   -3.3434    7.6184 H   0  0  0  0  0  0  0  0  0  0  0  0
    4.7813   -2.9072    7.9544 H   0  0  0  0  0  0  0  0  0  0  0  0
    4.3971   -3.8529    6.5568 H   0  0  0  0  0  0  0  0  0  0  0  0
    4.8263   -1.2443    6.7280 H   0  0  0  0  0  0  0  0  0  0  0  0
    3.6232   -0.5814    8.2687 H   0  0  0  0  0  0  0  0  0  0  0  0
    2.9593    0.2932    6.9995 H   0  0  0  0  0  0  0  0  0  0  0  0
    1.6476   -1.9323    8.7196 H   0  0  0  0  0  0  0  0  0  0  0  0
    1.3301   -0.2378    8.7098 H   0  0  0  0  0  0  0  0  0  0  0  0
    1.1167   -1.8970    6.8547 H   0  0  0  0  0  0  0  0  0  0  0  0
    1.0910   -4.6281    4.9207 H   0  0  0  0  0  0  0  0  0  0  0  0
    1.1913   -3.8894    6.4634 H   0  0  0  0  0  0  0  0  0  0  0  0
    2.5283   -3.8166    5.4088 H   0  0  0  0  0  0  0  0  0  0  0  0
    5.9309   -2.6971    3.0265 H   0  0  0  0  0  0  0  0  0  0  0  0
    4.5379   -4.8099    4.6491 H   0  0  0  0  0  0  0  0  0  0  0  0
    5.8708   -3.7038    5.1378 H   0  0  0  0  0  0  0  0  0  0  0  0
    6.1428   -4.9558    3.9859 H   0  0  0  0  0  0  0  0  0  0  0  0
    5.8978   -4.5466    1.6808 H   0  0  0  0  0  0  0  0  0  0  0  0
    4.3037   -5.0840    2.1245 H   0  0  0  0  0  0  0  0  0  0  0  0
    4.7915   -3.9279   -0.2171 H   0  0  0  0  0  0  0  0  0  0  0  0
    3.2797   -3.6226    0.6148 H   0  0  0  0  0  0  0  0  0  0  0  0
    5.7494   -1.9345    1.0197 H   0  0  0  0  0  0  0  0  0  0  0  0
    3.6845   -1.5300   -1.1175 H   0  0  0  0  0  0  0  0  0  0  0  0
    5.4133   -1.7225   -1.2515 H   0  0  0  0  0  0  0  0  0  0  0  0
    4.7663   -0.2579   -0.5352 H   0  0  0  0  0  0  0  0  0  0  0  0
    4.6065   -0.5261    2.1482 H   0  0  0  0  0  0  0  0  0  0  0  0
    2.6270   -0.5277    0.4520 H   0  0  0  0  0  0  0  0  0  0  0  0
    1.7316   -1.2700    1.6215 H   0  0  0  0  0  0  0  0  0  0  0  0
    3.2734    1.4000    1.8049 H   0  0  0  0  0  0  0  0  0  0  0  0
    1.6218    1.1893    1.3289 H   0  0  0  0  0  0  0  0  0  0  0  0
    1.5171    3.0711    3.2098 H   0  0  0  0  0  0  0  0  0  0  0  0
    0.6322    2.3299    4.5350 H   0  0  0  0  0  0  0  0  0  0  0  0
    0.1177    2.0637    2.8747 H   0  0  0  0  0  0  0  0  0  0  0  0
    3.5662    2.1022    4.0705 H   0  0  0  0  0  0  0  0  0  0  0  0
    2.7081    1.4601    5.3687 H   0  0  0  0  0  0  0  0  0  0  0  0
    5.0639    0.4228    3.8178 H   0  0  0  0  0  0  0  0  0  0  0  0
    4.8405    0.5819    5.4573 H   0  0  0  0  0  0  0  0  0  0  0  0
    5.2671   -1.5635    4.8266 H   0  0  0  0  0  0  0  0  0  0  0  0
    2.0492   -0.8492    5.1484 H   0  0  0  0  0  0  0  0  0  0  0  0
    0.8407    0.7028    6.2536 H   0  0  0  0  0  0  0  0  0  0  0  0
   -0.9515    0.7561    4.9099 H   0  0  0  0  0  0  0  0  0  0  0  0
  1  2  1  0
  1 31  1  0
  1 32  1  0
  1 33  1  0
  2 26  1  0
  2  3  1  0
  2 34  1  1
  3  4  1  0
  3 35  1  0
  3 36  1  0
  4  5  1  0
  4 37  1  0
  4 38  1  0
  5 29  1  0
  5  6  1  0
  5 39  1  1
  6  7  1  0
  7  8  1  0
  8 28  1  0
  8  9  1  1
  8 10  1  0
  9 40  1  0
  9 41  1  0
  9 42  1  0
 10 11  1  0
 12 11  1  1
 12 19  1  0
 12 26  1  0
 12 13  1  0
 13 14  1  0
 13 15  1  0
 13 43  1  6
 14 44  1  0
 14 45  1  0
 14 46  1  0
 15 16  1  0
 15 47  1  0
 15 48  1  0
 16 17  1  0
 16 49  1  0
 16 50  1  0
 17 18  1  0
 17 19  1  0
 17 51  1  1
 18 52  1  0
 18 53  1  0
 18 54  1  0
 19 20  1  0
 19 55  1  1
 20 21  1  0
 20 56  1  0
 20 57  1  0
 21 22  1  0
 21 58  1  0
 21 59  1  0
 22 23  1  6
 22 24  1  0
 22 27  1  0
 23 60  1  0
 23 61  1  0
 23 62  1  0
 24 25  1  0
 24 63  1  0
 24 64  1  0
 25 26  1  0
 25 65  1  0
 25 66  1  0
 26 67  1  1
 27 28  1  0
 28 29  1  0
 28 68  1  1
 29 30  1  0
 29 69  1  1
 30 70  1  0
M  END
>  <i_m_ct_stereo_status>  (335) 
1

>  <s_m_source_file>  (335) 
/var/tmp/pbs.5076255.sched01/tmphrhi8tfx/132_dydaaau.sdf

>  <i_m_source_file_index>  (335) 
25

>  <i_lp_mmshare_version>  (335) 
48012

>  <i_f3d_flags>  (335) 
0

>  <s_epik_input>  (335) 
W09IXVtDQEBIXTFbQ0BIXShPMilbQ0BdKFtDSDNdKShPTzMpT09bQ0BASF0xW0NIMl1bQ0gyXVtDQEBIXShbQ0gzXSlbQ0BASF00W0NIMl1bQ0gyXVtDQEBdMihbQ0gzXSlbQ0gyXVtDSDJdW0NAQEhdKFtDQF0zNDUpW0NASF0oW0NIM10pW0NIMl1bQ0gyXVtDQEBIXTVbQ0gzXQ==

>  <s_epik_cmdline>  (335) 
J2VwaWtfcHl0aG9uJywgJy1waHQnLCAnMi4wJywgJy1waCcsICc3LjAnLCAnLXRuJywgJzgnLCAnLW1hJywgJzIwMCcsICctaW1hZScsICc8aW5maWxlLm1hZT4nLCAnLW9tYWUnLCAnPG91dGZpbGUubWFlPic=

>  <r_lp_tautomer_probability>  (335) 
1

>  <r_epik_Ionization_Penalty>  (335) 
9.73324e-06

>  <r_epik_Ionization_Penalty_Charging>  (335) 
0

>  <r_epik_Ionization_Penalty_Neutral>  (335) 
9.73324e-06

>  <r_epik_State_Penalty>  (335) 
-0

>  <r_epik_Charging_Adjusted_Penalty>  (335) 
0

>  <i_epik_Tot_Q>  (335) 
0

>  <i_epik_Tot_abs_Q>  (335) 
0

>  <s_lp_Force_Field>  (335) 
OPLS3e

>  <r_lp_Energy>  (335) 
269.037

>  <b_lp_Chiralities_Consistent>  (335) 
1

>  <s_lp_Variant>  (335) 
107:0-1

>  <s_i_glide_gridfile>  (335) 
pfpi4k_grid

>  <i_i_glide_lignum>  (335) 
25

>  <i_i_glide_rotatable_bonds>  (335) 
1

>  <r_i_docking_score>  (335) 
-1.92809

>  <r_i_glide_ligand_efficiency>  (335) 
-0.0642698

>  <r_i_glide_ligand_efficiency_sa>  (335) 
-0.199701

>  <r_i_glide_ligand_efficiency_ln>  (335) 
-0.438084

>  <r_i_glide_gscore>  (335) 
-1.92809

>  <r_i_glide_lipo>  (335) 
-0.136268

>  <r_i_glide_hbond>  (335) 
0

>  <r_i_glide_metal>  (335) 
-0

>  <r_i_glide_rewards>  (335) 
-0.533186

>  <r_i_glide_evdw>  (335) 
-23.068

>  <r_i_glide_ecoul>  (335) 
-0.701591

>  <r_i_glide_erotb>  (335) 
0

>  <r_i_glide_esite>  (335) 
0

>  <r_i_glide_emodel>  (335) 
-26.891

>  <r_i_glide_energy>  (335) 
-23.7696

>  <r_i_glide_einternal>  (335) 
0.322771

>  <r_i_glide_intrahb_reward>  (335) 
-0

>  <i_i_glide_confnum>  (335) 
1

>  <i_i_glide_posenum>  (335) 
9

>  <r_i_glide_eff_state_penalty>  (335) 
0

>  <ligand_id>  (335) 
107

>  <original_smiles>  (335) 
CC1CCC2OOC3(C)OOC45C(C)CCC(C)C4CCC(C)(CCC15)OC3C2O

>  <smiles>  (335) 
[H]OC1([H])C2([H])OOC3(C([H])([H])[H])OOC45C([H])(C([H])([H])[H])C([H])([H])C([H])([H])C([H])(C([H])([H])[H])C4([H])C([H])([H])C([H])([H])C(C([H])([H])[H])(OC13[H])C([H])([H])C([H])([H])C5([H])C([H])(C([H])([H])[H])C([H])([H])C2([H])[H]

$$$$
108:0:0
     RDKit          3D

 64 70  0  0  1  0  0  0  0  0999 V2000
   -1.8467    1.9961    7.3661 C   0  0  0  0  0  0  0  0  0  0  0  0
   -0.6126    2.5800    6.6521 C   0  0  0  0  0  0  0  0  0  0  0  0
   -0.2026    1.9178    5.3161 C   0  0  1  0  0  0  0  0  0  0  0  0
   -1.5770    2.0386    4.2698 C   0  0  0  0  0  0  0  0  0  0  0  0
   -1.3044    1.5195    2.7102 C   0  0  0  0  0  0  0  0  0  0  0  0
    0.2970    1.5138    2.3104 C   0  0  2  0  0  0  0  0  0  0  0  0
    1.5443    0.4251    2.1476 C   0  0  0  0  0  0  0  0  0  0  0  0
    2.5245    0.1255    3.4643 C   0  0  1  0  0  0  0  0  0  0  0  0
    2.6123    1.3647    4.5955 C   0  0  1  0  0  0  0  0  0  0  0  0
    1.2443    2.2976    4.7566 C   0  0  1  0  0  0  0  0  0  0  0  0
    0.7584    2.3297    3.4415 C   0  0  2  0  0  0  0  0  0  0  0  0
    0.3875    0.9432    4.0512 O   0  0  0  0  0  0  0  0  0  0  0  0
    0.2479    0.5291    5.4081 C   0  0  1  0  0  0  0  0  0  0  0  0
    1.6441   -0.3176    5.7045 C   0  0  1  0  0  0  0  0  0  0  0  0
    1.7945   -1.2379    6.9811 C   0  0  2  0  0  0  0  0  0  0  0  0
    1.8374   -2.7477    6.7739 C   0  0  0  0  0  0  0  0  0  0  0  0
    2.4779   -3.2319    5.7072 C   0  0  0  0  0  0  0  0  0  0  0  0
    3.0149   -2.2881    4.6058 C   0  0  1  0  0  0  0  0  0  0  0  0
    3.3267   -3.0227    3.4380 O   0  0  0  0  0  0  0  0  0  0  0  0
    1.9762   -1.1134    4.3434 C   0  0  2  0  0  0  0  0  0  0  0  0
    0.7028   -1.8438    3.7039 C   0  0  0  0  0  0  0  0  0  0  0  0
   -0.0214   -2.7616    4.5365 O   0  0  0  0  0  0  0  0  0  0  0  0
   -0.8283   -2.1956    5.5528 C   0  0  0  0  0  0  0  0  0  0  0  0
    1.1391   -0.6003    8.2094 C   0  0  0  0  0  0  0  0  0  0  0  0
    0.2446   -1.0803    8.8425 O   0  0  0  0  0  0  0  0  0  0  0  0
    1.7802    0.7826    8.4970 C   0  0  0  0  0  0  0  0  0  0  0  0
    2.6205    1.4383    7.3243 C   0  0  0  0  0  0  0  0  0  0  0  0
    2.7765    0.6763    5.9422 C   0  0  2  0  0  0  0  0  0  0  0  0
    4.0505    0.0178    6.0358 O   0  0  0  0  0  0  0  0  0  0  0  0
    5.2346    0.7542    5.7636 C   0  0  0  0  0  0  0  0  0  0  0  0
   -2.0168    2.4981    8.3178 H   0  0  0  0  0  0  0  0  0  0  0  0
   -1.7287    0.9339    7.5802 H   0  0  0  0  0  0  0  0  0  0  0  0
   -2.7609    2.1224    6.7812 H   0  0  0  0  0  0  0  0  0  0  0  0
   -0.8060    3.6391    6.4484 H   0  0  0  0  0  0  0  0  0  0  0  0
    0.2032    2.5982    7.3639 H   0  0  0  0  0  0  0  0  0  0  0  0
   -2.4431    1.5096    4.6560 H   0  0  0  0  0  0  0  0  0  0  0  0
   -1.8927    3.0863    4.2339 H   0  0  0  0  0  0  0  0  0  0  0  0
   -1.7733    0.5632    2.4709 H   0  0  0  0  0  0  0  0  0  0  0  0
   -1.8366    2.2285    2.0677 H   0  0  0  0  0  0  0  0  0  0  0  0
    0.3388    2.1195    1.3930 H   0  0  0  0  0  0  0  0  0  0  0  0
    1.2158   -0.4765    1.6174 H   0  0  0  0  0  0  0  0  0  0  0  0
    2.2074    0.8561    1.3891 H   0  0  0  0  0  0  0  0  0  0  0  0
    3.5340   -0.0903    3.0990 H   0  0  0  0  0  0  0  0  0  0  0  0
    3.4432    2.0388    4.3900 H   0  0  0  0  0  0  0  0  0  0  0  0
    1.5133    3.3163    5.0642 H   0  0  0  0  0  0  0  0  0  0  0  0
    1.6832    2.6819    2.9697 H   0  0  0  0  0  0  0  0  0  0  0  0
   -0.6786    0.0670    5.5464 H   0  0  0  0  0  0  0  0  0  0  0  0
    2.8197   -1.2107    7.3541 H   0  0  0  0  0  0  0  0  0  0  0  0
    1.3893   -3.4229    7.5044 H   0  0  0  0  0  0  0  0  0  0  0  0
    2.5716   -4.2942    5.5683 H   0  0  0  0  0  0  0  0  0  0  0  0
    3.9869   -1.9479    4.9355 H   0  0  0  0  0  0  0  0  0  0  0  0
    3.7167   -2.4272    2.7996 H   0  0  0  0  0  0  0  0  0  0  0  0
   -0.0488   -1.1817    3.2875 H   0  0  0  0  0  0  0  0  0  0  0  0
    1.0108   -2.4299    2.8271 H   0  0  0  0  0  0  0  0  0  0  0  0
   -1.2674   -2.8756    6.2583 H   0  0  0  0  0  0  0  0  0  0  0  0
   -1.5852   -1.5465    5.1804 H   0  0  0  0  0  0  0  0  0  0  0  0
   -0.2401   -1.6563    6.2570 H   0  0  0  0  0  0  0  0  0  0  0  0
    0.9883    1.4494    8.8163 H   0  0  0  0  0  0  0  0  0  0  0  0
    2.4000    0.6404    9.3775 H   0  0  0  0  0  0  0  0  0  0  0  0
    2.2400    2.4291    7.1425 H   0  0  0  0  0  0  0  0  0  0  0  0
    3.6102    1.6868    7.7277 H   0  0  0  0  0  0  0  0  0  0  0  0
    6.0876    0.1851    6.1347 H   0  0  0  0  0  0  0  0  0  0  0  0
    5.2474    1.7331    6.2384 H   0  0  0  0  0  0  0  0  0  0  0  0
    5.3727    0.8806    4.6913 H   0  0  0  0  0  0  0  0  0  0  0  0
  1  2  1  0
  1 31  1  0
  1 32  1  0
  1 33  1  0
  3  2  1  1
  2 34  1  0
  2 35  1  0
  3 10  1  0
  3 13  1  0
  3  4  1  0
  4  5  1  0
  4 36  1  0
  4 37  1  0
  5  6  1  0
  5 38  1  0
  5 39  1  0
  6 11  1  0
  6  7  1  0
  6 40  1  6
  7  8  1  0
  7 41  1  0
  7 42  1  0
  8 20  1  0
  8  9  1  0
  8 43  1  6
  9 28  1  0
  9 10  1  0
  9 44  1  6
 10 11  1  0
 10 45  1  1
 11 12  1  0
 11 46  1  1
 12 13  1  0
 13 14  1  0
 13 47  1  6
 14 20  1  0
 14 28  1  1
 14 15  1  0
 15 16  1  0
 15 24  1  0
 15 48  1  1
 16 17  2  0
 16 49  1  0
 17 18  1  0
 17 50  1  0
 18 19  1  0
 18 20  1  0
 18 51  1  1
 19 52  1  0
 20 21  1  6
 21 22  1  0
 21 53  1  0
 21 54  1  0
 22 23  1  0
 23 55  1  0
 23 56  1  0
 23 57  1  0
 24 25  2  0
 24 26  1  0
 26 27  1  0
 26 58  1  0
 26 59  1  0
 27 28  1  0
 27 60  1  0
 27 61  1  0
 28 29  1  6
 29 30  1  0
 30 62  1  0
 30 63  1  0
 30 64  1  0
M  END
>  <i_m_ct_stereo_status>  (336) 
1

>  <s_m_source_file>  (336) 
/var/tmp/pbs.5076255.sched01/tmphrhi8tfx/132_dydaaau.sdf

>  <i_m_source_file_index>  (336) 
26

>  <i_lp_mmshare_version>  (336) 
48012

>  <i_f3d_flags>  (336) 
0

>  <s_epik_input>  (336) 
W0NIM11bQ0gyXVtDQF0xKFtDQEBIXTJbQ0BAXTM0NSlbQ0BIXTZbQ0BASF03W0NASF0oW0NIMl1bQ0BIXShbQ0hdNk8yKVtDSDJdW0NIMl0xKVtDQEBdNChbQ0gyXU9bQ0gzXSlbQ0BIXShbT0hdKVtDSF09W0NIXVtDQEBIXTNDKD1PKVtDSDJdW0NIMl1bQ0BAXTU3T1tDSDNd

>  <s_epik_cmdline>  (336) 
J2VwaWtfcHl0aG9uJywgJy1waHQnLCAnMi4wJywgJy1waCcsICc3LjAnLCAnLXRuJywgJzgnLCAnLW1hJywgJzIwMCcsICctaW1hZScsICc8aW5maWxlLm1hZT4nLCAnLW9tYWUnLCAnPG91dGZpbGUubWFlPic=

>  <r_lp_tautomer_probability>  (336) 
1

>  <r_epik_Ionization_Penalty>  (336) 
6.33054e-08

>  <r_epik_Ionization_Penalty_Charging>  (336) 
0

>  <r_epik_Ionization_Penalty_Neutral>  (336) 
6.33054e-08

>  <r_epik_State_Penalty>  (336) 
-0

>  <r_epik_Charging_Adjusted_Penalty>  (336) 
0

>  <i_epik_Tot_Q>  (336) 
0

>  <i_epik_Tot_abs_Q>  (336) 
0

>  <s_lp_Force_Field>  (336) 
OPLS3e

>  <r_lp_Energy>  (336) 
394.891

>  <b_lp_Chiralities_Consistent>  (336) 
1

>  <s_lp_Variant>  (336) 
108:0-1

>  <s_i_glide_gridfile>  (336) 
pfpi4k_grid

>  <i_i_glide_lignum>  (336) 
26

>  <i_i_glide_rotatable_bonds>  (336) 
5

>  <r_i_docking_score>  (336) 
-0.550675

>  <r_i_glide_ligand_efficiency>  (336) 
-0.0183558

>  <r_i_glide_ligand_efficiency_sa>  (336) 
-0.0570359

>  <r_i_glide_ligand_efficiency_ln>  (336) 
-0.125119

>  <r_i_glide_gscore>  (336) 
-0.550675

>  <r_i_glide_lipo>  (336) 
-0.0459243

>  <r_i_glide_hbond>  (336) 
-0.0486764

>  <r_i_glide_metal>  (336) 
-0

>  <r_i_glide_rewards>  (336) 
-0.58272

>  <r_i_glide_evdw>  (336) 
-17.1479

>  <r_i_glide_ecoul>  (336) 
-0.0362839

>  <r_i_glide_erotb>  (336) 
0.114866

>  <r_i_glide_esite>  (336) 
-0.00660879

>  <r_i_glide_emodel>  (336) 
-11.2036

>  <r_i_glide_energy>  (336) 
-17.1842

>  <r_i_glide_einternal>  (336) 
0.644803

>  <r_i_glide_intrahb_reward>  (336) 
-0

>  <i_i_glide_confnum>  (336) 
3

>  <i_i_glide_posenum>  (336) 
22

>  <r_i_glide_eff_state_penalty>  (336) 
0

>  <ligand_id>  (336) 
108

>  <original_smiles>  (336) 
CCC12CCC3CC4C5C1C3OC2C12C(C=CC(O)C41COC)C(=O)CCC52OC

>  <smiles>  (336) 
[H]OC1([H])C([H])=C([H])C2([H])C(=O)C([H])([H])C([H])([H])C3(OC([H])([H])[H])C4([H])C5([H])C6([H])OC7([H])C5(C([H])([H])C([H])([H])[H])C([H])([H])C([H])([H])C6([H])C([H])([H])C4([H])C1(C([H])([H])OC([H])([H])[H])C273

$$$$
108:0:1
     RDKit          3D

 64 70  0  0  1  0  0  0  0  0999 V2000
   -0.5460    3.8109    6.8684 C   0  0  0  0  0  0  0  0  0  0  0  0
   -0.4321    2.2762    6.7641 C   0  0  0  0  0  0  0  0  0  0  0  0
    0.0513    1.7769    5.3820 C   0  0  1  0  0  0  0  0  0  0  0  0
   -1.2542    2.0343    4.2745 C   0  0  0  0  0  0  0  0  0  0  0  0
   -0.8762    1.7077    2.6837 C   0  0  0  0  0  0  0  0  0  0  0  0
    0.7493    1.7291    2.3967 C   0  0  2  0  0  0  0  0  0  0  0  0
    1.9999    0.6544    2.1834 C   0  0  0  0  0  0  0  0  0  0  0  0
    2.8883    0.1843    3.5148 C   0  0  1  0  0  0  0  0  0  0  0  0
    2.9075    1.2749    4.7911 C   0  0  1  0  0  0  0  0  0  0  0  0
    1.5392    2.1981    4.9722 C   0  0  1  0  0  0  0  0  0  0  0  0
    1.1367    2.3973    3.6460 C   0  0  2  0  0  0  0  0  0  0  0  0
    0.7185    0.9503    4.0587 O   0  0  0  0  0  0  0  0  0  0  0  0
    0.4842    0.3790    5.3415 C   0  0  1  0  0  0  0  0  0  0  0  0
    1.8550   -0.5157    5.6213 C   0  0  1  0  0  0  0  0  0  0  0  0
    1.9219   -1.5882    6.7885 C   0  0  2  0  0  0  0  0  0  0  0  0
    1.9720   -3.0624    6.3934 C   0  0  0  0  0  0  0  0  0  0  0  0
    2.6782   -3.4187    5.3239 C   0  0  0  0  0  0  0  0  0  0  0  0
    3.2888   -2.3587    4.3812 C   0  0  1  0  0  0  0  0  0  0  0  0
    3.6861   -2.9426    3.1582 O   0  0  0  0  0  0  0  0  0  0  0  0
    2.2765   -1.1443    4.1972 C   0  0  2  0  0  0  0  0  0  0  0  0
    1.0442   -1.7744    3.3915 C   0  0  0  0  0  0  0  0  0  0  0  0
    0.2680   -2.7790    4.0631 O   0  0  0  0  0  0  0  0  0  0  0  0
   -0.5917   -2.3376    5.0932 C   0  0  0  0  0  0  0  0  0  0  0  0
    1.2070   -1.0854    8.0235 C   0  0  0  0  0  0  0  0  0  0  0  0
    0.2334   -1.6455    8.5493 O   0  0  0  0  0  0  0  0  0  0  0  0
    1.8145    0.2253    8.5349 C   0  0  0  0  0  0  0  0  0  0  0  0
    2.7298    1.0175    7.5048 C   0  0  0  0  0  0  0  0  0  0  0  0
    2.9739    0.4265    6.0530 C   0  0  2  0  0  0  0  0  0  0  0  0
    4.2382   -0.2528    6.1490 O   0  0  0  0  0  0  0  0  0  0  0  0
    5.4421    0.4985    6.0629 C   0  0  0  0  0  0  0  0  0  0  0  0
   -0.9310    4.1018    7.8442 H   0  0  0  0  0  0  0  0  0  0  0  0
   -1.2189    4.2163    6.1171 H   0  0  0  0  0  0  0  0  0  0  0  0
    0.4245    4.2855    6.7444 H   0  0  0  0  0  0  0  0  0  0  0  0
    0.2465    1.9508    7.5255 H   0  0  0  0  0  0  0  0  0  0  0  0
   -1.3898    1.8391    7.0506 H   0  0  0  0  0  0  0  0  0  0  0  0
   -2.1437    1.4744    4.5499 H   0  0  0  0  0  0  0  0  0  0  0  0
   -1.5641    3.0810    4.3337 H   0  0  0  0  0  0  0  0  0  0  0  0
   -1.3340    0.7922    2.3009 H   0  0  0  0  0  0  0  0  0  0  0  0
   -1.3545    2.4962    2.0834 H   0  0  0  0  0  0  0  0  0  0  0  0
    0.8602    2.4421    1.5676 H   0  0  0  0  0  0  0  0  0  0  0  0
    1.7036   -0.1711    1.5226 H   0  0  0  0  0  0  0  0  0  0  0  0
    2.7145    1.1680    1.5297 H   0  0  0  0  0  0  0  0  0  0  0  0
    3.9203    0.0014    3.1924 H   0  0  0  0  0  0  0  0  0  0  0  0
    3.7530    1.9604    4.7255 H   0  0  0  0  0  0  0  0  0  0  0  0
    1.7974    3.1699    5.4178 H   0  0  0  0  0  0  0  0  0  0  0  0
    2.0940    2.7937    3.2809 H   0  0  0  0  0  0  0  0  0  0  0  0
   -0.4448   -0.0946    5.3634 H   0  0  0  0  0  0  0  0  0  0  0  0
    2.9166   -1.6175    7.2227 H   0  0  0  0  0  0  0  0  0  0  0  0
    1.4733   -3.8141    7.0079 H   0  0  0  0  0  0  0  0  0  0  0  0
    2.7758   -4.4587    5.0608 H   0  0  0  0  0  0  0  0  0  0  0  0
    4.2402   -2.0706    4.8131 H   0  0  0  0  0  0  0  0  0  0  0  0
    2.9114   -3.1050    2.6245 H   0  0  0  0  0  0  0  0  0  0  0  0
    0.3245   -1.0588    3.0102 H   0  0  0  0  0  0  0  0  0  0  0  0
    1.4080   -2.2511    2.4700 H   0  0  0  0  0  0  0  0  0  0  0  0
   -1.0733   -3.0948    5.6742 H   0  0  0  0  0  0  0  0  0  0  0  0
   -1.3272   -1.6377    4.7612 H   0  0  0  0  0  0  0  0  0  0  0  0
   -0.0437   -1.8917    5.8833 H   0  0  0  0  0  0  0  0  0  0  0  0
    1.0134    0.8549    8.8966 H   0  0  0  0  0  0  0  0  0  0  0  0
    2.3771   -0.0267    9.4276 H   0  0  0  0  0  0  0  0  0  0  0  0
    2.3596    2.0271    7.4218 H   0  0  0  0  0  0  0  0  0  0  0  0
    3.6922    1.2039    8.0009 H   0  0  0  0  0  0  0  0  0  0  0  0
    6.2638   -0.1260    6.4153 H   0  0  0  0  0  0  0  0  0  0  0  0
    5.4223    1.4048    6.6644 H   0  0  0  0  0  0  0  0  0  0  0  0
    5.6572    0.7650    5.0299 H   0  0  0  0  0  0  0  0  0  0  0  0
  1  2  1  0
  1 31  1  0
  1 32  1  0
  1 33  1  0
  3  2  1  1
  2 34  1  0
  2 35  1  0
  3 10  1  0
  3 13  1  0
  3  4  1  0
  4  5  1  0
  4 36  1  0
  4 37  1  0
  5  6  1  0
  5 38  1  0
  5 39  1  0
  6 11  1  0
  6  7  1  0
  6 40  1  6
  7  8  1  0
  7 41  1  0
  7 42  1  0
  8 20  1  0
  8  9  1  0
  8 43  1  6
  9 28  1  0
  9 10  1  0
  9 44  1  6
 10 11  1  0
 10 45  1  1
 11 12  1  0
 11 46  1  1
 12 13  1  0
 13 14  1  0
 13 47  1  6
 14 20  1  0
 14 28  1  1
 14 15  1  0
 15 16  1  0
 15 24  1  0
 15 48  1  1
 16 17  2  0
 16 49  1  0
 17 18  1  0
 17 50  1  0
 18 19  1  0
 18 20  1  0
 18 51  1  1
 19 52  1  0
 20 21  1  6
 21 22  1  0
 21 53  1  0
 21 54  1  0
 22 23  1  0
 23 55  1  0
 23 56  1  0
 23 57  1  0
 24 25  2  0
 24 26  1  0
 26 27  1  0
 26 58  1  0
 26 59  1  0
 27 28  1  0
 27 60  1  0
 27 61  1  0
 28 29  1  1
 29 30  1  0
 30 62  1  0
 30 63  1  0
 30 64  1  0
M  END
>  <i_m_ct_stereo_status>  (337) 
1

>  <s_m_source_file>  (337) 
/var/tmp/pbs.5076255.sched01/tmphrhi8tfx/132_dydaaau.sdf

>  <i_m_source_file_index>  (337) 
26

>  <i_lp_mmshare_version>  (337) 
48012

>  <i_f3d_flags>  (337) 
0

>  <s_epik_input>  (337) 
W0NIM11bQ0gyXVtDQF0xKFtDQEBIXTJbQ0BAXTM0NSlbQ0BIXTZbQ0BASF03W0NASF0oW0NIMl1bQ0BIXShbQ0hdNk8yKVtDSDJdW0NIMl0xKVtDQEBdNChbQ0gyXU9bQ0gzXSlbQ0BIXShbT0hdKVtDSF09W0NIXVtDQEBIXTNDKD1PKVtDSDJdW0NIMl1bQ0BAXTU3T1tDSDNd

>  <s_epik_cmdline>  (337) 
J2VwaWtfcHl0aG9uJywgJy1waHQnLCAnMi4wJywgJy1waCcsICc3LjAnLCAnLXRuJywgJzgnLCAnLW1hJywgJzIwMCcsICctaW1hZScsICc8aW5maWxlLm1hZT4nLCAnLW9tYWUnLCAnPG91dGZpbGUubWFlPic=

>  <r_lp_tautomer_probability>  (337) 
1

>  <r_epik_Ionization_Penalty>  (337) 
6.33054e-08

>  <r_epik_Ionization_Penalty_Charging>  (337) 
0

>  <r_epik_Ionization_Penalty_Neutral>  (337) 
6.33054e-08

>  <r_epik_State_Penalty>  (337) 
-0

>  <r_epik_Charging_Adjusted_Penalty>  (337) 
0

>  <i_epik_Tot_Q>  (337) 
0

>  <i_epik_Tot_abs_Q>  (337) 
0

>  <s_lp_Force_Field>  (337) 
OPLS3e

>  <r_lp_Energy>  (337) 
394.891

>  <b_lp_Chiralities_Consistent>  (337) 
1

>  <s_lp_Variant>  (337) 
108:0-1

>  <s_i_glide_gridfile>  (337) 
pfpi4k_grid

>  <i_i_glide_lignum>  (337) 
26

>  <i_i_glide_rotatable_bonds>  (337) 
5

>  <r_i_docking_score>  (337) 
-0.453199

>  <r_i_glide_ligand_efficiency>  (337) 
-0.0151066

>  <r_i_glide_ligand_efficiency_sa>  (337) 
-0.0469398

>  <r_i_glide_ligand_efficiency_ln>  (337) 
-0.102972

>  <r_i_glide_gscore>  (337) 
-0.453199

>  <r_i_glide_lipo>  (337) 
-0.0506036

>  <r_i_glide_hbond>  (337) 
-0.092251

>  <r_i_glide_metal>  (337) 
-0

>  <r_i_glide_rewards>  (337) 
-0.58272

>  <r_i_glide_evdw>  (337) 
-15.8114

>  <r_i_glide_ecoul>  (337) 
-0.471983

>  <r_i_glide_erotb>  (337) 
0.114866

>  <r_i_glide_esite>  (337) 
-0.0084036

>  <r_i_glide_emodel>  (337) 
-9.92219

>  <r_i_glide_energy>  (337) 
-16.2834

>  <r_i_glide_einternal>  (337) 
0.364388

>  <r_i_glide_intrahb_reward>  (337) 
-0

>  <i_i_glide_confnum>  (337) 
3

>  <i_i_glide_posenum>  (337) 
1

>  <r_i_glide_eff_state_penalty>  (337) 
0

>  <ligand_id>  (337) 
108

>  <original_smiles>  (337) 
CCC12CCC3CC4C5C1C3OC2C12C(C=CC(O)C41COC)C(=O)CCC52OC

>  <smiles>  (337) 
[H]OC1([H])C([H])=C([H])C2([H])C(=O)C([H])([H])C([H])([H])C3(OC([H])([H])[H])C4([H])C5([H])C6([H])OC7([H])C5(C([H])([H])C([H])([H])[H])C([H])([H])C([H])([H])C6([H])C([H])([H])C4([H])C1(C([H])([H])OC([H])([H])[H])C273

$$$$
109:1:0
     RDKit          3D

 55 59  0  0  1  0  0  0  0  0999 V2000
    4.4975   -0.6775   -1.7852 C   0  0  0  0  0  0  0  0  0  0  0  0
    4.3872   -1.9455   -1.3782 C   0  0  0  0  0  0  0  0  0  0  0  0
    4.7067   -3.1359   -2.2347 C   0  0  1  0  0  0  0  0  0  0  0  0
    6.1520   -3.3260   -2.6465 C   0  0  0  0  0  0  0  0  0  0  0  0
    7.1938   -3.2609   -1.5494 C   0  0  1  0  0  0  0  0  0  0  0  0
    7.2408   -1.8800   -1.1137 O   0  0  0  0  0  0  0  0  0  0  0  0
    7.1878   -2.2708    0.1690 C   0  0  0  0  0  0  0  0  0  0  0  0
    7.1417   -1.5908    1.1890 O   0  0  0  0  0  0  0  0  0  0  0  0
    7.0676   -3.7822   -0.0997 C   0  0  2  0  0  0  0  0  0  0  0  0
    8.3434   -4.5629    0.3038 C   0  0  0  0  0  0  0  0  0  0  0  0
    5.7838   -4.3534    0.5981 C   0  0  1  0  0  0  0  0  0  0  0  0
    5.8316   -4.3016    2.1540 C   0  0  0  0  0  0  0  0  0  0  0  0
    4.8852   -5.3156    2.8186 C   0  0  0  0  0  0  0  0  0  0  0  0
    3.8160   -5.8462    1.8544 C   0  0  2  0  0  0  0  0  0  0  0  0
    3.2639   -4.7028    1.0023 C   0  0  2  0  0  0  0  0  0  0  0  0
    2.0577   -5.4012    0.3535 C   0  0  0  0  0  0  0  0  0  0  0  0
    1.4871   -6.2482    1.4764 C   0  0  0  0  0  0  0  0  0  0  0  0
    0.1977   -6.6245    1.6120 C   0  0  0  0  0  0  0  0  0  0  0  0
    2.5951   -6.5912    2.4558 C   0  0  0  0  0  0  0  0  0  0  0  0
    2.8399   -8.1119    2.4740 C   0  0  0  0  0  0  0  0  0  0  0  0
    2.2140   -6.1219    3.8761 C   0  0  0  0  0  0  0  0  0  0  0  0
    4.3317   -3.9291    0.1252 C   0  0  2  0  0  0  0  0  0  0  0  0
    4.2114   -4.2599   -1.3532 C   0  0  0  0  0  0  0  0  0  0  0  0
    3.9066   -2.4263   -0.0138 C   0  0  1  0  0  0  0  0  0  0  0  0
    4.2698   -1.5764    1.0503 O   0  0  0  0  0  0  0  0  0  0  0  0
    4.2407    0.1027   -1.0892 H   0  0  0  0  0  0  0  0  0  0  0  0
    4.8420   -0.4502   -2.7834 H   0  0  0  0  0  0  0  0  0  0  0  0
    4.1120   -3.0940   -3.1472 H   0  0  0  0  0  0  0  0  0  0  0  0
    6.2105   -4.2626   -3.1597 H   0  0  0  0  0  0  0  0  0  0  0  0
    6.4360   -2.6680   -3.4447 H   0  0  0  0  0  0  0  0  0  0  0  0
    8.1883   -3.5657   -1.9025 H   0  0  0  0  0  0  0  0  0  0  0  0
    8.3598   -5.5217   -0.2122 H   0  0  0  0  0  0  0  0  0  0  0  0
    8.4837   -4.7478    1.3667 H   0  0  0  0  0  0  0  0  0  0  0  0
    9.2284   -4.0127   -0.0291 H   0  0  0  0  0  0  0  0  0  0  0  0
    5.8561   -5.4135    0.3598 H   0  0  0  0  0  0  0  0  0  0  0  0
    6.8342   -4.4849    2.5405 H   0  0  0  0  0  0  0  0  0  0  0  0
    5.5455   -3.3041    2.4944 H   0  0  0  0  0  0  0  0  0  0  0  0
    5.4789   -6.1610    3.1503 H   0  0  0  0  0  0  0  0  0  0  0  0
    4.4485   -4.8426    3.7012 H   0  0  0  0  0  0  0  0  0  0  0  0
    4.2851   -6.5584    1.1618 H   0  0  0  0  0  0  0  0  0  0  0  0
    2.8581   -3.9731    1.7036 H   0  0  0  0  0  0  0  0  0  0  0  0
    1.4107   -4.6888   -0.1504 H   0  0  0  0  0  0  0  0  0  0  0  0
    2.3618   -6.1300   -0.3877 H   0  0  0  0  0  0  0  0  0  0  0  0
   -0.5368   -6.3431    0.8817 H   0  0  0  0  0  0  0  0  0  0  0  0
   -0.1277   -7.2072    2.4604 H   0  0  0  0  0  0  0  0  0  0  0  0
    3.7002   -8.3558    3.0947 H   0  0  0  0  0  0  0  0  0  0  0  0
    3.0263   -8.4967    1.4710 H   0  0  0  0  0  0  0  0  0  0  0  0
    1.9778   -8.6553    2.8712 H   0  0  0  0  0  0  0  0  0  0  0  0
    3.0011   -6.3545    4.5915 H   0  0  0  0  0  0  0  0  0  0  0  0
    1.3171   -6.6226    4.2445 H   0  0  0  0  0  0  0  0  0  0  0  0
    2.0239   -5.0483    3.9161 H   0  0  0  0  0  0  0  0  0  0  0  0
    3.1520   -4.2194   -1.5810 H   0  0  0  0  0  0  0  0  0  0  0  0
    4.6183   -5.2245   -1.6187 H   0  0  0  0  0  0  0  0  0  0  0  0
    2.8155   -2.3977   -0.1083 H   0  0  0  0  0  0  0  0  0  0  0  0
    5.2036   -1.6712    1.1639 H   0  0  0  0  0  0  0  0  0  0  0  0
  1  2  2  0
  1 26  1  0
  1 27  1  0
  2 24  1  0
  2  3  1  0
  3 23  1  0
  3  4  1  0
  3 28  1  6
  4  5  1  0
  4 29  1  0
  4 30  1  0
  5  9  1  0
  5  6  1  0
  5 31  1  6
  6  7  1  0
  7  8  2  0
  7  9  1  0
  9 10  1  1
  9 11  1  0
 10 32  1  0
 10 33  1  0
 10 34  1  0
 11 22  1  0
 11 12  1  0
 11 35  1  1
 12 13  1  0
 12 36  1  0
 12 37  1  0
 13 14  1  0
 13 38  1  0
 13 39  1  0
 14 19  1  0
 14 15  1  0
 14 40  1  6
 15 16  1  0
 15 22  1  0
 15 41  1  1
 16 17  1  0
 16 42  1  0
 16 43  1  0
 17 18  2  0
 17 19  1  0
 18 44  1  0
 18 45  1  0
 19 20  1  0
 19 21  1  0
 20 46  1  0
 20 47  1  0
 20 48  1  0
 21 49  1  0
 21 50  1  0
 21 51  1  0
 22 23  1  6
 22 24  1  0
 23 52  1  0
 23 53  1  0
 24 25  1  0
 24 54  1  6
 25 55  1  0
M  END
>  <i_m_ct_stereo_status>  (338) 
1

>  <s_m_source_file>  (338) 
/var/tmp/pbs.5076255.sched01/tmphrhi8tfx/132_dydaaau.sdf

>  <i_m_source_file_index>  (338) 
28

>  <i_lp_mmshare_version>  (338) 
48012

>  <i_f3d_flags>  (338) 
0

>  <s_epik_input>  (338) 
W09IXVtDQEhdMUMoPVtDSDJdKVtDSF0oW0NIMl0yKVtDSDJdW0NAQEhdKE9DMz1PKVtDQF0zKFtDSDNdKVtDQEhdKFtDQEBdMTI0KVtDSDJdW0NIMl1bQ0BASF01W0NAQEhdNFtDSDJdQyg9W0NIMl0pQzUoW0NIM10pW0NIM10=

>  <s_epik_cmdline>  (338) 
J2VwaWtfcHl0aG9uJywgJy1waHQnLCAnMi4wJywgJy1waCcsICc3LjAnLCAnLXRuJywgJzgnLCAnLW1hJywgJzIwMCcsICctaW1hZScsICc8aW5maWxlLm1hZT4nLCAnLW9tYWUnLCAnPG91dGZpbGUubWFlPic=

>  <r_lp_tautomer_probability>  (338) 
1

>  <r_epik_Ionization_Penalty>  (338) 
8.51178e-08

>  <r_epik_Ionization_Penalty_Charging>  (338) 
0

>  <r_epik_Ionization_Penalty_Neutral>  (338) 
8.51178e-08

>  <r_epik_State_Penalty>  (338) 
-0

>  <r_epik_Charging_Adjusted_Penalty>  (338) 
0

>  <i_epik_Tot_Q>  (338) 
0

>  <i_epik_Tot_abs_Q>  (338) 
0

>  <s_epik_Chemistry_Notes>  (338) 
This compound has an ester and may undergo hydrolysis at high or low pH.

>  <s_lp_Force_Field>  (338) 
OPLS3e

>  <r_lp_Energy>  (338) 
66.6636

>  <b_lp_Chiralities_Consistent>  (338) 
1

>  <s_lp_Variant>  (338) 
109:0-2

>  <s_i_glide_gridfile>  (338) 
pfpi4k_grid

>  <i_i_glide_lignum>  (338) 
28

>  <i_i_glide_rotatable_bonds>  (338) 
1

>  <r_i_docking_score>  (338) 
-3.64637

>  <r_i_glide_ligand_efficiency>  (338) 
-0.145855

>  <r_i_glide_ligand_efficiency_sa>  (338) 
-0.426483

>  <r_i_glide_ligand_efficiency_ln>  (338) 
-0.8643

>  <r_i_glide_gscore>  (338) 
-3.64637

>  <r_i_glide_lipo>  (338) 
-0.794951

>  <r_i_glide_hbond>  (338) 
-0.140559

>  <r_i_glide_metal>  (338) 
-0

>  <r_i_glide_rewards>  (338) 
-1.63966

>  <r_i_glide_evdw>  (338) 
-13.2845

>  <r_i_glide_ecoul>  (338) 
-2.71322

>  <r_i_glide_erotb>  (338) 
0

>  <r_i_glide_esite>  (338) 
0

>  <r_i_glide_emodel>  (338) 
-21.9817

>  <r_i_glide_energy>  (338) 
-15.9977

>  <r_i_glide_einternal>  (338) 
0.00118505

>  <r_i_glide_intrahb_reward>  (338) 
-0.5

>  <i_i_glide_confnum>  (338) 
1

>  <i_i_glide_posenum>  (338) 
4

>  <r_i_glide_eff_state_penalty>  (338) 
0

>  <ligand_id>  (338) 
109

>  <original_smiles>  (338) 
C=C1C2CC3OC(=O)C3(C)C3CCC4C(CC(=C)C4(C)C)C3(C2)C1O

>  <smiles>  (338) 
[H]OC1([H])C(=C([H])[H])C2([H])C([H])([H])C3([H])OC(=O)C3(C([H])([H])[H])C3([H])C([H])([H])C([H])([H])C4([H])C([H])(C([H])([H])C(=C([H])[H])C4(C([H])([H])[H])C([H])([H])[H])C13C2([H])[H]

$$$$
109:1:1
     RDKit          3D

 55 59  0  0  1  0  0  0  0  0999 V2000
    4.0586   -1.1890   -1.2104 C   0  0  0  0  0  0  0  0  0  0  0  0
    4.1814   -2.4619   -0.8134 C   0  0  0  0  0  0  0  0  0  0  0  0
    4.3846   -3.6366   -1.7325 C   0  0  1  0  0  0  0  0  0  0  0  0
    5.6804   -3.5872   -2.5285 C   0  0  0  0  0  0  0  0  0  0  0  0
    6.9552   -3.3087   -1.7389 C   0  0  1  0  0  0  0  0  0  0  0  0
    6.9631   -1.9480   -1.2791 O   0  0  0  0  0  0  0  0  0  0  0  0
    7.4370   -2.3126   -0.0623 C   0  0  0  0  0  0  0  0  0  0  0  0
    7.8112   -1.5849    0.8641 O   0  0  0  0  0  0  0  0  0  0  0  0
    7.3334   -3.8400   -0.3432 C   0  0  2  0  0  0  0  0  0  0  0  0
    8.7601   -4.4653   -0.3097 C   0  0  0  0  0  0  0  0  0  0  0  0
    6.3574   -4.6042    0.6280 C   0  0  1  0  0  0  0  0  0  0  0  0
    6.8446   -4.5402    2.0769 C   0  0  0  0  0  0  0  0  0  0  0  0
    6.2672   -5.6081    3.0116 C   0  0  0  0  0  0  0  0  0  0  0  0
    5.0252   -6.2848    2.4143 C   0  0  2  0  0  0  0  0  0  0  0  0
    4.1145   -5.2398    1.7643 C   0  0  2  0  0  0  0  0  0  0  0  0
    2.8445   -6.0692    1.5134 C   0  0  0  0  0  0  0  0  0  0  0  0
    2.7522   -6.9509    2.7340 C   0  0  0  0  0  0  0  0  0  0  0  0
    1.6019   -7.4261    3.2330 C   0  0  0  0  0  0  0  0  0  0  0  0
    4.1309   -7.1466    3.3459 C   0  0  0  0  0  0  0  0  0  0  0  0
    4.5535   -8.6275    3.2821 C   0  0  0  0  0  0  0  0  0  0  0  0
    4.1262   -6.6846    4.8173 C   0  0  0  0  0  0  0  0  0  0  0  0
    4.7831   -4.4019    0.6034 C   0  0  2  0  0  0  0  0  0  0  0  0
    4.2950   -4.8330   -0.7790 C   0  0  0  0  0  0  0  0  0  0  0  0
    4.1790   -2.9654    0.6152 C   0  0  1  0  0  0  0  0  0  0  0  0
    4.7496   -2.0584    1.5236 O   0  0  0  0  0  0  0  0  0  0  0  0
    3.9197   -0.3984   -0.4876 H   0  0  0  0  0  0  0  0  0  0  0  0
    4.0855   -0.9374   -2.2622 H   0  0  0  0  0  0  0  0  0  0  0  0
    3.5624   -3.6666   -2.4456 H   0  0  0  0  0  0  0  0  0  0  0  0
    5.7112   -4.5646   -2.9931 H   0  0  0  0  0  0  0  0  0  0  0  0
    5.6047   -2.8829   -3.3614 H   0  0  0  0  0  0  0  0  0  0  0  0
    7.8385   -3.4778   -2.3469 H   0  0  0  0  0  0  0  0  0  0  0  0
    8.7539   -5.4789   -0.6809 H   0  0  0  0  0  0  0  0  0  0  0  0
    9.2207   -4.5314    0.6743 H   0  0  0  0  0  0  0  0  0  0  0  0
    9.4497   -3.8830   -0.9160 H   0  0  0  0  0  0  0  0  0  0  0  0
    6.5196   -5.6324    0.3376 H   0  0  0  0  0  0  0  0  0  0  0  0
    7.9233   -4.6115    2.1588 H   0  0  0  0  0  0  0  0  0  0  0  0
    6.5574   -3.5612    2.4555 H   0  0  0  0  0  0  0  0  0  0  0  0
    7.0240   -6.3688    3.1872 H   0  0  0  0  0  0  0  0  0  0  0  0
    6.0607   -5.1451    3.9800 H   0  0  0  0  0  0  0  0  0  0  0  0
    5.3716   -6.9536    1.6170 H   0  0  0  0  0  0  0  0  0  0  0  0
    3.8689   -4.5339    2.5622 H   0  0  0  0  0  0  0  0  0  0  0  0
    1.9379   -5.4819    1.3610 H   0  0  0  0  0  0  0  0  0  0  0  0
    2.9725   -6.7469    0.6748 H   0  0  0  0  0  0  0  0  0  0  0  0
    0.6566   -7.2277    2.7456 H   0  0  0  0  0  0  0  0  0  0  0  0
    1.5918   -8.0273    4.1325 H   0  0  0  0  0  0  0  0  0  0  0  0
    5.5781   -8.7535    3.6322 H   0  0  0  0  0  0  0  0  0  0  0  0
    4.4983   -9.0177    2.2666 H   0  0  0  0  0  0  0  0  0  0  0  0
    3.9140   -9.2559    3.9027 H   0  0  0  0  0  0  0  0  0  0  0  0
    5.1066   -6.8080    5.2761 H   0  0  0  0  0  0  0  0  0  0  0  0
    3.4344   -7.2732    5.4206 H   0  0  0  0  0  0  0  0  0  0  0  0
    3.8306   -5.6410    4.9168 H   0  0  0  0  0  0  0  0  0  0  0  0
    3.2248   -5.0263   -0.7020 H   0  0  0  0  0  0  0  0  0  0  0  0
    4.7601   -5.7566   -1.1322 H   0  0  0  0  0  0  0  0  0  0  0  0
    3.1141   -3.0418    0.8448 H   0  0  0  0  0  0  0  0  0  0  0  0
    4.2511   -1.2592    1.4842 H   0  0  0  0  0  0  0  0  0  0  0  0
  1  2  2  0
  1 26  1  0
  1 27  1  0
  2 24  1  0
  2  3  1  0
  3 23  1  0
  3  4  1  0
  3 28  1  6
  4  5  1  0
  4 29  1  0
  4 30  1  0
  5  9  1  0
  5  6  1  0
  5 31  1  6
  6  7  1  0
  7  8  2  0
  7  9  1  0
  9 10  1  6
  9 11  1  0
 10 32  1  0
 10 33  1  0
 10 34  1  0
 11 22  1  0
 11 12  1  0
 11 35  1  6
 12 13  1  0
 12 36  1  0
 12 37  1  0
 13 14  1  0
 13 38  1  0
 13 39  1  0
 14 19  1  0
 14 15  1  0
 14 40  1  6
 15 16  1  0
 15 22  1  0
 15 41  1  1
 16 17  1  0
 16 42  1  0
 16 43  1  0
 17 18  2  0
 17 19  1  0
 18 44  1  0
 18 45  1  0
 19 20  1  0
 19 21  1  0
 20 46  1  0
 20 47  1  0
 20 48  1  0
 21 49  1  0
 21 50  1  0
 21 51  1  0
 22 23  1  6
 22 24  1  0
 23 52  1  0
 23 53  1  0
 24 25  1  0
 24 54  1  1
 25 55  1  0
M  END
>  <i_m_ct_stereo_status>  (339) 
1

>  <s_m_source_file>  (339) 
/var/tmp/pbs.5076255.sched01/tmphrhi8tfx/132_dydaaau.sdf

>  <i_m_source_file_index>  (339) 
28

>  <i_lp_mmshare_version>  (339) 
48012

>  <i_f3d_flags>  (339) 
0

>  <s_epik_input>  (339) 
W09IXVtDQEhdMUMoPVtDSDJdKVtDSF0oW0NIMl0yKVtDSDJdW0NAQEhdKE9DMz1PKVtDQF0zKFtDSDNdKVtDQEhdKFtDQEBdMTI0KVtDSDJdW0NIMl1bQ0BASF01W0NAQEhdNFtDSDJdQyg9W0NIMl0pQzUoW0NIM10pW0NIM10=

>  <s_epik_cmdline>  (339) 
J2VwaWtfcHl0aG9uJywgJy1waHQnLCAnMi4wJywgJy1waCcsICc3LjAnLCAnLXRuJywgJzgnLCAnLW1hJywgJzIwMCcsICctaW1hZScsICc8aW5maWxlLm1hZT4nLCAnLW9tYWUnLCAnPG91dGZpbGUubWFlPic=

>  <r_lp_tautomer_probability>  (339) 
1

>  <r_epik_Ionization_Penalty>  (339) 
8.51178e-08

>  <r_epik_Ionization_Penalty_Charging>  (339) 
0

>  <r_epik_Ionization_Penalty_Neutral>  (339) 
8.51178e-08

>  <r_epik_State_Penalty>  (339) 
-0

>  <r_epik_Charging_Adjusted_Penalty>  (339) 
0

>  <i_epik_Tot_Q>  (339) 
0

>  <i_epik_Tot_abs_Q>  (339) 
0

>  <s_epik_Chemistry_Notes>  (339) 
This compound has an ester and may undergo hydrolysis at high or low pH.

>  <s_lp_Force_Field>  (339) 
OPLS3e

>  <r_lp_Energy>  (339) 
66.6636

>  <b_lp_Chiralities_Consistent>  (339) 
1

>  <s_lp_Variant>  (339) 
109:0-2

>  <s_i_glide_gridfile>  (339) 
pfpi4k_grid

>  <i_i_glide_lignum>  (339) 
28

>  <i_i_glide_rotatable_bonds>  (339) 
1

>  <r_i_docking_score>  (339) 
-2.98048

>  <r_i_glide_ligand_efficiency>  (339) 
-0.119219

>  <r_i_glide_ligand_efficiency_sa>  (339) 
-0.3486

>  <r_i_glide_ligand_efficiency_ln>  (339) 
-0.706464

>  <r_i_glide_gscore>  (339) 
-2.98048

>  <r_i_glide_lipo>  (339) 
-0.633421

>  <r_i_glide_hbond>  (339) 
-0.16

>  <r_i_glide_metal>  (339) 
-0

>  <r_i_glide_rewards>  (339) 
-1.07555

>  <r_i_glide_evdw>  (339) 
-13.8397

>  <r_i_glide_ecoul>  (339) 
-2.79684

>  <r_i_glide_erotb>  (339) 
0

>  <r_i_glide_esite>  (339) 
0

>  <r_i_glide_emodel>  (339) 
-17.899

>  <r_i_glide_energy>  (339) 
-16.6365

>  <r_i_glide_einternal>  (339) 
0.391035

>  <r_i_glide_intrahb_reward>  (339) 
-0

>  <i_i_glide_confnum>  (339) 
2

>  <i_i_glide_posenum>  (339) 
15

>  <r_i_glide_eff_state_penalty>  (339) 
0

>  <ligand_id>  (339) 
109

>  <original_smiles>  (339) 
C=C1C2CC3OC(=O)C3(C)C3CCC4C(CC(=C)C4(C)C)C3(C2)C1O

>  <smiles>  (339) 
[H]OC1([H])C(=C([H])[H])C2([H])C([H])([H])C3([H])OC(=O)C3(C([H])([H])[H])C3([H])C([H])([H])C([H])([H])C4([H])C([H])(C([H])([H])C(=C([H])[H])C4(C([H])([H])[H])C([H])([H])[H])C13C2([H])[H]

$$$$
109:1:2
     RDKit          3D

 55 59  0  0  1  0  0  0  0  0999 V2000
    3.5336   -1.4760   -0.8757 C   0  0  0  0  0  0  0  0  0  0  0  0
    3.8054   -2.7355   -0.5582 C   0  0  0  0  0  0  0  0  0  0  0  0
    4.1483   -3.8106   -1.5528 C   0  0  1  0  0  0  0  0  0  0  0  0
    5.4420   -3.5871   -2.3245 C   0  0  0  0  0  0  0  0  0  0  0  0
    6.6657   -3.2407   -1.5169 C   0  0  1  0  0  0  0  0  0  0  0  0
    6.5657   -1.8864   -1.0073 O   0  0  0  0  0  0  0  0  0  0  0  0
    6.9065   -2.2786    0.2484 C   0  0  0  0  0  0  0  0  0  0  0  0
    6.9771   -1.5933    1.2720 O   0  0  0  0  0  0  0  0  0  0  0  0
    7.0442   -3.7920   -0.1231 C   0  0  2  0  0  0  0  0  0  0  0  0
    8.5301   -4.2396   -0.1044 C   0  0  0  0  0  0  0  0  0  0  0  0
    6.1460   -4.6926    0.8174 C   0  0  1  0  0  0  0  0  0  0  0  0
    6.5922   -4.6943    2.3115 C   0  0  0  0  0  0  0  0  0  0  0  0
    6.0967   -5.8870    3.1339 C   0  0  0  0  0  0  0  0  0  0  0  0
    4.9561   -6.6489    2.4495 C   0  0  2  0  0  0  0  0  0  0  0  0
    3.9512   -5.6605    1.8435 C   0  0  2  0  0  0  0  0  0  0  0  0
    2.7861   -6.5983    1.5135 C   0  0  0  0  0  0  0  0  0  0  0  0
    2.7624   -7.5703    2.6694 C   0  0  0  0  0  0  0  0  0  0  0  0
    1.6708   -8.1989    3.1067 C   0  0  0  0  0  0  0  0  0  0  0  0
    4.1473   -7.6566    3.2986 C   0  0  0  0  0  0  0  0  0  0  0  0
    4.7257   -9.0786    3.1615 C   0  0  0  0  0  0  0  0  0  0  0  0
    4.0604   -7.2957    4.8014 C   0  0  0  0  0  0  0  0  0  0  0  0
    4.5535   -4.6846    0.7484 C   0  0  2  0  0  0  0  0  0  0  0  0
    4.1718   -5.0778   -0.6904 C   0  0  0  0  0  0  0  0  0  0  0  0
    3.7951   -3.3340    0.8337 C   0  0  1  0  0  0  0  0  0  0  0  0
    4.2231   -2.4336    1.8353 O   0  0  0  0  0  0  0  0  0  0  0  0
    3.2528   -0.7612   -0.1129 H   0  0  0  0  0  0  0  0  0  0  0  0
    3.5317   -1.1574   -1.9139 H   0  0  0  0  0  0  0  0  0  0  0  0
    3.3263   -3.8328   -2.2721 H   0  0  0  0  0  0  0  0  0  0  0  0
    5.6308   -4.5209   -2.8380 H   0  0  0  0  0  0  0  0  0  0  0  0
    5.2867   -2.8504   -3.1148 H   0  0  0  0  0  0  0  0  0  0  0  0
    7.5610   -3.3080   -2.1198 H   0  0  0  0  0  0  0  0  0  0  0  0
    8.6805   -5.1776   -0.6296 H   0  0  0  0  0  0  0  0  0  0  0  0
    8.9510   -4.3983    0.8852 H   0  0  0  0  0  0  0  0  0  0  0  0
    9.1806   -3.5209   -0.6030 H   0  0  0  0  0  0  0  0  0  0  0  0
    6.4125   -5.6883    0.4843 H   0  0  0  0  0  0  0  0  0  0  0  0
    7.6701   -4.6794    2.4069 H   0  0  0  0  0  0  0  0  0  0  0  0
    6.2189   -3.7930    2.7769 H   0  0  0  0  0  0  0  0  0  0  0  0
    6.9259   -6.5685    3.2707 H   0  0  0  0  0  0  0  0  0  0  0  0
    5.8187   -5.5258    4.1288 H   0  0  0  0  0  0  0  0  0  0  0  0
    5.3892   -7.2257    1.6195 H   0  0  0  0  0  0  0  0  0  0  0  0
    3.6167   -5.0404    2.6802 H   0  0  0  0  0  0  0  0  0  0  0  0
    1.8158   -6.1189    1.3651 H   0  0  0  0  0  0  0  0  0  0  0  0
    3.0266   -7.2043    0.6463 H   0  0  0  0  0  0  0  0  0  0  0  0
    0.7142   -8.0767    2.6111 H   0  0  0  0  0  0  0  0  0  0  0  0
    1.7096   -8.8595    3.9666 H   0  0  0  0  0  0  0  0  0  0  0  0
    5.7537   -9.1137    3.5271 H   0  0  0  0  0  0  0  0  0  0  0  0
    4.7320   -9.4092    2.1214 H   0  0  0  0  0  0  0  0  0  0  0  0
    4.1498   -9.8092    3.7253 H   0  0  0  0  0  0  0  0  0  0  0  0
    5.0409   -7.3419    5.2736 H   0  0  0  0  0  0  0  0  0  0  0  0
    3.4280   -7.9919    5.3460 H   0  0  0  0  0  0  0  0  0  0  0  0
    3.6507   -6.2982    4.9539 H   0  0  0  0  0  0  0  0  0  0  0  0
    3.1302   -5.3842   -0.6637 H   0  0  0  0  0  0  0  0  0  0  0  0
    4.7423   -5.9207   -1.0934 H   0  0  0  0  0  0  0  0  0  0  0  0
    2.7396   -3.5360    1.0147 H   0  0  0  0  0  0  0  0  0  0  0  0
    5.1415   -2.2524    1.7000 H   0  0  0  0  0  0  0  0  0  0  0  0
  1  2  2  0
  1 26  1  0
  1 27  1  0
  2 24  1  0
  2  3  1  0
  3 23  1  0
  3  4  1  0
  3 28  1  6
  4  5  1  0
  4 29  1  0
  4 30  1  0
  5  9  1  0
  5  6  1  0
  5 31  1  6
  6  7  1  0
  7  8  2  0
  7  9  1  0
  9 10  1  6
  9 11  1  0
 10 32  1  0
 10 33  1  0
 10 34  1  0
 11 22  1  0
 11 12  1  0
 11 35  1  6
 12 13  1  0
 12 36  1  0
 12 37  1  0
 13 14  1  0
 13 38  1  0
 13 39  1  0
 14 19  1  0
 14 15  1  0
 14 40  1  6
 15 16  1  0
 15 22  1  0
 15 41  1  1
 16 17  1  0
 16 42  1  0
 16 43  1  0
 17 18  2  0
 17 19  1  0
 18 44  1  0
 18 45  1  0
 19 20  1  0
 19 21  1  0
 20 46  1  0
 20 47  1  0
 20 48  1  0
 21 49  1  0
 21 50  1  0
 21 51  1  0
 22 23  1  6
 22 24  1  0
 23 52  1  0
 23 53  1  0
 24 25  1  0
 24 54  1  1
 25 55  1  0
M  END
>  <i_m_ct_stereo_status>  (340) 
1

>  <s_m_source_file>  (340) 
/var/tmp/pbs.5076255.sched01/tmphrhi8tfx/132_dydaaau.sdf

>  <i_m_source_file_index>  (340) 
28

>  <i_lp_mmshare_version>  (340) 
48012

>  <i_f3d_flags>  (340) 
0

>  <s_epik_input>  (340) 
W09IXVtDQEhdMUMoPVtDSDJdKVtDSF0oW0NIMl0yKVtDSDJdW0NAQEhdKE9DMz1PKVtDQF0zKFtDSDNdKVtDQEhdKFtDQEBdMTI0KVtDSDJdW0NIMl1bQ0BASF01W0NAQEhdNFtDSDJdQyg9W0NIMl0pQzUoW0NIM10pW0NIM10=

>  <s_epik_cmdline>  (340) 
J2VwaWtfcHl0aG9uJywgJy1waHQnLCAnMi4wJywgJy1waCcsICc3LjAnLCAnLXRuJywgJzgnLCAnLW1hJywgJzIwMCcsICctaW1hZScsICc8aW5maWxlLm1hZT4nLCAnLW9tYWUnLCAnPG91dGZpbGUubWFlPic=

>  <r_lp_tautomer_probability>  (340) 
1

>  <r_epik_Ionization_Penalty>  (340) 
8.51178e-08

>  <r_epik_Ionization_Penalty_Charging>  (340) 
0

>  <r_epik_Ionization_Penalty_Neutral>  (340) 
8.51178e-08

>  <r_epik_State_Penalty>  (340) 
-0

>  <r_epik_Charging_Adjusted_Penalty>  (340) 
0

>  <i_epik_Tot_Q>  (340) 
0

>  <i_epik_Tot_abs_Q>  (340) 
0

>  <s_epik_Chemistry_Notes>  (340) 
This compound has an ester and may undergo hydrolysis at high or low pH.

>  <s_lp_Force_Field>  (340) 
OPLS3e

>  <r_lp_Energy>  (340) 
66.6636

>  <b_lp_Chiralities_Consistent>  (340) 
1

>  <s_lp_Variant>  (340) 
109:0-2

>  <s_i_glide_gridfile>  (340) 
pfpi4k_grid

>  <i_i_glide_lignum>  (340) 
28

>  <i_i_glide_rotatable_bonds>  (340) 
1

>  <r_i_docking_score>  (340) 
-2.81406

>  <r_i_glide_ligand_efficiency>  (340) 
-0.112562

>  <r_i_glide_ligand_efficiency_sa>  (340) 
-0.329134

>  <r_i_glide_ligand_efficiency_ln>  (340) 
-0.667015

>  <r_i_glide_gscore>  (340) 
-2.81406

>  <r_i_glide_lipo>  (340) 
-0.576155

>  <r_i_glide_hbond>  (340) 
-0.16

>  <r_i_glide_metal>  (340) 
-0

>  <r_i_glide_rewards>  (340) 
-1.15996

>  <r_i_glide_evdw>  (340) 
-15.0382

>  <r_i_glide_ecoul>  (340) 
-1.10683

>  <r_i_glide_erotb>  (340) 
0

>  <r_i_glide_esite>  (340) 
0

>  <r_i_glide_emodel>  (340) 
-17.4032

>  <r_i_glide_energy>  (340) 
-16.145

>  <r_i_glide_einternal>  (340) 
0.000761257

>  <r_i_glide_intrahb_reward>  (340) 
-0

>  <i_i_glide_confnum>  (340) 
2

>  <i_i_glide_posenum>  (340) 
7

>  <r_i_glide_eff_state_penalty>  (340) 
0

>  <ligand_id>  (340) 
109

>  <original_smiles>  (340) 
C=C1C2CC3OC(=O)C3(C)C3CCC4C(CC(=C)C4(C)C)C3(C2)C1O

>  <smiles>  (340) 
[H]OC1([H])C(=C([H])[H])C2([H])C([H])([H])C3([H])OC(=O)C3(C([H])([H])[H])C3([H])C([H])([H])C([H])([H])C4([H])C([H])(C([H])([H])C(=C([H])[H])C4(C([H])([H])[H])C([H])([H])[H])C13C2([H])[H]

$$$$
110:0:0
     RDKit          3D

 64 68  0  0  1  0  0  0  0  0999 V2000
    3.4808    0.4209    4.1664 C   0  0  0  0  0  0  0  0  0  0  0  0
    4.4067   -0.2619    3.1741 C   0  0  0  0  0  0  0  0  0  0  0  0
    5.6341   -0.1604    3.2608 O   0  0  0  0  0  0  0  0  0  0  0  0
    3.7366   -0.9744    2.2503 O   0  0  0  0  0  0  0  0  0  0  0  0
    4.4231   -1.6098    1.1782 C   0  0  2  0  0  0  0  0  0  0  0  0
    3.4209   -1.8591    0.0233 C   0  0  0  0  0  0  0  0  0  0  0  0
    4.0032   -2.6959   -1.1443 C   0  0  1  0  0  0  0  0  0  0  0  0
    2.8922   -3.0520   -2.1555 C   0  0  0  0  0  0  0  0  0  0  0  0
    5.0435   -1.8508   -1.9155 C   0  0  0  0  0  0  0  0  0  0  0  0
    6.1315   -1.4817   -1.0848 O   0  0  0  0  0  0  0  0  0  0  0  0
    6.8365   -2.5359   -0.5164 C   0  0  1  0  0  0  0  0  0  0  0  0
    7.8710   -2.0279    0.2938 O   0  0  0  0  0  0  0  0  0  0  0  0
    5.9097   -3.5201    0.2917 C   0  0  1  0  0  0  0  0  0  0  0  0
    6.8384   -4.7209    0.6278 C   0  0  0  0  0  0  0  0  0  0  0  0
    5.2787   -2.8644    1.5713 C   0  0  2  0  0  0  0  0  0  0  0  0
    4.5315   -3.9708    2.3906 C   0  0  1  0  0  0  0  0  0  0  0  0
    3.9638   -3.5600    3.7630 C   0  0  0  0  0  0  0  0  0  0  0  0
    3.5130   -4.7987    4.5550 C   0  0  0  0  0  0  0  0  0  0  0  0
    2.4670   -5.6756    3.8076 C   0  0  2  0  0  0  0  0  0  0  0  0
    1.0814   -4.9922    3.8621 C   0  0  0  0  0  0  0  0  0  0  0  0
    2.4471   -7.0877    4.4442 C   0  0  1  0  0  0  0  0  0  0  0  0
    1.2791   -7.8091    4.1005 O   0  0  0  0  0  0  0  0  0  0  0  0
    3.6495   -7.8145    3.8274 C   0  0  0  0  0  0  0  0  0  0  0  0
    3.8709   -7.1797    2.4459 C   0  0  0  0  0  0  0  0  0  0  0  0
    2.9188   -5.9646    2.3518 C   0  0  2  0  0  0  0  0  0  0  0  0
    3.4450   -4.7159    1.5857 C   0  0  2  0  0  0  0  0  0  0  0  0
    3.8366   -5.0200    0.1158 C   0  0  0  0  0  0  0  0  0  0  0  0
    4.7334   -3.9687   -0.6153 C   0  0  1  0  0  0  0  0  0  0  0  0
    2.7634   -0.2932    4.5719 H   0  0  0  0  0  0  0  0  0  0  0  0
    2.9309    1.2249    3.6755 H   0  0  0  0  0  0  0  0  0  0  0  0
    4.0484    0.8470    4.9934 H   0  0  0  0  0  0  0  0  0  0  0  0
    5.1187   -0.8484    0.8274 H   0  0  0  0  0  0  0  0  0  0  0  0
    2.5195   -2.3341    0.3996 H   0  0  0  0  0  0  0  0  0  0  0  0
    3.0709   -0.8959   -0.3539 H   0  0  0  0  0  0  0  0  0  0  0  0
    3.2650   -3.7127   -2.9399 H   0  0  0  0  0  0  0  0  0  0  0  0
    2.5013   -2.1608   -2.6430 H   0  0  0  0  0  0  0  0  0  0  0  0
    2.0468   -3.5482   -1.6830 H   0  0  0  0  0  0  0  0  0  0  0  0
    5.4227   -2.3797   -2.7902 H   0  0  0  0  0  0  0  0  0  0  0  0
    4.5846   -0.9331   -2.2887 H   0  0  0  0  0  0  0  0  0  0  0  0
    7.3221   -3.0643   -1.3391 H   0  0  0  0  0  0  0  0  0  0  0  0
    7.4722   -1.6384    1.0581 H   0  0  0  0  0  0  0  0  0  0  0  0
    6.3166   -5.5977    1.0033 H   0  0  0  0  0  0  0  0  0  0  0  0
    7.5893   -4.4497    1.3714 H   0  0  0  0  0  0  0  0  0  0  0  0
    7.3711   -5.0525   -0.2587 H   0  0  0  0  0  0  0  0  0  0  0  0
    6.0956   -2.5207    2.2056 H   0  0  0  0  0  0  0  0  0  0  0  0
    5.2971   -4.6935    2.6580 H   0  0  0  0  0  0  0  0  0  0  0  0
    4.7199   -3.0194    4.3346 H   0  0  0  0  0  0  0  0  0  0  0  0
    3.1120   -2.8918    3.6517 H   0  0  0  0  0  0  0  0  0  0  0  0
    4.4042   -5.3824    4.7892 H   0  0  0  0  0  0  0  0  0  0  0  0
    3.1079   -4.4809    5.5161 H   0  0  0  0  0  0  0  0  0  0  0  0
    0.3349   -5.5573    3.3061 H   0  0  0  0  0  0  0  0  0  0  0  0
    1.1020   -3.9914    3.4333 H   0  0  0  0  0  0  0  0  0  0  0  0
    0.7245   -4.9059    4.8877 H   0  0  0  0  0  0  0  0  0  0  0  0
    2.5149   -7.0494    5.5324 H   0  0  0  0  0  0  0  0  0  0  0  0
    1.3553   -8.6866    4.4491 H   0  0  0  0  0  0  0  0  0  0  0  0
    4.5339   -7.6414    4.4426 H   0  0  0  0  0  0  0  0  0  0  0  0
    3.5198   -8.8970    3.7794 H   0  0  0  0  0  0  0  0  0  0  0  0
    4.9190   -6.9063    2.3330 H   0  0  0  0  0  0  0  0  0  0  0  0
    3.6394   -7.8960    1.6562 H   0  0  0  0  0  0  0  0  0  0  0  0
    2.0398   -6.3214    1.8122 H   0  0  0  0  0  0  0  0  0  0  0  0
    2.5890   -4.0508    1.5424 H   0  0  0  0  0  0  0  0  0  0  0  0
    4.3365   -5.9859    0.0691 H   0  0  0  0  0  0  0  0  0  0  0  0
    2.9179   -5.1760   -0.4413 H   0  0  0  0  0  0  0  0  0  0  0  0
    5.1448   -4.4765   -1.4915 H   0  0  0  0  0  0  0  0  0  0  0  0
  1  2  1  0
  1 29  1  0
  1 30  1  0
  1 31  1  0
  2  3  2  0
  2  4  1  0
  4  5  1  0
  5 15  1  0
  5  6  1  0
  5 32  1  6
  6  7  1  0
  6 33  1  0
  6 34  1  0
  7 28  1  0
  7  8  1  6
  7  9  1  0
  8 35  1  0
  8 36  1  0
  8 37  1  0
  9 10  1  0
  9 38  1  0
  9 39  1  0
 10 11  1  0
 11 12  1  0
 11 13  1  0
 11 40  1  6
 12 41  1  0
 13 28  1  0
 13 14  1  1
 13 15  1  0
 14 42  1  0
 14 43  1  0
 14 44  1  0
 15 16  1  0
 15 45  1  1
 16 26  1  0
 16 17  1  0
 16 46  1  1
 17 18  1  0
 17 47  1  0
 17 48  1  0
 18 19  1  0
 18 49  1  0
 18 50  1  0
 19 25  1  0
 19 20  1  6
 19 21  1  0
 20 51  1  0
 20 52  1  0
 20 53  1  0
 21 22  1  0
 21 23  1  0
 21 54  1  1
 22 55  1  0
 23 24  1  0
 23 56  1  0
 23 57  1  0
 24 25  1  0
 24 58  1  0
 24 59  1  0
 25 26  1  0
 25 60  1  6
 26 27  1  0
 26 61  1  6
 27 28  1  0
 27 62  1  0
 27 63  1  0
 28 64  1  6
M  END
>  <i_m_ct_stereo_status>  (341) 
1

>  <s_m_source_file>  (341) 
/var/tmp/pbs.5076255.sched01/tmphrhi8tfx/132_dydaaau.sdf

>  <i_m_source_file_index>  (341) 
29

>  <i_lp_mmshare_version>  (341) 
48012

>  <i_f3d_flags>  (341) 
0

>  <s_epik_input>  (341) 
W0NIM11DKD1PKU9bQ0BIXShbQ0gyXTEpW0NASF0oW0NAXShbQ0gzXSkoW0NASF0oW09IXSlPW0NIMl0yKVtDQEBIXTNbQ0BAXTEyW0NIM10pW0NAQEhdNFtDQEBIXShbQ0gyXTMpW0NAQEhdNVtDQF0oW0NIM10pKFtDSDJdW0NIMl00KVtDQEBIXShbT0hdKVtDSDJdW0NIMl01

>  <s_epik_cmdline>  (341) 
J2VwaWtfcHl0aG9uJywgJy1waHQnLCAnMi4wJywgJy1waCcsICc3LjAnLCAnLXRuJywgJzgnLCAnLW1hJywgJzIwMCcsICctaW1hZScsICc8aW5maWxlLm1hZT4nLCAnLW9tYWUnLCAnPG91dGZpbGUubWFlPic=

>  <r_lp_tautomer_probability>  (341) 
1

>  <r_epik_Ionization_Penalty>  (341) 
2.91169e-06

>  <r_epik_Ionization_Penalty_Charging>  (341) 
0

>  <r_epik_Ionization_Penalty_Neutral>  (341) 
2.91169e-06

>  <r_epik_State_Penalty>  (341) 
-0

>  <r_epik_Charging_Adjusted_Penalty>  (341) 
0

>  <i_epik_Tot_Q>  (341) 
0

>  <i_epik_Tot_abs_Q>  (341) 
0

>  <s_epik_Chemistry_Notes>  (341) 
This compound has an ester and may undergo hydrolysis at high or low pH. This compound contains an acetal/aminal-like group ( X-CH(R)-Y where X, Y are N, S, or O) that may be acid/base labile, releasing an aldehyde.

>  <s_lp_Force_Field>  (341) 
OPLS3e

>  <r_lp_Energy>  (341) 
57.6281

>  <b_lp_Chiralities_Consistent>  (341) 
1

>  <s_lp_Variant>  (341) 
110:0-1

>  <s_i_glide_gridfile>  (341) 
pfpi4k_grid

>  <i_i_glide_lignum>  (341) 
29

>  <i_i_glide_rotatable_bonds>  (341) 
4

>  <r_i_docking_score>  (341) 
-3.00017

>  <r_i_glide_ligand_efficiency>  (341) 
-0.107149

>  <r_i_glide_ligand_efficiency_sa>  (341) 
-0.325367

>  <r_i_glide_ligand_efficiency_ln>  (341) 
-0.692527

>  <r_i_glide_gscore>  (341) 
-3.00017

>  <r_i_glide_lipo>  (341) 
-0.283918

>  <r_i_glide_hbond>  (341) 
-0.140935

>  <r_i_glide_metal>  (341) 
-0

>  <r_i_glide_rewards>  (341) 
-0.81405

>  <r_i_glide_evdw>  (341) 
-27.5597

>  <r_i_glide_ecoul>  (341) 
-3.26322

>  <r_i_glide_erotb>  (341) 
0.126725

>  <r_i_glide_esite>  (341) 
-0.0205267

>  <r_i_glide_emodel>  (341) 
-37.2136

>  <r_i_glide_energy>  (341) 
-30.8229

>  <r_i_glide_einternal>  (341) 
0.586637

>  <r_i_glide_intrahb_reward>  (341) 
-0

>  <i_i_glide_confnum>  (341) 
1

>  <i_i_glide_posenum>  (341) 
2

>  <r_i_glide_eff_state_penalty>  (341) 
0

>  <ligand_id>  (341) 
110

>  <original_smiles>  (341) 
CC(=O)OC1CC2(C)COC(O)C3(C)C1C1CCC4(C)C(O)CCC4C1CC23

>  <smiles>  (341) 
[H]OC1([H])OC([H])([H])C2(C([H])([H])[H])C([H])([H])C([H])(OC(=O)C([H])([H])[H])C3([H])C4([H])C([H])([H])C([H])([H])C5(C([H])([H])[H])C([H])(O[H])C([H])([H])C([H])([H])C5([H])C4([H])C([H])([H])C2([H])C13C([H])([H])[H]

$$$$
110:0:1
     RDKit          3D

 64 68  0  0  1  0  0  0  0  0999 V2000
    3.4376    0.5089    4.2319 C   0  0  0  0  0  0  0  0  0  0  0  0
    4.3749   -0.1922    3.2602 C   0  0  0  0  0  0  0  0  0  0  0  0
    5.6004   -0.0982    3.3651 O   0  0  0  0  0  0  0  0  0  0  0  0
    3.7128   -0.9022    2.3279 O   0  0  0  0  0  0  0  0  0  0  0  0
    4.4126   -1.5525    1.2727 C   0  0  2  0  0  0  0  0  0  0  0  0
    3.4232   -1.8191    0.1087 C   0  0  0  0  0  0  0  0  0  0  0  0
    4.0184   -2.6815   -1.0355 C   0  0  1  0  0  0  0  0  0  0  0  0
    2.9192   -3.0528   -2.0519 C   0  0  0  0  0  0  0  0  0  0  0  0
    5.0706   -1.8521   -1.8088 C   0  0  0  0  0  0  0  0  0  0  0  0
    6.1471   -1.4713   -0.9708 O   0  0  0  0  0  0  0  0  0  0  0  0
    6.8443   -2.5157   -0.3736 C   0  0  1  0  0  0  0  0  0  0  0  0
    7.8687   -1.9957    0.4402 O   0  0  0  0  0  0  0  0  0  0  0  0
    5.9045   -3.4856    0.4379 C   0  0  1  0  0  0  0  0  0  0  0  0
    6.8259   -4.6859    0.8092 C   0  0  0  0  0  0  0  0  0  0  0  0
    5.2588   -2.8037    1.6978 C   0  0  2  0  0  0  0  0  0  0  0  0
    4.4974   -3.8913    2.5279 C   0  0  1  0  0  0  0  0  0  0  0  0
    3.9152   -3.4536    3.8865 C   0  0  0  0  0  0  0  0  0  0  0  0
    3.4503   -4.6751    4.6952 C   0  0  0  0  0  0  0  0  0  0  0  0
    2.4104   -5.5616    3.9502 C   0  0  2  0  0  0  0  0  0  0  0  0
    1.0263   -4.8729    3.9768 C   0  0  0  0  0  0  0  0  0  0  0  0
    2.3783   -6.9587    4.6159 C   0  0  1  0  0  0  0  0  0  0  0  0
    1.2134   -7.6864    4.2751 O   0  0  0  0  0  0  0  0  0  0  0  0
    3.5860   -7.7025    4.0298 C   0  0  0  0  0  0  0  0  0  0  0  0
    3.8270   -7.0962    2.6370 C   0  0  0  0  0  0  0  0  0  0  0  0
    2.8798   -5.8792    2.5057 C   0  0  2  0  0  0  0  0  0  0  0  0
    3.4177   -4.6477    1.7212 C   0  0  2  0  0  0  0  0  0  0  0  0
    3.8283   -4.9836    0.2617 C   0  0  0  0  0  0  0  0  0  0  0  0
    4.7364   -3.9461   -0.4744 C   0  0  1  0  0  0  0  0  0  0  0  0
    2.7026   -0.1930    4.6252 H   0  0  0  0  0  0  0  0  0  0  0  0
    2.9105    1.3194    3.7282 H   0  0  0  0  0  0  0  0  0  0  0  0
    3.9952    0.9300    5.0679 H   0  0  0  0  0  0  0  0  0  0  0  0
    5.1143   -0.7979    0.9198 H   0  0  0  0  0  0  0  0  0  0  0  0
    2.5156   -2.2834    0.4831 H   0  0  0  0  0  0  0  0  0  0  0  0
    3.0814   -0.8623   -0.2908 H   0  0  0  0  0  0  0  0  0  0  0  0
    3.2996   -3.7293   -2.8225 H   0  0  0  0  0  0  0  0  0  0  0  0
    2.5380   -2.1711   -2.5590 H   0  0  0  0  0  0  0  0  0  0  0  0
    2.0644   -3.5373   -1.5803 H   0  0  0  0  0  0  0  0  0  0  0  0
    5.4610   -2.3981   -2.6687 H   0  0  0  0  0  0  0  0  0  0  0  0
    4.6195   -0.9408   -2.2063 H   0  0  0  0  0  0  0  0  0  0  0  0
    7.3388   -3.0616   -1.1792 H   0  0  0  0  0  0  0  0  0  0  0  0
    7.4603   -1.5863    1.1911 H   0  0  0  0  0  0  0  0  0  0  0  0
    6.2933   -5.5486    1.2010 H   0  0  0  0  0  0  0  0  0  0  0  0
    7.5674   -4.3995    1.5549 H   0  0  0  0  0  0  0  0  0  0  0  0
    7.3671   -5.0502   -0.0593 H   0  0  0  0  0  0  0  0  0  0  0  0
    6.0691   -2.4518    2.3362 H   0  0  0  0  0  0  0  0  0  0  0  0
    5.2572   -4.6099    2.8191 H   0  0  0  0  0  0  0  0  0  0  0  0
    4.6654   -2.9046    4.4585 H   0  0  0  0  0  0  0  0  0  0  0  0
    3.0653   -2.7861    3.7536 H   0  0  0  0  0  0  0  0  0  0  0  0
    4.3363   -5.2563    4.9529 H   0  0  0  0  0  0  0  0  0  0  0  0
    3.0335   -4.3375    5.6445 H   0  0  0  0  0  0  0  0  0  0  0  0
    0.2836   -5.4455    3.4244 H   0  0  0  0  0  0  0  0  0  0  0  0
    1.0540   -3.8800    3.5308 H   0  0  0  0  0  0  0  0  0  0  0  0
    0.6595   -4.7678    4.9965 H   0  0  0  0  0  0  0  0  0  0  0  0
    2.4280   -6.8947    5.7036 H   0  0  0  0  0  0  0  0  0  0  0  0
    1.2976   -7.9917    3.3855 H   0  0  0  0  0  0  0  0  0  0  0  0
    4.4642   -7.5206    4.6524 H   0  0  0  0  0  0  0  0  0  0  0  0
    3.4517   -8.7854    4.0048 H   0  0  0  0  0  0  0  0  0  0  0  0
    4.8774   -6.8270    2.5339 H   0  0  0  0  0  0  0  0  0  0  0  0
    3.6064   -7.8267    1.8574 H   0  0  0  0  0  0  0  0  0  0  0  0
    2.0062   -6.2402    1.9600 H   0  0  0  0  0  0  0  0  0  0  0  0
    2.5647   -3.9801    1.6569 H   0  0  0  0  0  0  0  0  0  0  0  0
    4.3296   -5.9480    0.2465 H   0  0  0  0  0  0  0  0  0  0  0  0
    2.9251   -5.1566   -0.3174 H   0  0  0  0  0  0  0  0  0  0  0  0
    5.1584   -4.4704   -1.3372 H   0  0  0  0  0  0  0  0  0  0  0  0
  1  2  1  0
  1 29  1  0
  1 30  1  0
  1 31  1  0
  2  3  2  0
  2  4  1  0
  4  5  1  0
  5 15  1  0
  5  6  1  0
  5 32  1  6
  6  7  1  0
  6 33  1  0
  6 34  1  0
  7 28  1  0
  7  8  1  6
  7  9  1  0
  8 35  1  0
  8 36  1  0
  8 37  1  0
  9 10  1  0
  9 38  1  0
  9 39  1  0
 10 11  1  0
 11 12  1  0
 11 13  1  0
 11 40  1  6
 12 41  1  0
 13 28  1  0
 13 14  1  1
 13 15  1  0
 14 42  1  0
 14 43  1  0
 14 44  1  0
 15 16  1  0
 15 45  1  1
 16 26  1  0
 16 17  1  0
 16 46  1  1
 17 18  1  0
 17 47  1  0
 17 48  1  0
 18 19  1  0
 18 49  1  0
 18 50  1  0
 19 25  1  0
 19 20  1  6
 19 21  1  0
 20 51  1  0
 20 52  1  0
 20 53  1  0
 21 22  1  0
 21 23  1  0
 21 54  1  1
 22 55  1  0
 23 24  1  0
 23 56  1  0
 23 57  1  0
 24 25  1  0
 24 58  1  0
 24 59  1  0
 25 26  1  0
 25 60  1  6
 26 27  1  0
 26 61  1  6
 27 28  1  0
 27 62  1  0
 27 63  1  0
 28 64  1  6
M  END
>  <i_m_ct_stereo_status>  (342) 
1

>  <s_m_source_file>  (342) 
/var/tmp/pbs.5076255.sched01/tmphrhi8tfx/132_dydaaau.sdf

>  <i_m_source_file_index>  (342) 
29

>  <i_lp_mmshare_version>  (342) 
48012

>  <i_f3d_flags>  (342) 
0

>  <s_epik_input>  (342) 
W0NIM11DKD1PKU9bQ0BIXShbQ0gyXTEpW0NASF0oW0NAXShbQ0gzXSkoW0NASF0oW09IXSlPW0NIMl0yKVtDQEBIXTNbQ0BAXTEyW0NIM10pW0NAQEhdNFtDQEBIXShbQ0gyXTMpW0NAQEhdNVtDQF0oW0NIM10pKFtDSDJdW0NIMl00KVtDQEBIXShbT0hdKVtDSDJdW0NIMl01

>  <s_epik_cmdline>  (342) 
J2VwaWtfcHl0aG9uJywgJy1waHQnLCAnMi4wJywgJy1waCcsICc3LjAnLCAnLXRuJywgJzgnLCAnLW1hJywgJzIwMCcsICctaW1hZScsICc8aW5maWxlLm1hZT4nLCAnLW9tYWUnLCAnPG91dGZpbGUubWFlPic=

>  <r_lp_tautomer_probability>  (342) 
1

>  <r_epik_Ionization_Penalty>  (342) 
2.91169e-06

>  <r_epik_Ionization_Penalty_Charging>  (342) 
0

>  <r_epik_Ionization_Penalty_Neutral>  (342) 
2.91169e-06

>  <r_epik_State_Penalty>  (342) 
-0

>  <r_epik_Charging_Adjusted_Penalty>  (342) 
0

>  <i_epik_Tot_Q>  (342) 
0

>  <i_epik_Tot_abs_Q>  (342) 
0

>  <s_epik_Chemistry_Notes>  (342) 
This compound has an ester and may undergo hydrolysis at high or low pH. This compound contains an acetal/aminal-like group ( X-CH(R)-Y where X, Y are N, S, or O) that may be acid/base labile, releasing an aldehyde.

>  <s_lp_Force_Field>  (342) 
OPLS3e

>  <r_lp_Energy>  (342) 
57.6281

>  <b_lp_Chiralities_Consistent>  (342) 
1

>  <s_lp_Variant>  (342) 
110:0-1

>  <s_i_glide_gridfile>  (342) 
pfpi4k_grid

>  <i_i_glide_lignum>  (342) 
29

>  <i_i_glide_rotatable_bonds>  (342) 
4

>  <r_i_docking_score>  (342) 
-2.92393

>  <r_i_glide_ligand_efficiency>  (342) 
-0.104426

>  <r_i_glide_ligand_efficiency_sa>  (342) 
-0.317099

>  <r_i_glide_ligand_efficiency_ln>  (342) 
-0.674929

>  <r_i_glide_gscore>  (342) 
-2.92393

>  <r_i_glide_lipo>  (342) 
-0.283243

>  <r_i_glide_hbond>  (342) 
-0.131983

>  <r_i_glide_metal>  (342) 
-0

>  <r_i_glide_rewards>  (342) 
-0.798318

>  <r_i_glide_evdw>  (342) 
-27.7369

>  <r_i_glide_ecoul>  (342) 
-2.91335

>  <r_i_glide_erotb>  (342) 
0.126725

>  <r_i_glide_esite>  (342) 
-0.0132657

>  <r_i_glide_emodel>  (342) 
-36.8283

>  <r_i_glide_energy>  (342) 
-30.6502

>  <r_i_glide_einternal>  (342) 
0.56807

>  <r_i_glide_intrahb_reward>  (342) 
-0

>  <i_i_glide_confnum>  (342) 
1

>  <i_i_glide_posenum>  (342) 
11

>  <r_i_glide_eff_state_penalty>  (342) 
0

>  <ligand_id>  (342) 
110

>  <original_smiles>  (342) 
CC(=O)OC1CC2(C)COC(O)C3(C)C1C1CCC4(C)C(O)CCC4C1CC23

>  <smiles>  (342) 
[H]OC1([H])OC([H])([H])C2(C([H])([H])[H])C([H])([H])C([H])(OC(=O)C([H])([H])[H])C3([H])C4([H])C([H])([H])C([H])([H])C5(C([H])([H])[H])C([H])(O[H])C([H])([H])C([H])([H])C5([H])C4([H])C([H])([H])C2([H])C13C([H])([H])[H]

$$$$
110:0:2
     RDKit          3D

 64 68  0  0  1  0  0  0  0  0999 V2000
    3.5387    0.4302    4.2453 C   0  0  0  0  0  0  0  0  0  0  0  0
    4.4530   -0.2582    3.2399 C   0  0  0  0  0  0  0  0  0  0  0  0
    5.6805   -0.1747    3.3223 O   0  0  0  0  0  0  0  0  0  0  0  0
    3.7633   -0.9467    2.3108 O   0  0  0  0  0  0  0  0  0  0  0  0
    4.4361   -1.5863    1.2322 C   0  0  2  0  0  0  0  0  0  0  0  0
    3.4168   -1.8411    0.0911 C   0  0  0  0  0  0  0  0  0  0  0  0
    3.9824   -2.6883   -1.0794 C   0  0  1  0  0  0  0  0  0  0  0  0
    2.8565   -3.0564   -2.0708 C   0  0  0  0  0  0  0  0  0  0  0  0
    5.0117   -1.8479   -1.8711 C   0  0  0  0  0  0  0  0  0  0  0  0
    6.1092   -1.4743   -1.0573 O   0  0  0  0  0  0  0  0  0  0  0  0
    6.8229   -2.5253   -0.4915 C   0  0  1  0  0  0  0  0  0  0  0  0
    7.8686   -2.0133    0.3007 O   0  0  0  0  0  0  0  0  0  0  0  0
    5.9065   -3.5054    0.3341 C   0  0  1  0  0  0  0  0  0  0  0  0
    6.8402   -4.7052    0.6656 C   0  0  0  0  0  0  0  0  0  0  0  0
    5.2942   -2.8416    1.6195 C   0  0  2  0  0  0  0  0  0  0  0  0
    4.5582   -3.9424    2.4566 C   0  0  1  0  0  0  0  0  0  0  0  0
    4.0101   -3.5235    3.8358 C   0  0  0  0  0  0  0  0  0  0  0  0
    3.5680   -4.7556    4.6424 C   0  0  0  0  0  0  0  0  0  0  0  0
    2.5097   -5.6352    3.9153 C   0  0  2  0  0  0  0  0  0  0  0  0
    1.1249   -4.9495    3.9859 C   0  0  0  0  0  0  0  0  0  0  0  0
    2.5025   -7.0431    4.5595 C   0  0  1  0  0  0  0  0  0  0  0  0
    1.3316   -7.7720    4.2367 O   0  0  0  0  0  0  0  0  0  0  0  0
    3.6930   -7.7732    3.9282 C   0  0  0  0  0  0  0  0  0  0  0  0
    3.8946   -7.1474    2.5399 C   0  0  0  0  0  0  0  0  0  0  0  0
    2.9414   -5.9328    2.4540 C   0  0  2  0  0  0  0  0  0  0  0  0
    3.4577   -4.6892    1.6726 C   0  0  2  0  0  0  0  0  0  0  0  0
    3.8299   -5.0064    0.1997 C   0  0  0  0  0  0  0  0  0  0  0  0
    4.7164   -3.9588   -0.5523 C   0  0  1  0  0  0  0  0  0  0  0  0
    2.8068   -0.2754    4.6383 H   0  0  0  0  0  0  0  0  0  0  0  0
    3.0077    1.2535    3.7668 H   0  0  0  0  0  0  0  0  0  0  0  0
    4.1156    0.8298    5.0799 H   0  0  0  0  0  0  0  0  0  0  0  0
    5.1278   -0.8283    0.8696 H   0  0  0  0  0  0  0  0  0  0  0  0
    2.5208   -2.3126    0.4825 H   0  0  0  0  0  0  0  0  0  0  0  0
    3.0627   -0.8811   -0.2885 H   0  0  0  0  0  0  0  0  0  0  0  0
    3.2174   -3.7219   -2.8569 H   0  0  0  0  0  0  0  0  0  0  0  0
    2.4599   -2.1655   -2.5597 H   0  0  0  0  0  0  0  0  0  0  0  0
    2.0155   -3.5437   -1.5805 H   0  0  0  0  0  0  0  0  0  0  0  0
    5.3807   -2.3802   -2.7486 H   0  0  0  0  0  0  0  0  0  0  0  0
    4.5485   -0.9323   -2.2433 H   0  0  0  0  0  0  0  0  0  0  0  0
    7.2963   -3.0597   -1.3176 H   0  0  0  0  0  0  0  0  0  0  0  0
    7.4807   -1.6195    1.0707 H   0  0  0  0  0  0  0  0  0  0  0  0
    6.3222   -5.5772    1.0571 H   0  0  0  0  0  0  0  0  0  0  0  0
    7.6022   -4.4294    1.3944 H   0  0  0  0  0  0  0  0  0  0  0  0
    7.3569   -5.0462   -0.2264 H   0  0  0  0  0  0  0  0  0  0  0  0
    6.1231   -2.4986    2.2388 H   0  0  0  0  0  0  0  0  0  0  0  0
    5.3253   -4.6639    2.7177 H   0  0  0  0  0  0  0  0  0  0  0  0
    4.7759   -2.9787    4.3938 H   0  0  0  0  0  0  0  0  0  0  0  0
    3.1570   -2.8538    3.7325 H   0  0  0  0  0  0  0  0  0  0  0  0
    4.4616   -5.3380    4.8674 H   0  0  0  0  0  0  0  0  0  0  0  0
    3.1777   -4.4304    5.6062 H   0  0  0  0  0  0  0  0  0  0  0  0
    0.3704   -5.5131    3.4383 H   0  0  0  0  0  0  0  0  0  0  0  0
    1.1428   -3.9497    3.5549 H   0  0  0  0  0  0  0  0  0  0  0  0
    0.7823   -4.8592    5.0160 H   0  0  0  0  0  0  0  0  0  0  0  0
    2.5895   -7.0023    5.6460 H   0  0  0  0  0  0  0  0  0  0  0  0
    0.6400   -7.4999    4.8164 H   0  0  0  0  0  0  0  0  0  0  0  0
    4.5868   -7.5995    4.5300 H   0  0  0  0  0  0  0  0  0  0  0  0
    3.5530   -8.8537    3.8895 H   0  0  0  0  0  0  0  0  0  0  0  0
    4.9413   -6.8766    2.4103 H   0  0  0  0  0  0  0  0  0  0  0  0
    3.6494   -7.8690    1.7593 H   0  0  0  0  0  0  0  0  0  0  0  0
    2.0543   -6.2923    1.9283 H   0  0  0  0  0  0  0  0  0  0  0  0
    2.6028   -4.0219    1.6360 H   0  0  0  0  0  0  0  0  0  0  0  0
    4.3325   -5.9707    0.1541 H   0  0  0  0  0  0  0  0  0  0  0  0
    2.9056   -5.1721   -0.3454 H   0  0  0  0  0  0  0  0  0  0  0  0
    5.1174   -4.4715   -1.4318 H   0  0  0  0  0  0  0  0  0  0  0  0
  1  2  1  0
  1 29  1  0
  1 30  1  0
  1 31  1  0
  2  3  2  0
  2  4  1  0
  4  5  1  0
  5 15  1  0
  5  6  1  0
  5 32  1  6
  6  7  1  0
  6 33  1  0
  6 34  1  0
  7 28  1  0
  7  8  1  6
  7  9  1  0
  8 35  1  0
  8 36  1  0
  8 37  1  0
  9 10  1  0
  9 38  1  0
  9 39  1  0
 10 11  1  0
 11 12  1  0
 11 13  1  0
 11 40  1  6
 12 41  1  0
 13 28  1  0
 13 14  1  1
 13 15  1  0
 14 42  1  0
 14 43  1  0
 14 44  1  0
 15 16  1  0
 15 45  1  1
 16 26  1  0
 16 17  1  0
 16 46  1  1
 17 18  1  0
 17 47  1  0
 17 48  1  0
 18 19  1  0
 18 49  1  0
 18 50  1  0
 19 25  1  0
 19 20  1  6
 19 21  1  0
 20 51  1  0
 20 52  1  0
 20 53  1  0
 21 22  1  0
 21 23  1  0
 21 54  1  1
 22 55  1  0
 23 24  1  0
 23 56  1  0
 23 57  1  0
 24 25  1  0
 24 58  1  0
 24 59  1  0
 25 26  1  0
 25 60  1  6
 26 27  1  0
 26 61  1  6
 27 28  1  0
 27 62  1  0
 27 63  1  0
 28 64  1  6
M  END
>  <i_m_ct_stereo_status>  (343) 
1

>  <s_m_source_file>  (343) 
/var/tmp/pbs.5076255.sched01/tmphrhi8tfx/132_dydaaau.sdf

>  <i_m_source_file_index>  (343) 
29

>  <i_lp_mmshare_version>  (343) 
48012

>  <i_f3d_flags>  (343) 
0

>  <s_epik_input>  (343) 
W0NIM11DKD1PKU9bQ0BIXShbQ0gyXTEpW0NASF0oW0NAXShbQ0gzXSkoW0NASF0oW09IXSlPW0NIMl0yKVtDQEBIXTNbQ0BAXTEyW0NIM10pW0NAQEhdNFtDQEBIXShbQ0gyXTMpW0NAQEhdNVtDQF0oW0NIM10pKFtDSDJdW0NIMl00KVtDQEBIXShbT0hdKVtDSDJdW0NIMl01

>  <s_epik_cmdline>  (343) 
J2VwaWtfcHl0aG9uJywgJy1waHQnLCAnMi4wJywgJy1waCcsICc3LjAnLCAnLXRuJywgJzgnLCAnLW1hJywgJzIwMCcsICctaW1hZScsICc8aW5maWxlLm1hZT4nLCAnLW9tYWUnLCAnPG91dGZpbGUubWFlPic=

>  <r_lp_tautomer_probability>  (343) 
1

>  <r_epik_Ionization_Penalty>  (343) 
2.91169e-06

>  <r_epik_Ionization_Penalty_Charging>  (343) 
0

>  <r_epik_Ionization_Penalty_Neutral>  (343) 
2.91169e-06

>  <r_epik_State_Penalty>  (343) 
-0

>  <r_epik_Charging_Adjusted_Penalty>  (343) 
0

>  <i_epik_Tot_Q>  (343) 
0

>  <i_epik_Tot_abs_Q>  (343) 
0

>  <s_epik_Chemistry_Notes>  (343) 
This compound has an ester and may undergo hydrolysis at high or low pH. This compound contains an acetal/aminal-like group ( X-CH(R)-Y where X, Y are N, S, or O) that may be acid/base labile, releasing an aldehyde.

>  <s_lp_Force_Field>  (343) 
OPLS3e

>  <r_lp_Energy>  (343) 
57.6281

>  <b_lp_Chiralities_Consistent>  (343) 
1

>  <s_lp_Variant>  (343) 
110:0-1

>  <s_i_glide_gridfile>  (343) 
pfpi4k_grid

>  <i_i_glide_lignum>  (343) 
29

>  <i_i_glide_rotatable_bonds>  (343) 
4

>  <r_i_docking_score>  (343) 
-2.89474

>  <r_i_glide_ligand_efficiency>  (343) 
-0.103384

>  <r_i_glide_ligand_efficiency_sa>  (343) 
-0.313934

>  <r_i_glide_ligand_efficiency_ln>  (343) 
-0.668191

>  <r_i_glide_gscore>  (343) 
-2.89474

>  <r_i_glide_lipo>  (343) 
-0.287753

>  <r_i_glide_hbond>  (343) 
-0.120843

>  <r_i_glide_metal>  (343) 
-0

>  <r_i_glide_rewards>  (343) 
-0.8189

>  <r_i_glide_evdw>  (343) 
-27.712

>  <r_i_glide_ecoul>  (343) 
-2.59133

>  <r_i_glide_erotb>  (343) 
0.126725

>  <r_i_glide_esite>  (343) 
-0.0196735

>  <r_i_glide_emodel>  (343) 
-36.1985

>  <r_i_glide_energy>  (343) 
-30.3033

>  <r_i_glide_einternal>  (343) 
0.89936

>  <r_i_glide_intrahb_reward>  (343) 
-0

>  <i_i_glide_confnum>  (343) 
4

>  <i_i_glide_posenum>  (343) 
30

>  <r_i_glide_eff_state_penalty>  (343) 
0

>  <ligand_id>  (343) 
110

>  <original_smiles>  (343) 
CC(=O)OC1CC2(C)COC(O)C3(C)C1C1CCC4(C)C(O)CCC4C1CC23

>  <smiles>  (343) 
[H]OC1([H])OC([H])([H])C2(C([H])([H])[H])C([H])([H])C([H])(OC(=O)C([H])([H])[H])C3([H])C4([H])C([H])([H])C([H])([H])C5(C([H])([H])[H])C([H])(O[H])C([H])([H])C([H])([H])C5([H])C4([H])C([H])([H])C2([H])C13C([H])([H])[H]

$$$$
111:0:0
     RDKit          3D

 45 48  0  0  1  0  0  0  0  0999 V2000
    6.3710   -2.7575   -1.2936 C   0  0  0  0  0  0  0  0  0  0  0  0
    5.0227   -2.1115   -0.9149 C   0  0  1  0  0  0  0  0  0  0  0  0
    5.0169   -0.6994   -1.4912 C   0  0  0  0  0  0  0  0  0  0  0  0
    4.4987   -0.3337   -2.6808 C   0  0  0  0  0  0  0  0  0  0  0  0
    3.9236   -1.3201   -3.5917 C   0  0  0  0  0  0  0  0  0  0  0  0
    3.5496   -1.0285   -4.7203 O   0  0  0  0  0  0  0  0  0  0  0  0
    3.8965   -2.7792   -3.1474 C   0  0  0  0  0  0  0  0  0  0  0  0
    3.8716   -2.8408   -1.6254 C   0  0  0  0  0  0  0  0  0  0  0  0
    2.8221   -3.3374   -0.9601 C   0  0  0  0  0  0  0  0  0  0  0  0
    1.7776   -3.8311   -1.6501 F   0  0  0  0  0  0  0  0  0  0  0  0
    2.6743   -3.2557    0.5349 C   0  0  0  0  0  0  0  0  0  0  0  0
    3.4364   -2.0936    1.1738 C   0  0  2  0  0  0  0  0  0  0  0  0
    4.8842   -2.1334    0.6573 C   0  0  2  0  0  0  0  0  0  0  0  0
    5.7012   -1.0603    1.4026 C   0  0  0  0  0  0  0  0  0  0  0  0
    5.7098   -1.3494    2.8959 C   0  0  0  0  0  0  0  0  0  0  0  0
    4.3304   -1.4228    3.5759 C   0  0  1  0  0  0  0  0  0  0  0  0
    4.5050   -2.0872    4.9647 C   0  0  0  0  0  0  0  0  0  0  0  0
    3.6732   -0.0582    3.8005 C   0  0  0  0  0  0  0  0  0  0  0  0
    4.2587    0.9323    4.2339 O   0  0  0  0  0  0  0  0  0  0  0  0
    2.1897   -0.0996    3.4918 C   0  0  0  0  0  0  0  0  0  0  0  0
    1.9296   -1.5793    3.1873 C   0  0  0  0  0  0  0  0  0  0  0  0
    3.2798   -2.1875    2.7311 C   0  0  1  0  0  0  0  0  0  0  0  0
    6.5664   -2.7004   -2.3652 H   0  0  0  0  0  0  0  0  0  0  0  0
    6.3923   -3.8112   -1.0105 H   0  0  0  0  0  0  0  0  0  0  0  0
    7.2073   -2.2635   -0.7983 H   0  0  0  0  0  0  0  0  0  0  0  0
    5.4749    0.0467   -0.8688 H   0  0  0  0  0  0  0  0  0  0  0  0
    4.5530    0.6884   -3.0216 H   0  0  0  0  0  0  0  0  0  0  0  0
    3.0235   -3.2681   -3.5788 H   0  0  0  0  0  0  0  0  0  0  0  0
    4.7766   -3.2920   -3.5298 H   0  0  0  0  0  0  0  0  0  0  0  0
    1.6402   -3.0528    0.7377 H   0  0  0  0  0  0  0  0  0  0  0  0
    2.9339   -4.2211    0.9740 H   0  0  0  0  0  0  0  0  0  0  0  0
    2.9894   -1.1541    0.8322 H   0  0  0  0  0  0  0  0  0  0  0  0
    5.2725   -3.0966    0.9759 H   0  0  0  0  0  0  0  0  0  0  0  0
    6.7319   -1.0526    1.0471 H   0  0  0  0  0  0  0  0  0  0  0  0
    5.3004   -0.0563    1.2412 H   0  0  0  0  0  0  0  0  0  0  0  0
    6.2140   -2.3040    3.0410 H   0  0  0  0  0  0  0  0  0  0  0  0
    6.3205   -0.5937    3.3819 H   0  0  0  0  0  0  0  0  0  0  0  0
    4.8269   -3.1243    4.8699 H   0  0  0  0  0  0  0  0  0  0  0  0
    3.5804   -2.0931    5.5432 H   0  0  0  0  0  0  0  0  0  0  0  0
    5.2570   -1.5740    5.5697 H   0  0  0  0  0  0  0  0  0  0  0  0
    1.5972    0.2664    4.3304 H   0  0  0  0  0  0  0  0  0  0  0  0
    1.9930    0.5296    2.6261 H   0  0  0  0  0  0  0  0  0  0  0  0
    1.5906   -2.0775    4.0992 H   0  0  0  0  0  0  0  0  0  0  0  0
    1.1321   -1.6960    2.4543 H   0  0  0  0  0  0  0  0  0  0  0  0
    3.3146   -3.2396    3.0177 H   0  0  0  0  0  0  0  0  0  0  0  0
  2  1  1  1
  1 23  1  0
  1 24  1  0
  1 25  1  0
  2  8  1  0
  2 13  1  0
  2  3  1  0
  3  4  2  0
  3 26  1  0
  4  5  1  0
  4 27  1  0
  5  6  2  0
  5  7  1  0
  7  8  1  0
  7 28  1  0
  7 29  1  0
  8  9  2  0
  9 10  1  0
  9 11  1  0
 11 12  1  0
 11 30  1  0
 11 31  1  0
 12 22  1  0
 12 13  1  0
 12 32  1  6
 13 14  1  0
 13 33  1  1
 14 15  1  0
 14 34  1  0
 14 35  1  0
 15 16  1  0
 15 36  1  0
 15 37  1  0
 16 22  1  0
 16 17  1  1
 16 18  1  0
 17 38  1  0
 17 39  1  0
 17 40  1  0
 18 19  2  0
 18 20  1  0
 20 21  1  0
 20 41  1  0
 20 42  1  0
 21 22  1  0
 21 43  1  0
 21 44  1  0
 22 45  1  1
M  END
>  <i_m_ct_stereo_status>  (344) 
1

>  <s_m_source_file>  (344) 
/var/tmp/pbs.5076255.sched01/tmphrhi8tfx/132_dydaaau.sdf

>  <i_m_source_file_index>  (344) 
30

>  <i_lp_mmshare_version>  (344) 
48012

>  <i_f3d_flags>  (344) 
0

>  <s_epik_input>  (344) 
W0NIXTE9W0NIXUMoPU8pW0NIMl1DKFtDQEBdMTJbQ0gzXSk9QyhGKVtDSDJdW0NAQEhdM1tDQEBIXTJbQ0gyXVtDSDJdW0NAXTQoW0NIM10pW0NASF0zW0NIMl1bQ0gyXUM0PU8=

>  <s_epik_cmdline>  (344) 
J2VwaWtfcHl0aG9uJywgJy1waHQnLCAnMi4wJywgJy1waCcsICc3LjAnLCAnLXRuJywgJzgnLCAnLW1hJywgJzIwMCcsICctaW1hZScsICc8aW5maWxlLm1hZT4nLCAnLW9tYWUnLCAnPG91dGZpbGUubWFlPic=

>  <r_lp_tautomer_probability>  (344) 
1

>  <r_epik_Ionization_Penalty>  (344) 
7.70931e-14

>  <r_epik_Ionization_Penalty_Charging>  (344) 
0

>  <r_epik_Ionization_Penalty_Neutral>  (344) 
7.70931e-14

>  <r_epik_State_Penalty>  (344) 
-0

>  <r_epik_Charging_Adjusted_Penalty>  (344) 
0

>  <i_epik_Tot_Q>  (344) 
0

>  <i_epik_Tot_abs_Q>  (344) 
0

>  <s_lp_Force_Field>  (344) 
OPLS3e

>  <r_lp_Energy>  (344) 
32.8583

>  <b_lp_Chiralities_Consistent>  (344) 
1

>  <s_lp_Variant>  (344) 
111:0-1

>  <s_i_glide_gridfile>  (344) 
pfpi4k_grid

>  <i_i_glide_lignum>  (344) 
30

>  <i_i_glide_rotatable_bonds>  (344) 
0

>  <r_i_docking_score>  (344) 
-3.68564

>  <r_i_glide_ligand_efficiency>  (344) 
-0.167529

>  <r_i_glide_ligand_efficiency_sa>  (344) 
-0.469423

>  <r_i_glide_ligand_efficiency_ln>  (344) 
-0.900906

>  <r_i_glide_gscore>  (344) 
-3.68564

>  <r_i_glide_lipo>  (344) 
-0.493236

>  <r_i_glide_hbond>  (344) 
-0.279838

>  <r_i_glide_metal>  (344) 
-0

>  <r_i_glide_rewards>  (344) 
-1.66022

>  <r_i_glide_evdw>  (344) 
-19.8472

>  <r_i_glide_ecoul>  (344) 
-1.51594

>  <r_i_glide_erotb>  (344) 
0

>  <r_i_glide_esite>  (344) 
-0.0326028

>  <r_i_glide_emodel>  (344) 
-27.1858

>  <r_i_glide_energy>  (344) 
-21.3631

>  <r_i_glide_einternal>  (344) 
0

>  <r_i_glide_intrahb_reward>  (344) 
-0

>  <i_i_glide_confnum>  (344) 
2

>  <i_i_glide_posenum>  (344) 
2

>  <r_i_glide_eff_state_penalty>  (344) 
0

>  <ligand_id>  (344) 
111

>  <original_smiles>  (344) 
CC12C=CC(=O)CC1=C(F)CC1C2CCC2(C)C(=O)CCC12

>  <smiles>  (344) 
[H]C1=C([H])C2(C([H])([H])[H])C(=C(F)C([H])([H])C3([H])C2([H])C([H])([H])C([H])([H])C2(C([H])([H])[H])C(=O)C([H])([H])C([H])([H])C32[H])C([H])([H])C1=O

$$$$
111:0:1
     RDKit          3D

 45 48  0  0  1  0  0  0  0  0999 V2000
    3.8725   -6.5248    3.2939 C   0  0  0  0  0  0  0  0  0  0  0  0
    3.1080   -5.5154    2.4051 C   0  0  1  0  0  0  0  0  0  0  0  0
    2.4471   -6.3234    1.2788 C   0  0  0  0  0  0  0  0  0  0  0  0
    1.1944   -6.8228    1.3110 C   0  0  0  0  0  0  0  0  0  0  0  0
    0.3324   -6.6452    2.4911 C   0  0  0  0  0  0  0  0  0  0  0  0
   -0.8329   -7.0307    2.5267 O   0  0  0  0  0  0  0  0  0  0  0  0
    0.9020   -5.8884    3.6953 C   0  0  0  0  0  0  0  0  0  0  0  0
    1.9584   -4.8951    3.2159 C   0  0  0  0  0  0  0  0  0  0  0  0
    1.8053   -3.5657    3.3758 C   0  0  0  0  0  0  0  0  0  0  0  0
    0.7319   -3.1144    4.0469 F   0  0  0  0  0  0  0  0  0  0  0  0
    2.7233   -2.5327    2.7642 C   0  0  0  0  0  0  0  0  0  0  0  0
    3.5074   -3.0646    1.5454 C   0  0  2  0  0  0  0  0  0  0  0  0
    4.1348   -4.4323    1.8963 C   0  0  2  0  0  0  0  0  0  0  0  0
    5.0432   -4.8973    0.7377 C   0  0  0  0  0  0  0  0  0  0  0  0
    6.1865   -3.9047    0.5109 C   0  0  0  0  0  0  0  0  0  0  0  0
    5.7261   -2.4658    0.1969 C   0  0  1  0  0  0  0  0  0  0  0  0
    6.9447   -1.5312    0.3634 C   0  0  0  0  0  0  0  0  0  0  0  0
    5.1863   -2.2696   -1.2230 C   0  0  0  0  0  0  0  0  0  0  0  0
    5.7135   -2.7216   -2.2399 O   0  0  0  0  0  0  0  0  0  0  0  0
    3.9719   -1.3636   -1.2357 C   0  0  0  0  0  0  0  0  0  0  0  0
    3.8512   -0.9058    0.2231 C   0  0  0  0  0  0  0  0  0  0  0  0
    4.5476   -1.9835    1.0901 C   0  0  1  0  0  0  0  0  0  0  0  0
    3.2353   -7.3439    3.6301 H   0  0  0  0  0  0  0  0  0  0  0  0
    4.2836   -6.0500    4.1864 H   0  0  0  0  0  0  0  0  0  0  0  0
    4.6997   -6.9905    2.7582 H   0  0  0  0  0  0  0  0  0  0  0  0
    3.0393   -6.5109    0.3949 H   0  0  0  0  0  0  0  0  0  0  0  0
    0.7942   -7.3895    0.4832 H   0  0  0  0  0  0  0  0  0  0  0  0
    0.0878   -5.3702    4.2008 H   0  0  0  0  0  0  0  0  0  0  0  0
    1.3212   -6.5901    4.4145 H   0  0  0  0  0  0  0  0  0  0  0  0
    2.1243   -1.6675    2.4773 H   0  0  0  0  0  0  0  0  0  0  0  0
    3.4074   -2.1916    3.5437 H   0  0  0  0  0  0  0  0  0  0  0  0
    2.8047   -3.2402    0.7267 H   0  0  0  0  0  0  0  0  0  0  0  0
    4.7996   -4.2341    2.7368 H   0  0  0  0  0  0  0  0  0  0  0  0
    5.4730   -5.8755    0.9589 H   0  0  0  0  0  0  0  0  0  0  0  0
    4.4789   -5.0083   -0.1891 H   0  0  0  0  0  0  0  0  0  0  0  0
    6.8212   -3.9000    1.3980 H   0  0  0  0  0  0  0  0  0  0  0  0
    6.8126   -4.2792   -0.2988 H   0  0  0  0  0  0  0  0  0  0  0  0
    7.2773   -1.5002    1.3972 H   0  0  0  0  0  0  0  0  0  0  0  0
    6.7194   -0.5030    0.0788 H   0  0  0  0  0  0  0  0  0  0  0  0
    7.7948   -1.8641   -0.2362 H   0  0  0  0  0  0  0  0  0  0  0  0
    4.0977   -0.5270   -1.9223 H   0  0  0  0  0  0  0  0  0  0  0  0
    3.0975   -1.9348   -1.5466 H   0  0  0  0  0  0  0  0  0  0  0  0
    4.3608    0.0527    0.3422 H   0  0  0  0  0  0  0  0  0  0  0  0
    2.8106   -0.7392    0.4965 H   0  0  0  0  0  0  0  0  0  0  0  0
    4.9675   -1.5122    1.9806 H   0  0  0  0  0  0  0  0  0  0  0  0
  2  1  1  1
  1 23  1  0
  1 24  1  0
  1 25  1  0
  2  8  1  0
  2 13  1  0
  2  3  1  0
  3  4  2  0
  3 26  1  0
  4  5  1  0
  4 27  1  0
  5  6  2  0
  5  7  1  0
  7  8  1  0
  7 28  1  0
  7 29  1  0
  8  9  2  0
  9 10  1  0
  9 11  1  0
 11 12  1  0
 11 30  1  0
 11 31  1  0
 12 22  1  0
 12 13  1  0
 12 32  1  6
 13 14  1  0
 13 33  1  1
 14 15  1  0
 14 34  1  0
 14 35  1  0
 15 16  1  0
 15 36  1  0
 15 37  1  0
 16 22  1  0
 16 17  1  6
 16 18  1  0
 17 38  1  0
 17 39  1  0
 17 40  1  0
 18 19  2  0
 18 20  1  0
 20 21  1  0
 20 41  1  0
 20 42  1  0
 21 22  1  0
 21 43  1  0
 21 44  1  0
 22 45  1  1
M  END
>  <i_m_ct_stereo_status>  (345) 
1

>  <s_m_source_file>  (345) 
/var/tmp/pbs.5076255.sched01/tmphrhi8tfx/132_dydaaau.sdf

>  <i_m_source_file_index>  (345) 
30

>  <i_lp_mmshare_version>  (345) 
48012

>  <i_f3d_flags>  (345) 
0

>  <s_epik_input>  (345) 
W0NIXTE9W0NIXUMoPU8pW0NIMl1DKFtDQEBdMTJbQ0gzXSk9QyhGKVtDSDJdW0NAQEhdM1tDQEBIXTJbQ0gyXVtDSDJdW0NAXTQoW0NIM10pW0NASF0zW0NIMl1bQ0gyXUM0PU8=

>  <s_epik_cmdline>  (345) 
J2VwaWtfcHl0aG9uJywgJy1waHQnLCAnMi4wJywgJy1waCcsICc3LjAnLCAnLXRuJywgJzgnLCAnLW1hJywgJzIwMCcsICctaW1hZScsICc8aW5maWxlLm1hZT4nLCAnLW9tYWUnLCAnPG91dGZpbGUubWFlPic=

>  <r_lp_tautomer_probability>  (345) 
1

>  <r_epik_Ionization_Penalty>  (345) 
7.70931e-14

>  <r_epik_Ionization_Penalty_Charging>  (345) 
0

>  <r_epik_Ionization_Penalty_Neutral>  (345) 
7.70931e-14

>  <r_epik_State_Penalty>  (345) 
-0

>  <r_epik_Charging_Adjusted_Penalty>  (345) 
0

>  <i_epik_Tot_Q>  (345) 
0

>  <i_epik_Tot_abs_Q>  (345) 
0

>  <s_lp_Force_Field>  (345) 
OPLS3e

>  <r_lp_Energy>  (345) 
32.8583

>  <b_lp_Chiralities_Consistent>  (345) 
1

>  <s_lp_Variant>  (345) 
111:0-1

>  <s_i_glide_gridfile>  (345) 
pfpi4k_grid

>  <i_i_glide_lignum>  (345) 
30

>  <i_i_glide_rotatable_bonds>  (345) 
0

>  <r_i_docking_score>  (345) 
-3.39401

>  <r_i_glide_ligand_efficiency>  (345) 
-0.154273

>  <r_i_glide_ligand_efficiency_sa>  (345) 
-0.43228

>  <r_i_glide_ligand_efficiency_ln>  (345) 
-0.82962

>  <r_i_glide_gscore>  (345) 
-3.39401

>  <r_i_glide_lipo>  (345) 
-0.214524

>  <r_i_glide_hbond>  (345) 
-0.16

>  <r_i_glide_metal>  (345) 
-0

>  <r_i_glide_rewards>  (345) 
-1.38837

>  <r_i_glide_evdw>  (345) 
-25.3299

>  <r_i_glide_ecoul>  (345) 
-1.72828

>  <r_i_glide_erotb>  (345) 
0

>  <r_i_glide_esite>  (345) 
-0.105385

>  <r_i_glide_emodel>  (345) 
-32.6907

>  <r_i_glide_energy>  (345) 
-27.0581

>  <r_i_glide_einternal>  (345) 
0

>  <r_i_glide_intrahb_reward>  (345) 
-0

>  <i_i_glide_confnum>  (345) 
1

>  <i_i_glide_posenum>  (345) 
1

>  <r_i_glide_eff_state_penalty>  (345) 
0

>  <ligand_id>  (345) 
111

>  <original_smiles>  (345) 
CC12C=CC(=O)CC1=C(F)CC1C2CCC2(C)C(=O)CCC12

>  <smiles>  (345) 
[H]C1=C([H])C2(C([H])([H])[H])C(=C(F)C([H])([H])C3([H])C2([H])C([H])([H])C([H])([H])C2(C([H])([H])[H])C(=O)C([H])([H])C([H])([H])C32[H])C([H])([H])C1=O

$$$$
111:0:2
     RDKit          3D

 45 48  0  0  1  0  0  0  0  0999 V2000
    5.6061   -7.2162    3.4107 C   0  0  0  0  0  0  0  0  0  0  0  0
    4.5599   -6.6970    2.3935 C   0  0  1  0  0  0  0  0  0  0  0  0
    4.4173   -7.7714    1.3035 C   0  0  0  0  0  0  0  0  0  0  0  0
    3.5014   -8.7624    1.3050 C   0  0  0  0  0  0  0  0  0  0  0  0
    2.5423   -8.9163    2.4150 C   0  0  0  0  0  0  0  0  0  0  0  0
    1.7097   -9.8152    2.4603 O   0  0  0  0  0  0  0  0  0  0  0  0
    2.6193   -7.9258    3.5784 C   0  0  0  0  0  0  0  0  0  0  0  0
    3.1849   -6.6006    3.0789 C   0  0  0  0  0  0  0  0  0  0  0  0
    2.4540   -5.4695    3.1103 C   0  0  0  0  0  0  0  0  0  0  0  0
    1.2305   -5.5014    3.6673 F   0  0  0  0  0  0  0  0  0  0  0  0
    2.8852   -4.1724    2.4697 C   0  0  0  0  0  0  0  0  0  0  0  0
    3.9283   -4.3706    1.3486 C   0  0  2  0  0  0  0  0  0  0  0  0
    5.0542   -5.2997    1.8542 C   0  0  2  0  0  0  0  0  0  0  0  0
    6.1728   -5.3778    0.7944 C   0  0  0  0  0  0  0  0  0  0  0  0
    6.7846   -3.9969    0.5411 C   0  0  0  0  0  0  0  0  0  0  0  0
    5.7737   -2.9250    0.0790 C   0  0  1  0  0  0  0  0  0  0  0  0
    6.4458   -1.5410    0.2364 C   0  0  0  0  0  0  0  0  0  0  0  0
    5.3289   -3.0573   -1.3805 C   0  0  0  0  0  0  0  0  0  0  0  0
    6.0871   -3.2831   -2.3228 O   0  0  0  0  0  0  0  0  0  0  0  0
    3.8455   -2.7878   -1.5414 C   0  0  0  0  0  0  0  0  0  0  0  0
    3.4148   -2.3562   -0.1366 C   0  0  0  0  0  0  0  0  0  0  0  0
    4.4278   -2.9677    0.8589 C   0  0  1  0  0  0  0  0  0  0  0  0
    5.3616   -8.2129    3.7805 H   0  0  0  0  0  0  0  0  0  0  0  0
    5.6889   -6.5614    4.2802 H   0  0  0  0  0  0  0  0  0  0  0  0
    6.5979   -7.2974    2.9654 H   0  0  0  0  0  0  0  0  0  0  0  0
    5.1131   -7.7377    0.4789 H   0  0  0  0  0  0  0  0  0  0  0  0
    3.4666   -9.4912    0.5082 H   0  0  0  0  0  0  0  0  0  0  0  0
    1.6217   -7.7977    3.9976 H   0  0  0  0  0  0  0  0  0  0  0  0
    3.2401   -8.3409    4.3697 H   0  0  0  0  0  0  0  0  0  0  0  0
    1.9984   -3.6737    2.0786 H   0  0  0  0  0  0  0  0  0  0  0  0
    3.2812   -3.5262    3.2555 H   0  0  0  0  0  0  0  0  0  0  0  0
    3.4495   -4.8844    0.5106 H   0  0  0  0  0  0  0  0  0  0  0  0
    5.4884   -4.7836    2.7104 H   0  0  0  0  0  0  0  0  0  0  0  0
    6.9645   -6.0526    1.1237 H   0  0  0  0  0  0  0  0  0  0  0  0
    5.7943   -5.7777   -0.1465 H   0  0  0  0  0  0  0  0  0  0  0  0
    7.2721   -3.6655    1.4590 H   0  0  0  0  0  0  0  0  0  0  0  0
    7.5832   -4.1006   -0.1940 H   0  0  0  0  0  0  0  0  0  0  0  0
    6.6455   -1.3152    1.2835 H   0  0  0  0  0  0  0  0  0  0  0  0
    5.8291   -0.7297   -0.1544 H   0  0  0  0  0  0  0  0  0  0  0  0
    7.4047   -1.5047   -0.2829 H   0  0  0  0  0  0  0  0  0  0  0  0
    3.6501   -2.0195   -2.2889 H   0  0  0  0  0  0  0  0  0  0  0  0
    3.3475   -3.7060   -1.8515 H   0  0  0  0  0  0  0  0  0  0  0  0
    3.4372   -1.2659   -0.0736 H   0  0  0  0  0  0  0  0  0  0  0  0
    2.3846   -2.6540    0.0651 H   0  0  0  0  0  0  0  0  0  0  0  0
    4.5193   -2.3120    1.7270 H   0  0  0  0  0  0  0  0  0  0  0  0
  2  1  1  1
  1 23  1  0
  1 24  1  0
  1 25  1  0
  2  8  1  0
  2 13  1  0
  2  3  1  0
  3  4  2  0
  3 26  1  0
  4  5  1  0
  4 27  1  0
  5  6  2  0
  5  7  1  0
  7  8  1  0
  7 28  1  0
  7 29  1  0
  8  9  2  0
  9 10  1  0
  9 11  1  0
 11 12  1  0
 11 30  1  0
 11 31  1  0
 12 22  1  0
 12 13  1  0
 12 32  1  6
 13 14  1  0
 13 33  1  1
 14 15  1  0
 14 34  1  0
 14 35  1  0
 15 16  1  0
 15 36  1  0
 15 37  1  0
 16 22  1  0
 16 17  1  6
 16 18  1  0
 17 38  1  0
 17 39  1  0
 17 40  1  0
 18 19  2  0
 18 20  1  0
 20 21  1  0
 20 41  1  0
 20 42  1  0
 21 22  1  0
 21 43  1  0
 21 44  1  0
 22 45  1  1
M  END
>  <i_m_ct_stereo_status>  (346) 
1

>  <s_m_source_file>  (346) 
/var/tmp/pbs.5076255.sched01/tmphrhi8tfx/132_dydaaau.sdf

>  <i_m_source_file_index>  (346) 
30

>  <i_lp_mmshare_version>  (346) 
48012

>  <i_f3d_flags>  (346) 
0

>  <s_epik_input>  (346) 
W0NIXTE9W0NIXUMoPU8pW0NIMl1DKFtDQEBdMTJbQ0gzXSk9QyhGKVtDSDJdW0NAQEhdM1tDQEBIXTJbQ0gyXVtDSDJdW0NAXTQoW0NIM10pW0NASF0zW0NIMl1bQ0gyXUM0PU8=

>  <s_epik_cmdline>  (346) 
J2VwaWtfcHl0aG9uJywgJy1waHQnLCAnMi4wJywgJy1waCcsICc3LjAnLCAnLXRuJywgJzgnLCAnLW1hJywgJzIwMCcsICctaW1hZScsICc8aW5maWxlLm1hZT4nLCAnLW9tYWUnLCAnPG91dGZpbGUubWFlPic=

>  <r_lp_tautomer_probability>  (346) 
1

>  <r_epik_Ionization_Penalty>  (346) 
7.70931e-14

>  <r_epik_Ionization_Penalty_Charging>  (346) 
0

>  <r_epik_Ionization_Penalty_Neutral>  (346) 
7.70931e-14

>  <r_epik_State_Penalty>  (346) 
-0

>  <r_epik_Charging_Adjusted_Penalty>  (346) 
0

>  <i_epik_Tot_Q>  (346) 
0

>  <i_epik_Tot_abs_Q>  (346) 
0

>  <s_lp_Force_Field>  (346) 
OPLS3e

>  <r_lp_Energy>  (346) 
32.8583

>  <b_lp_Chiralities_Consistent>  (346) 
1

>  <s_lp_Variant>  (346) 
111:0-1

>  <s_i_glide_gridfile>  (346) 
pfpi4k_grid

>  <i_i_glide_lignum>  (346) 
30

>  <i_i_glide_rotatable_bonds>  (346) 
0

>  <r_i_docking_score>  (346) 
-2.98711

>  <r_i_glide_ligand_efficiency>  (346) 
-0.135778

>  <r_i_glide_ligand_efficiency_sa>  (346) 
-0.380455

>  <r_i_glide_ligand_efficiency_ln>  (346) 
-0.73016

>  <r_i_glide_gscore>  (346) 
-2.98711

>  <r_i_glide_lipo>  (346) 
-0.368939

>  <r_i_glide_hbond>  (346) 
0

>  <r_i_glide_metal>  (346) 
-0

>  <r_i_glide_rewards>  (346) 
-1.40985

>  <r_i_glide_evdw>  (346) 
-25.0352

>  <r_i_glide_ecoul>  (346) 
0.432841

>  <r_i_glide_erotb>  (346) 
0

>  <r_i_glide_esite>  (346) 
-0.0214881

>  <r_i_glide_emodel>  (346) 
-29.5626

>  <r_i_glide_energy>  (346) 
-24.6024

>  <r_i_glide_einternal>  (346) 
0

>  <r_i_glide_intrahb_reward>  (346) 
-0

>  <i_i_glide_confnum>  (346) 
1

>  <i_i_glide_posenum>  (346) 
7

>  <r_i_glide_eff_state_penalty>  (346) 
0

>  <ligand_id>  (346) 
111

>  <original_smiles>  (346) 
CC12C=CC(=O)CC1=C(F)CC1C2CCC2(C)C(=O)CCC12

>  <smiles>  (346) 
[H]C1=C([H])C2(C([H])([H])[H])C(=C(F)C([H])([H])C3([H])C2([H])C([H])([H])C([H])([H])C2(C([H])([H])[H])C(=O)C([H])([H])C([H])([H])C32[H])C([H])([H])C1=O

$$$$
112:0:0
     RDKit          3D

 56 60  0  0  1  0  0  0  0  0999 V2000
   -3.4851    3.3339    2.7481 C   0  0  0  0  0  0  0  0  0  0  0  0
   -2.0583    3.7365    3.0901 C   0  0  0  0  0  0  0  0  0  0  0  0
   -1.7693    4.9163    3.2853 O   0  0  0  0  0  0  0  0  0  0  0  0
   -1.2187    2.6800    3.1574 O   0  0  0  0  0  0  0  0  0  0  0  0
    0.1853    2.8474    3.3753 C   0  0  2  0  0  0  0  0  0  0  0  0
    1.0363    1.8367    2.5413 C   0  0  0  0  0  0  0  0  0  0  0  0
    1.0371    0.2909    2.8234 C   0  0  2  0  0  0  0  0  0  0  0  0
   -0.1457   -0.1794    3.7020 C   0  0  0  0  0  0  0  0  0  0  0  0
    0.1519   -0.3922    5.1984 C   0  0  1  0  0  0  0  0  0  0  0  0
    1.4905   -1.1866    5.3960 C   0  0  1  0  0  0  0  0  0  0  0  0
    1.4366   -2.6726    4.9594 C   0  0  0  0  0  0  0  0  0  0  0  0
    1.4748   -2.9097    3.4366 C   0  0  0  0  0  0  0  0  0  0  0  0
    2.4183   -1.9500    2.6817 C   0  0  1  0  0  0  0  0  0  0  0  0
    2.2289   -2.1026    1.2841 O   0  0  0  0  0  0  0  0  0  0  0  0
    2.4139   -0.4536    3.1559 C   0  0  1  0  0  0  0  0  0  0  0  0
    3.6175    0.1932    2.4245 C   0  0  0  0  0  0  0  0  0  0  0  0
    2.6986   -0.5392    4.6994 C   0  0  1  0  0  0  0  0  0  0  0  0
    3.0563    0.7477    5.4387 C   0  0  0  0  0  0  0  0  0  0  0  0
    3.6344    0.7491    6.5283 O   0  0  0  0  0  0  0  0  0  0  0  0
    2.5196    1.7829    4.8590 O   0  0  0  0  0  0  0  0  0  0  0  0
    1.7570    2.6688    5.6093 C   0  0  1  0  0  0  0  0  0  0  0  0
    0.5125    3.1249    4.8523 C   0  0  2  0  0  0  0  0  0  0  0  0
    0.3772    2.2078    6.0526 C   0  0  1  0  0  0  0  0  0  0  0  0
   -0.2350    0.7882    6.1929 C   0  0  0  0  0  0  0  0  0  0  0  0
   -1.7703    0.9848    6.1405 C   0  0  0  0  0  0  0  0  0  0  0  0
    0.0628    0.3169    7.6336 C   0  0  0  0  0  0  0  0  0  0  0  0
   -3.4923    2.6680    1.8838 H   0  0  0  0  0  0  0  0  0  0  0  0
   -4.0883    4.2086    2.5059 H   0  0  0  0  0  0  0  0  0  0  0  0
   -3.9485    2.8133    3.5877 H   0  0  0  0  0  0  0  0  0  0  0  0
    0.4341    3.7917    2.8835 H   0  0  0  0  0  0  0  0  0  0  0  0
    0.6944    1.9623    1.5120 H   0  0  0  0  0  0  0  0  0  0  0  0
    2.0431    2.2362    2.5013 H   0  0  0  0  0  0  0  0  0  0  0  0
    0.7727   -0.0797    1.8311 H   0  0  0  0  0  0  0  0  0  0  0  0
   -1.0426    0.4011    3.5414 H   0  0  0  0  0  0  0  0  0  0  0  0
   -0.4816   -1.1243    3.3096 H   0  0  0  0  0  0  0  0  0  0  0  0
   -0.5895   -1.1435    5.4814 H   0  0  0  0  0  0  0  0  0  0  0  0
    1.7047   -1.2405    6.4595 H   0  0  0  0  0  0  0  0  0  0  0  0
    2.3083   -3.1672    5.3921 H   0  0  0  0  0  0  0  0  0  0  0  0
    0.5719   -3.1729    5.3979 H   0  0  0  0  0  0  0  0  0  0  0  0
    1.8014   -3.9328    3.2547 H   0  0  0  0  0  0  0  0  0  0  0  0
    0.4768   -2.8851    3.0175 H   0  0  0  0  0  0  0  0  0  0  0  0
    3.4204   -2.3389    2.8768 H   0  0  0  0  0  0  0  0  0  0  0  0
    1.6059   -1.4602    0.9605 H   0  0  0  0  0  0  0  0  0  0  0  0
    4.5238   -0.4053    2.5324 H   0  0  0  0  0  0  0  0  0  0  0  0
    3.8576    1.1735    2.8252 H   0  0  0  0  0  0  0  0  0  0  0  0
    3.4273    0.3155    1.3582 H   0  0  0  0  0  0  0  0  0  0  0  0
    3.5685   -1.1844    4.8464 H   0  0  0  0  0  0  0  0  0  0  0  0
    2.3236    3.3991    6.1786 H   0  0  0  0  0  0  0  0  0  0  0  0
    0.2354    4.1496    5.0959 H   0  0  0  0  0  0  0  0  0  0  0  0
    0.0680    2.7801    6.9306 H   0  0  0  0  0  0  0  0  0  0  0  0
   -2.1062    1.7051    6.8875 H   0  0  0  0  0  0  0  0  0  0  0  0
   -2.3129    0.0606    6.3233 H   0  0  0  0  0  0  0  0  0  0  0  0
   -2.1109    1.3676    5.1806 H   0  0  0  0  0  0  0  0  0  0  0  0
   -0.4243    0.9467    8.3777 H   0  0  0  0  0  0  0  0  0  0  0  0
    1.1276    0.3468    7.8622 H   0  0  0  0  0  0  0  0  0  0  0  0
   -0.2814   -0.7021    7.8044 H   0  0  0  0  0  0  0  0  0  0  0  0
  1  2  1  0
  1 27  1  0
  1 28  1  0
  1 29  1  0
  2  3  2  0
  2  4  1  0
  4  5  1  0
  5 22  1  0
  5  6  1  0
  5 30  1  6
  6  7  1  0
  6 31  1  0
  6 32  1  0
  7 15  1  0
  7  8  1  0
  7 33  1  6
  8  9  1  0
  8 34  1  0
  8 35  1  0
  9 24  1  0
  9 10  1  0
  9 36  1  1
 10 17  1  0
 10 11  1  0
 10 37  1  1
 11 12  1  0
 11 38  1  0
 11 39  1  0
 12 13  1  0
 12 40  1  0
 12 41  1  0
 13 14  1  0
 13 15  1  0
 13 42  1  6
 14 43  1  0
 15 16  1  6
 15 17  1  0
 16 44  1  0
 16 45  1  0
 16 46  1  0
 17 18  1  0
 17 47  1  6
 18 19  2  0
 18 20  1  0
 20 21  1  0
 21 23  1  0
 21 22  1  0
 21 48  1  1
 22 23  1  0
 22 49  1  1
 23 24  1  0
 23 50  1  1
 24 25  1  0
 24 26  1  0
 25 51  1  0
 25 52  1  0
 25 53  1  0
 26 54  1  0
 26 55  1  0
 26 56  1  0
M  END
>  <i_m_ct_stereo_status>  (347) 
1

>  <s_m_source_file>  (347) 
/var/tmp/pbs.5076255.sched01/tmphrhi8tfx/132_dydaaau.sdf

>  <i_m_source_file_index>  (347) 
31

>  <i_lp_mmshare_version>  (347) 
48012

>  <i_f3d_flags>  (347) 
0

>  <s_epik_input>  (347) 
W0NIM11bQ0BAXTEyW0NAQEhdM1tDSDJdW0NAQEhdKE9DKD1PKVtDSDNdKVtDQEBIXTRbQ0BIXTVbQ0BASF00QyhbQ0gzXSkoW0NIM10pW0NAQEhdKFtDSDJdMylbQ0BIXShbQ0BASF0yQyg9TylPNSlbQ0gyXVtDSDJdW0NASF0xW09IXQ==

>  <s_epik_cmdline>  (347) 
J2VwaWtfcHl0aG9uJywgJy1waHQnLCAnMi4wJywgJy1waCcsICc3LjAnLCAnLXRuJywgJzgnLCAnLW1hJywgJzIwMCcsICctaW1hZScsICc8aW5maWxlLm1hZT4nLCAnLW9tYWUnLCAnPG91dGZpbGUubWFlPic=

>  <r_lp_tautomer_probability>  (347) 
1

>  <r_epik_Ionization_Penalty>  (347) 
4.40253e-07

>  <r_epik_Ionization_Penalty_Charging>  (347) 
0

>  <r_epik_Ionization_Penalty_Neutral>  (347) 
4.40253e-07

>  <r_epik_State_Penalty>  (347) 
-0

>  <r_epik_Charging_Adjusted_Penalty>  (347) 
0

>  <i_epik_Tot_Q>  (347) 
0

>  <i_epik_Tot_abs_Q>  (347) 
0

>  <s_epik_Chemistry_Notes>  (347) 
This compound has an ester and may undergo hydrolysis at high or low pH.

>  <s_lp_Force_Field>  (347) 
OPLS3e

>  <r_lp_Energy>  (347) 
80.0401

>  <b_lp_Chiralities_Consistent>  (347) 
1

>  <s_lp_Variant>  (347) 
112:0-1

>  <s_i_glide_gridfile>  (347) 
pfpi4k_grid

>  <i_i_glide_lignum>  (347) 
31

>  <i_i_glide_rotatable_bonds>  (347) 
3

>  <r_i_docking_score>  (347) 
-3.10161

>  <r_i_glide_ligand_efficiency>  (347) 
-0.119293

>  <r_i_glide_ligand_efficiency_sa>  (347) 
-0.353405

>  <r_i_glide_ligand_efficiency_ln>  (347) 
-0.728404

>  <r_i_glide_gscore>  (347) 
-3.10161

>  <r_i_glide_lipo>  (347) 
-0.0674023

>  <r_i_glide_hbond>  (347) 
-0.282596

>  <r_i_glide_metal>  (347) 
-0

>  <r_i_glide_rewards>  (347) 
-0.937773

>  <r_i_glide_evdw>  (347) 
-21.3357

>  <r_i_glide_ecoul>  (347) 
-5.38293

>  <r_i_glide_erotb>  (347) 
0.146161

>  <r_i_glide_esite>  (347) 
-0.085777

>  <r_i_glide_emodel>  (347) 
-31.4834

>  <r_i_glide_energy>  (347) 
-26.7187

>  <r_i_glide_einternal>  (347) 
1.18882

>  <r_i_glide_intrahb_reward>  (347) 
-0

>  <i_i_glide_confnum>  (347) 
3

>  <i_i_glide_posenum>  (347) 
3

>  <r_i_glide_eff_state_penalty>  (347) 
0

>  <ligand_id>  (347) 
112

>  <original_smiles>  (347) 
CC(=O)OC1CC2CC3C4CCC(O)C2(C)C4C(=O)OC2C1C2C3(C)C

>  <smiles>  (347) 
[H]OC1([H])C([H])([H])C([H])([H])C2([H])C3([H])C(=O)OC4([H])C5([H])C([H])(OC(=O)C([H])([H])[H])C([H])([H])C([H])(C([H])([H])C2([H])C(C([H])([H])[H])(C([H])([H])[H])C45[H])C13C([H])([H])[H]

$$$$
112:0:1
     RDKit          3D

 56 60  0  0  1  0  0  0  0  0999 V2000
   -0.8470    4.3883    3.8955 C   0  0  0  0  0  0  0  0  0  0  0  0
   -1.4889    2.9959    3.6979 C   0  0  0  0  0  0  0  0  0  0  0  0
   -2.6913    2.8156    3.9325 O   0  0  0  0  0  0  0  0  0  0  0  0
   -0.6351    1.9775    3.3494 O   0  0  0  0  0  0  0  0  0  0  0  0
    0.7711    2.1528    3.0931 C   0  0  2  0  0  0  0  0  0  0  0  0
    1.3197    1.1494    2.0203 C   0  0  0  0  0  0  0  0  0  0  0  0
    1.4958   -0.3684    2.3274 C   0  0  2  0  0  0  0  0  0  0  0  0
    0.6712   -0.8714    3.5347 C   0  0  0  0  0  0  0  0  0  0  0  0
    1.4529   -1.0174    4.8479 C   0  0  1  0  0  0  0  0  0  0  0  0
    2.8218   -1.7467    4.6173 C   0  0  1  0  0  0  0  0  0  0  0  0
    2.7029   -3.2375    4.2548 C   0  0  0  0  0  0  0  0  0  0  0  0
    2.2611   -3.5217    2.8039 C   0  0  0  0  0  0  0  0  0  0  0  0
    2.8649   -2.5395    1.7690 C   0  0  1  0  0  0  0  0  0  0  0  0
    2.2212   -2.7304    0.5127 O   0  0  0  0  0  0  0  0  0  0  0  0
    2.9435   -1.0355    2.1915 C   0  0  1  0  0  0  0  0  0  0  0  0
    3.8179   -0.3523    1.0964 C   0  0  0  0  0  0  0  0  0  0  0  0
    3.7077   -1.0728    3.5578 C   0  0  1  0  0  0  0  0  0  0  0  0
    4.2411    0.2297    4.1069 C   0  0  0  0  0  0  0  0  0  0  0  0
    5.1221    0.3057    4.9565 O   0  0  0  0  0  0  0  0  0  0  0  0
    3.5007    1.2018    3.7438 O   0  0  0  0  0  0  0  0  0  0  0  0
    3.0124    2.0621    4.7243 C   0  0  1  0  0  0  0  0  0  0  0  0
    1.6018    2.4988    4.3416 C   0  0  2  0  0  0  0  0  0  0  0  0
    1.8560    1.6077    5.5540 C   0  0  1  0  0  0  0  0  0  0  0  0
    1.3539    0.1696    5.9004 C   0  0  0  0  0  0  0  0  0  0  0  0
   -0.1273    0.3180    6.3549 C   0  0  0  0  0  0  0  0  0  0  0  0
    2.1165   -0.2421    7.1858 C   0  0  0  0  0  0  0  0  0  0  0  0
   -0.0777    4.3406    4.6183 H   0  0  0  0  0  0  0  0  0  0  0  0
   -1.5939    5.1201    4.1973 H   0  0  0  0  0  0  0  0  0  0  0  0
   -0.4326    4.7291    2.9461 H   0  0  0  0  0  0  0  0  0  0  0  0
    0.7946    3.0517    2.4975 H   0  0  0  0  0  0  0  0  0  0  0  0
    0.6733    1.2442    1.1418 H   0  0  0  0  0  0  0  0  0  0  0  0
    2.2411    1.5950    1.6652 H   0  0  0  0  0  0  0  0  0  0  0  0
    0.9416   -0.7835    1.4889 H   0  0  0  0  0  0  0  0  0  0  0  0
   -0.2504   -0.3192    3.6582 H   0  0  0  0  0  0  0  0  0  0  0  0
    0.2639   -1.8428    3.2767 H   0  0  0  0  0  0  0  0  0  0  0  0
    0.8745   -1.7779    5.3676 H   0  0  0  0  0  0  0  0  0  0  0  0
    3.3654   -1.7584    5.5581 H   0  0  0  0  0  0  0  0  0  0  0  0
    3.6865   -3.6895    4.3833 H   0  0  0  0  0  0  0  0  0  0  0  0
    2.0543   -3.7665    4.9534 H   0  0  0  0  0  0  0  0  0  0  0  0
    2.5543   -4.5379    2.5420 H   0  0  0  0  0  0  0  0  0  0  0  0
    1.1804   -3.5542    2.7416 H   0  0  0  0  0  0  0  0  0  0  0  0
    3.8851   -2.8918    1.6119 H   0  0  0  0  0  0  0  0  0  0  0  0
    1.8582   -1.9181    0.1895 H   0  0  0  0  0  0  0  0  0  0  0  0
    4.7307   -0.9157    0.9088 H   0  0  0  0  0  0  0  0  0  0  0  0
    4.1461    0.6479    1.3568 H   0  0  0  0  0  0  0  0  0  0  0  0
    3.2845   -0.2759    0.1504 H   0  0  0  0  0  0  0  0  0  0  0  0
    4.6083   -1.6724    3.4316 H   0  0  0  0  0  0  0  0  0  0  0  0
    3.6546    2.8829    4.9847 H   0  0  0  0  0  0  0  0  0  0  0  0
    1.5448    3.5563    4.5328 H   0  0  0  0  0  0  0  0  0  0  0  0
    1.8198    2.1845    6.4685 H   0  0  0  0  0  0  0  0  0  0  0  0
   -0.2407    1.0552    7.1584 H   0  0  0  0  0  0  0  0  0  0  0  0
   -0.5355   -0.6230    6.7294 H   0  0  0  0  0  0  0  0  0  0  0  0
   -0.7817    0.6490    5.5519 H   0  0  0  0  0  0  0  0  0  0  0  0
    1.8717    0.4045    8.0382 H   0  0  0  0  0  0  0  0  0  0  0  0
    3.1976   -0.1581    7.0473 H   0  0  0  0  0  0  0  0  0  0  0  0
    1.8870   -1.2700    7.4829 H   0  0  0  0  0  0  0  0  0  0  0  0
  1  2  1  0
  1 27  1  0
  1 28  1  0
  1 29  1  0
  2  3  2  0
  2  4  1  0
  4  5  1  0
  5 22  1  0
  5  6  1  0
  5 30  1  6
  6  7  1  0
  6 31  1  0
  6 32  1  0
  7 15  1  0
  7  8  1  0
  7 33  1  6
  8  9  1  0
  8 34  1  0
  8 35  1  0
  9 24  1  0
  9 10  1  0
  9 36  1  1
 10 17  1  0
 10 11  1  0
 10 37  1  1
 11 12  1  0
 11 38  1  0
 11 39  1  0
 12 13  1  0
 12 40  1  0
 12 41  1  0
 13 14  1  0
 13 15  1  0
 13 42  1  6
 14 43  1  0
 15 16  1  6
 15 17  1  0
 16 44  1  0
 16 45  1  0
 16 46  1  0
 17 18  1  0
 17 47  1  6
 18 19  2  0
 18 20  1  0
 20 21  1  0
 21 23  1  0
 21 22  1  0
 21 48  1  1
 22 23  1  0
 22 49  1  1
 23 24  1  0
 23 50  1  1
 24 25  1  0
 24 26  1  0
 25 51  1  0
 25 52  1  0
 25 53  1  0
 26 54  1  0
 26 55  1  0
 26 56  1  0
M  END
>  <i_m_ct_stereo_status>  (348) 
1

>  <s_m_source_file>  (348) 
/var/tmp/pbs.5076255.sched01/tmphrhi8tfx/132_dydaaau.sdf

>  <i_m_source_file_index>  (348) 
31

>  <i_lp_mmshare_version>  (348) 
48012

>  <i_f3d_flags>  (348) 
0

>  <s_epik_input>  (348) 
W0NIM11bQ0BAXTEyW0NAQEhdM1tDSDJdW0NAQEhdKE9DKD1PKVtDSDNdKVtDQEBIXTRbQ0BIXTVbQ0BASF00QyhbQ0gzXSkoW0NIM10pW0NAQEhdKFtDSDJdMylbQ0BIXShbQ0BASF0yQyg9TylPNSlbQ0gyXVtDSDJdW0NASF0xW09IXQ==

>  <s_epik_cmdline>  (348) 
J2VwaWtfcHl0aG9uJywgJy1waHQnLCAnMi4wJywgJy1waCcsICc3LjAnLCAnLXRuJywgJzgnLCAnLW1hJywgJzIwMCcsICctaW1hZScsICc8aW5maWxlLm1hZT4nLCAnLW9tYWUnLCAnPG91dGZpbGUubWFlPic=

>  <r_lp_tautomer_probability>  (348) 
1

>  <r_epik_Ionization_Penalty>  (348) 
4.40253e-07

>  <r_epik_Ionization_Penalty_Charging>  (348) 
0

>  <r_epik_Ionization_Penalty_Neutral>  (348) 
4.40253e-07

>  <r_epik_State_Penalty>  (348) 
-0

>  <r_epik_Charging_Adjusted_Penalty>  (348) 
0

>  <i_epik_Tot_Q>  (348) 
0

>  <i_epik_Tot_abs_Q>  (348) 
0

>  <s_epik_Chemistry_Notes>  (348) 
This compound has an ester and may undergo hydrolysis at high or low pH.

>  <s_lp_Force_Field>  (348) 
OPLS3e

>  <r_lp_Energy>  (348) 
80.0401

>  <b_lp_Chiralities_Consistent>  (348) 
1

>  <s_lp_Variant>  (348) 
112:0-1

>  <s_i_glide_gridfile>  (348) 
pfpi4k_grid

>  <i_i_glide_lignum>  (348) 
31

>  <i_i_glide_rotatable_bonds>  (348) 
3

>  <r_i_docking_score>  (348) 
-2.66459

>  <r_i_glide_ligand_efficiency>  (348) 
-0.102484

>  <r_i_glide_ligand_efficiency_sa>  (348) 
-0.303609

>  <r_i_glide_ligand_efficiency_ln>  (348) 
-0.62577

>  <r_i_glide_gscore>  (348) 
-2.66459

>  <r_i_glide_lipo>  (348) 
-0.0367031

>  <r_i_glide_hbond>  (348) 
-0.175604

>  <r_i_glide_metal>  (348) 
-0

>  <r_i_glide_rewards>  (348) 
-0.953982

>  <r_i_glide_evdw>  (348) 
-21.4736

>  <r_i_glide_ecoul>  (348) 
-3.18406

>  <r_i_glide_erotb>  (348) 
0.102313

>  <r_i_glide_esite>  (348) 
-0.0493245

>  <r_i_glide_emodel>  (348) 
-24.9254

>  <r_i_glide_energy>  (348) 
-24.6576

>  <r_i_glide_einternal>  (348) 
7.14652

>  <r_i_glide_intrahb_reward>  (348) 
-0

>  <i_i_glide_confnum>  (348) 
4

>  <i_i_glide_posenum>  (348) 
35

>  <r_i_glide_eff_state_penalty>  (348) 
0

>  <ligand_id>  (348) 
112

>  <original_smiles>  (348) 
CC(=O)OC1CC2CC3C4CCC(O)C2(C)C4C(=O)OC2C1C2C3(C)C

>  <smiles>  (348) 
[H]OC1([H])C([H])([H])C([H])([H])C2([H])C3([H])C(=O)OC4([H])C5([H])C([H])(OC(=O)C([H])([H])[H])C([H])([H])C([H])(C([H])([H])C2([H])C(C([H])([H])[H])(C([H])([H])[H])C45[H])C13C([H])([H])[H]

$$$$
112:0:2
     RDKit          3D

 56 60  0  0  1  0  0  0  0  0999 V2000
   -3.9138    3.4567    2.4995 C   0  0  0  0  0  0  0  0  0  0  0  0
   -2.5050    3.9220    2.8864 C   0  0  0  0  0  0  0  0  0  0  0  0
   -2.1852    5.0869    2.7222 O   0  0  0  0  0  0  0  0  0  0  0  0
   -1.7386    2.9438    3.3764 O   0  0  0  0  0  0  0  0  0  0  0  0
   -0.3360    3.1452    3.6000 C   0  0  2  0  0  0  0  0  0  0  0  0
    0.4566    1.9211    3.0710 C   0  0  0  0  0  0  0  0  0  0  0  0
    0.3795    0.5010    3.7402 C   0  0  2  0  0  0  0  0  0  0  0  0
   -0.8298    0.3015    4.6852 C   0  0  0  0  0  0  0  0  0  0  0  0
   -0.5366    0.4842    6.1907 C   0  0  1  0  0  0  0  0  0  0  0  0
    0.7624   -0.2905    6.5984 C   0  0  1  0  0  0  0  0  0  0  0  0
    0.6388   -1.8377    6.5572 C   0  0  0  0  0  0  0  0  0  0  0  0
    0.6712   -2.4535    5.1473 C   0  0  0  0  0  0  0  0  0  0  0  0
    1.6620   -1.7559    4.1993 C   0  0  1  0  0  0  0  0  0  0  0  0
    1.4091   -2.2208    2.8911 O   0  0  0  0  0  0  0  0  0  0  0  0
    1.7277   -0.1915    4.2664 C   0  0  1  0  0  0  0  0  0  0  0  0
    2.9636    0.2014    3.4044 C   0  0  0  0  0  0  0  0  0  0  0  0
    2.0045    0.1018    5.7802 C   0  0  1  0  0  0  0  0  0  0  0  0
    2.4145    1.5185    6.1731 C   0  0  0  0  0  0  0  0  0  0  0  0
    2.9872    1.7749    7.2321 O   0  0  0  0  0  0  0  0  0  0  0  0
    1.9206    2.3864    5.3396 O   0  0  0  0  0  0  0  0  0  0  0  0
    1.2114    3.4732    5.8353 C   0  0  1  0  0  0  0  0  0  0  0  0
   -0.0109    3.7762    4.9707 C   0  0  2  0  0  0  0  0  0  0  0  0
   -0.1899    3.2040    6.3596 C   0  0  1  0  0  0  0  0  0  0  0  0
   -0.8595    1.8952    6.8540 C   0  0  0  0  0  0  0  0  0  0  0  0
   -2.3794    2.1536    6.7466 C   0  0  0  0  0  0  0  0  0  0  0  0
   -0.5905    1.7945    8.3744 C   0  0  0  0  0  0  0  0  0  0  0  0
   -3.8643    2.5205    1.9462 H   0  0  0  0  0  0  0  0  0  0  0  0
   -4.4100    4.2000    1.8826 H   0  0  0  0  0  0  0  0  0  0  0  0
   -4.5037    3.3273    3.4027 H   0  0  0  0  0  0  0  0  0  0  0  0
   -0.0338    3.9157    2.8871 H   0  0  0  0  0  0  0  0  0  0  0  0
    0.1190    1.8030    2.0383 H   0  0  0  0  0  0  0  0  0  0  0  0
    1.4824    2.2515    2.9493 H   0  0  0  0  0  0  0  0  0  0  0  0
    0.1080   -0.0864    2.8678 H   0  0  0  0  0  0  0  0  0  0  0  0
   -1.6828    0.8812    4.3825 H   0  0  0  0  0  0  0  0  0  0  0  0
   -1.2360   -0.7015    4.5261 H   0  0  0  0  0  0  0  0  0  0  0  0
   -1.3070   -0.1220    6.6535 H   0  0  0  0  0  0  0  0  0  0  0  0
    0.9721   -0.0815    7.6430 H   0  0  0  0  0  0  0  0  0  0  0  0
    1.4866   -2.2379    7.1093 H   0  0  0  0  0  0  0  0  0  0  0  0
   -0.2485   -2.1717    7.0989 H   0  0  0  0  0  0  0  0  0  0  0  0
    0.9439   -3.5067    5.2332 H   0  0  0  0  0  0  0  0  0  0  0  0
   -0.3226   -2.4961    4.7150 H   0  0  0  0  0  0  0  0  0  0  0  0
    2.6498   -2.1295    4.4771 H   0  0  0  0  0  0  0  0  0  0  0  0
    2.0273   -1.8212    2.3016 H   0  0  0  0  0  0  0  0  0  0  0  0
    3.8329   -0.3988    3.6677 H   0  0  0  0  0  0  0  0  0  0  0  0
    3.2767    1.2354    3.5318 H   0  0  0  0  0  0  0  0  0  0  0  0
    2.7733    0.0552    2.3378 H   0  0  0  0  0  0  0  0  0  0  0  0
    2.8367   -0.5219    6.0998 H   0  0  0  0  0  0  0  0  0  0  0  0
    1.8062    4.3082    6.2121 H   0  0  0  0  0  0  0  0  0  0  0  0
   -0.2526    4.8279    4.9561 H   0  0  0  0  0  0  0  0  0  0  0  0
   -0.4778    3.9949    7.0363 H   0  0  0  0  0  0  0  0  0  0  0  0
   -2.6837    3.0527    7.2827 H   0  0  0  0  0  0  0  0  0  0  0  0
   -2.9639    1.3354    7.1569 H   0  0  0  0  0  0  0  0  0  0  0  0
   -2.6885    2.2985    5.7145 H   0  0  0  0  0  0  0  0  0  0  0  0
   -1.0463    2.6150    8.9233 H   0  0  0  0  0  0  0  0  0  0  0  0
    0.4702    1.8287    8.6009 H   0  0  0  0  0  0  0  0  0  0  0  0
   -0.9961    0.8776    8.7934 H   0  0  0  0  0  0  0  0  0  0  0  0
  1  2  1  0
  1 27  1  0
  1 28  1  0
  1 29  1  0
  2  3  2  0
  2  4  1  0
  4  5  1  0
  5 22  1  0
  5  6  1  0
  5 30  1  6
  6  7  1  0
  6 31  1  0
  6 32  1  0
  7 15  1  0
  7  8  1  0
  7 33  1  6
  8  9  1  0
  8 34  1  0
  8 35  1  0
  9 24  1  0
  9 10  1  0
  9 36  1  1
 10 17  1  0
 10 11  1  0
 10 37  1  1
 11 12  1  0
 11 38  1  0
 11 39  1  0
 12 13  1  0
 12 40  1  0
 12 41  1  0
 13 14  1  0
 13 15  1  0
 13 42  1  1
 14 43  1  0
 15 16  1  6
 15 17  1  0
 16 44  1  0
 16 45  1  0
 16 46  1  0
 17 18  1  0
 17 47  1  1
 18 19  2  0
 18 20  1  0
 20 21  1  0
 21 23  1  0
 21 22  1  0
 21 48  1  1
 22 23  1  0
 22 49  1  1
 23 24  1  0
 23 50  1  1
 24 25  1  0
 24 26  1  0
 25 51  1  0
 25 52  1  0
 25 53  1  0
 26 54  1  0
 26 55  1  0
 26 56  1  0
M  END
>  <i_m_ct_stereo_status>  (349) 
1

>  <s_m_source_file>  (349) 
/var/tmp/pbs.5076255.sched01/tmphrhi8tfx/132_dydaaau.sdf

>  <i_m_source_file_index>  (349) 
31

>  <i_lp_mmshare_version>  (349) 
48012

>  <i_f3d_flags>  (349) 
0

>  <s_epik_input>  (349) 
W0NIM11bQ0BAXTEyW0NAQEhdM1tDSDJdW0NAQEhdKE9DKD1PKVtDSDNdKVtDQEBIXTRbQ0BIXTVbQ0BASF00QyhbQ0gzXSkoW0NIM10pW0NAQEhdKFtDSDJdMylbQ0BIXShbQ0BASF0yQyg9TylPNSlbQ0gyXVtDSDJdW0NASF0xW09IXQ==

>  <s_epik_cmdline>  (349) 
J2VwaWtfcHl0aG9uJywgJy1waHQnLCAnMi4wJywgJy1waCcsICc3LjAnLCAnLXRuJywgJzgnLCAnLW1hJywgJzIwMCcsICctaW1hZScsICc8aW5maWxlLm1hZT4nLCAnLW9tYWUnLCAnPG91dGZpbGUubWFlPic=

>  <r_lp_tautomer_probability>  (349) 
1

>  <r_epik_Ionization_Penalty>  (349) 
4.40253e-07

>  <r_epik_Ionization_Penalty_Charging>  (349) 
0

>  <r_epik_Ionization_Penalty_Neutral>  (349) 
4.40253e-07

>  <r_epik_State_Penalty>  (349) 
-0

>  <r_epik_Charging_Adjusted_Penalty>  (349) 
0

>  <i_epik_Tot_Q>  (349) 
0

>  <i_epik_Tot_abs_Q>  (349) 
0

>  <s_epik_Chemistry_Notes>  (349) 
This compound has an ester and may undergo hydrolysis at high or low pH.

>  <s_lp_Force_Field>  (349) 
OPLS3e

>  <r_lp_Energy>  (349) 
80.0401

>  <b_lp_Chiralities_Consistent>  (349) 
1

>  <s_lp_Variant>  (349) 
112:0-1

>  <s_i_glide_gridfile>  (349) 
pfpi4k_grid

>  <i_i_glide_lignum>  (349) 
31

>  <i_i_glide_rotatable_bonds>  (349) 
3

>  <r_i_docking_score>  (349) 
-2.49485

>  <r_i_glide_ligand_efficiency>  (349) 
-0.0959556

>  <r_i_glide_ligand_efficiency_sa>  (349) 
-0.284268

>  <r_i_glide_ligand_efficiency_ln>  (349) 
-0.585906

>  <r_i_glide_gscore>  (349) 
-2.49485

>  <r_i_glide_lipo>  (349) 
-0.234784

>  <r_i_glide_hbond>  (349) 
-0.16

>  <r_i_glide_metal>  (349) 
-0

>  <r_i_glide_rewards>  (349) 
-0.937773

>  <r_i_glide_evdw>  (349) 
-21.3711

>  <r_i_glide_ecoul>  (349) 
-1.04449

>  <r_i_glide_erotb>  (349) 
0.146161

>  <r_i_glide_esite>  (349) 
-0.0832203

>  <r_i_glide_emodel>  (349) 
-25.9575

>  <r_i_glide_energy>  (349) 
-22.4156

>  <r_i_glide_einternal>  (349) 
1.6709

>  <r_i_glide_intrahb_reward>  (349) 
-0

>  <i_i_glide_confnum>  (349) 
4

>  <i_i_glide_posenum>  (349) 
1

>  <r_i_glide_eff_state_penalty>  (349) 
0

>  <ligand_id>  (349) 
112

>  <original_smiles>  (349) 
CC(=O)OC1CC2CC3C4CCC(O)C2(C)C4C(=O)OC2C1C2C3(C)C

>  <smiles>  (349) 
[H]OC1([H])C([H])([H])C([H])([H])C2([H])C3([H])C(=O)OC4([H])C5([H])C([H])(OC(=O)C([H])([H])[H])C([H])([H])C([H])(C([H])([H])C2([H])C(C([H])([H])[H])(C([H])([H])[H])C45[H])C13C([H])([H])[H]

$$$$
113:0:0
     RDKit          3D

 43 46  0  0  1  0  0  0  0  0999 V2000
    3.3002   -2.8601   -1.4089 C   0  0  0  0  0  0  0  0  0  0  0  0
    4.7683   -3.2354   -1.0929 C   0  0  0  0  0  0  0  0  0  0  0  0
    5.5206   -2.9427   -2.4295 C   0  0  0  0  0  0  0  0  0  0  0  0
    5.3330   -2.4552    0.1028 C   0  0  0  0  0  0  0  0  0  0  0  0
    5.8288   -3.3616    0.9702 C   0  0  0  0  0  0  0  0  0  0  0  0
    6.4032   -4.3999    0.0592 C   0  0  1  0  0  0  0  0  0  0  0  0
    7.3655   -5.4828    0.5597 C   0  0  0  0  0  0  0  0  0  0  0  0
    7.5758   -5.5916    2.0624 C   0  0  0  0  0  0  0  0  0  0  0  0
    6.2736   -6.0128    2.7510 C   0  0  2  0  0  0  0  0  0  0  0  0
    6.6239   -6.6332    3.9728 O   0  0  0  0  0  0  0  0  0  0  0  0
    5.6726   -6.9425    1.8936 O   0  0  0  0  0  0  0  0  0  0  0  0
    4.4764   -6.6034    1.1951 C   0  0  0  0  0  0  0  0  0  0  0  0
    4.2062   -5.1156    0.7656 C   0  0  2  0  0  0  0  0  0  0  0  0
    2.6647   -5.1052    0.5828 C   0  0  0  0  0  0  0  0  0  0  0  0
    5.0241   -4.7040   -0.5373 C   0  0  1  0  0  0  0  0  0  0  0  0
    4.7611   -4.0828    1.8256 C   0  0  2  0  0  0  0  0  0  0  0  0
    3.7173   -3.0597    2.3728 C   0  0  0  0  0  0  0  0  0  0  0  0
    5.3426   -4.8108    3.0790 C   0  0  1  0  0  0  0  0  0  0  0  0
    4.3345   -5.2338    3.9781 O   0  0  0  0  0  0  0  0  0  0  0  0
    2.7541   -3.7107   -1.8114 H   0  0  0  0  0  0  0  0  0  0  0  0
    3.2205   -2.0705   -2.1531 H   0  0  0  0  0  0  0  0  0  0  0  0
    2.7661   -2.4590   -0.5546 H   0  0  0  0  0  0  0  0  0  0  0  0
    5.1789   -3.6243   -3.2122 H   0  0  0  0  0  0  0  0  0  0  0  0
    6.6062   -3.0171   -2.3956 H   0  0  0  0  0  0  0  0  0  0  0  0
    5.3125   -1.9280   -2.7765 H   0  0  0  0  0  0  0  0  0  0  0  0
    4.7274   -1.6278    0.4255 H   0  0  0  0  0  0  0  0  0  0  0  0
    7.0687   -3.8959   -0.6382 H   0  0  0  0  0  0  0  0  0  0  0  0
    7.1125   -6.4458    0.1182 H   0  0  0  0  0  0  0  0  0  0  0  0
    8.3505   -5.2710    0.1416 H   0  0  0  0  0  0  0  0  0  0  0  0
    8.3298   -6.3632    2.2317 H   0  0  0  0  0  0  0  0  0  0  0  0
    7.9722   -4.6702    2.4681 H   0  0  0  0  0  0  0  0  0  0  0  0
    7.2815   -7.2815    3.7810 H   0  0  0  0  0  0  0  0  0  0  0  0
    4.4338   -7.2376    0.3106 H   0  0  0  0  0  0  0  0  0  0  0  0
    3.6826   -6.9690    1.8465 H   0  0  0  0  0  0  0  0  0  0  0  0
    2.2155   -4.1290    0.5096 H   0  0  0  0  0  0  0  0  0  0  0  0
    2.1584   -5.5582    1.4320 H   0  0  0  0  0  0  0  0  0  0  0  0
    2.3899   -5.6700   -0.3040 H   0  0  0  0  0  0  0  0  0  0  0  0
    5.0130   -5.4627   -1.3166 H   0  0  0  0  0  0  0  0  0  0  0  0
    2.8976   -3.5559    2.8886 H   0  0  0  0  0  0  0  0  0  0  0  0
    3.2362   -2.4457    1.6155 H   0  0  0  0  0  0  0  0  0  0  0  0
    4.1871   -2.3801    3.0868 H   0  0  0  0  0  0  0  0  0  0  0  0
    5.9304   -4.0939    3.6517 H   0  0  0  0  0  0  0  0  0  0  0  0
    4.7765   -5.6826    4.6875 H   0  0  0  0  0  0  0  0  0  0  0  0
  1  2  1  0
  1 20  1  0
  1 21  1  0
  1 22  1  0
  2 15  1  0
  2  3  1  0
  2  4  1  0
  3 23  1  0
  3 24  1  0
  3 25  1  0
  4  5  2  0
  4 26  1  0
  5 16  1  0
  5  6  1  0
  6 15  1  0
  6  7  1  0
  6 27  1  6
  7  8  1  0
  7 28  1  0
  7 29  1  0
  8  9  1  0
  8 30  1  0
  8 31  1  0
  9 18  1  0
  9 10  1  1
  9 11  1  0
 10 32  1  0
 11 12  1  0
 12 13  1  0
 12 33  1  0
 12 34  1  0
 13 14  1  6
 13 15  1  0
 13 16  1  0
 14 35  1  0
 14 36  1  0
 14 37  1  0
 15 38  1  6
 16 17  1  1
 16 18  1  0
 17 39  1  0
 17 40  1  0
 17 41  1  0
 18 19  1  0
 18 42  1  1
 19 43  1  0
M  END
>  <i_m_ct_stereo_status>  (350) 
1

>  <s_m_source_file>  (350) 
/var/tmp/pbs.5076255.sched01/tmphrhi8tfx/132_dydaaau.sdf

>  <i_m_source_file_index>  (350) 
32

>  <i_lp_mmshare_version>  (350) 
48012

>  <i_f3d_flags>  (350) 
1

>  <s_epik_input>  (350) 
W0NIM11DKFtDSDNdKShbQ0hdPTEpW0NAQEhdMltDQF0oW0NIMl1PMykoW0NIM10pW0NAQF0oW0NIM10pKFtDQEhdNFtPSF0pQzFbQ0BIXTJbQ0gyXVtDSDJdW0NAXTM0W09IXQ==

>  <s_epik_cmdline>  (350) 
J2VwaWtfcHl0aG9uJywgJy1waHQnLCAnMi4wJywgJy1waCcsICc3LjAnLCAnLXRuJywgJzgnLCAnLW1hJywgJzIwMCcsICctaW1hZScsICc8aW5maWxlLm1hZT4nLCAnLW9tYWUnLCAnPG91dGZpbGUubWFlPic=

>  <r_lp_tautomer_probability>  (350) 
1

>  <r_epik_Ionization_Penalty>  (350) 
1.02214e-07

>  <r_epik_Ionization_Penalty_Charging>  (350) 
0

>  <r_epik_Ionization_Penalty_Neutral>  (350) 
1.02214e-07

>  <r_epik_State_Penalty>  (350) 
-0

>  <r_epik_Charging_Adjusted_Penalty>  (350) 
0

>  <i_epik_Tot_Q>  (350) 
0

>  <i_epik_Tot_abs_Q>  (350) 
0

>  <s_lp_Force_Field>  (350) 
OPLS3e

>  <r_lp_Energy>  (350) 
120.638

>  <b_lp_Chiralities_Consistent>  (350) 
1

>  <s_lp_Variant>  (350) 
113:0-1

>  <s_i_glide_gridfile>  (350) 
pfpi4k_grid

>  <i_i_glide_lignum>  (350) 
32

>  <i_i_glide_rotatable_bonds>  (350) 
2

>  <r_i_docking_score>  (350) 
-3.2397

>  <r_i_glide_ligand_efficiency>  (350) 
-0.170511

>  <r_i_glide_ligand_efficiency_sa>  (350) 
-0.454991

>  <r_i_glide_ligand_efficiency_ln>  (350) 
-0.821335

>  <r_i_glide_gscore>  (350) 
-3.2397

>  <r_i_glide_lipo>  (350) 
-0.648087

>  <r_i_glide_hbond>  (350) 
0

>  <r_i_glide_metal>  (350) 
-0

>  <r_i_glide_rewards>  (350) 
-1.62742

>  <r_i_glide_evdw>  (350) 
-17.7857

>  <r_i_glide_ecoul>  (350) 
-0.499443

>  <r_i_glide_erotb>  (350) 
0

>  <r_i_glide_esite>  (350) 
0

>  <r_i_glide_emodel>  (350) 
-21.77

>  <r_i_glide_energy>  (350) 
-18.2851

>  <r_i_glide_einternal>  (350) 
0.407495

>  <r_i_glide_intrahb_reward>  (350) 
-0

>  <i_i_glide_confnum>  (350) 
2

>  <i_i_glide_posenum>  (350) 
39

>  <r_i_glide_eff_state_penalty>  (350) 
0

>  <ligand_id>  (350) 
113

>  <original_smiles>  (350) 
CC1(C)C=C2C3CCC4(O)OCC(C)(C31)C2(C)C4O

>  <smiles>  (350) 
[H]OC1([H])C2(O[H])OC([H])([H])C3(C([H])([H])[H])C4([H])C([H])(C(=C([H])C4(C([H])([H])[H])C([H])([H])[H])C13C([H])([H])[H])C([H])([H])C2([H])[H]

$$$$
113:0:1
     RDKit          3D

 43 46  0  0  1  0  0  0  0  0999 V2000
    2.8921   -2.7873   -2.2275 C   0  0  0  0  0  0  0  0  0  0  0  0
    4.3565   -3.0151   -1.7890 C   0  0  0  0  0  0  0  0  0  0  0  0
    5.1451   -2.8944   -3.1173 C   0  0  0  0  0  0  0  0  0  0  0  0
    4.8241   -2.0179   -0.7164 C   0  0  0  0  0  0  0  0  0  0  0  0
    5.3312   -2.7455    0.3013 C   0  0  0  0  0  0  0  0  0  0  0  0
    6.0044   -3.8773   -0.4153 C   0  0  1  0  0  0  0  0  0  0  0  0
    6.9652   -4.8309    0.2968 C   0  0  0  0  0  0  0  0  0  0  0  0
    7.1091   -4.6808    1.7850 C   0  0  0  0  0  0  0  0  0  0  0  0
    5.8224   -5.0712    2.5035 C   0  0  2  0  0  0  0  0  0  0  0  0
    6.1826   -5.4593    3.8104 O   0  0  0  0  0  0  0  0  0  0  0  0
    5.3000   -6.1594    1.7998 O   0  0  0  0  0  0  0  0  0  0  0  0
    4.1389   -5.9965    0.9894 C   0  0  0  0  0  0  0  0  0  0  0  0
    3.8265   -4.6082    0.3218 C   0  0  2  0  0  0  0  0  0  0  0  0
    2.3011   -4.7173    0.0792 C   0  0  0  0  0  0  0  0  0  0  0  0
    4.6792   -4.3530   -0.9966 C   0  0  1  0  0  0  0  0  0  0  0  0
    4.2698   -3.3930    1.2249 C   0  0  2  0  0  0  0  0  0  0  0  0
    3.1433   -2.3597    1.5620 C   0  0  0  0  0  0  0  0  0  0  0  0
    4.8219   -3.8882    2.6011 C   0  0  1  0  0  0  0  0  0  0  0  0
    3.7782   -4.2358    3.5019 O   0  0  0  0  0  0  0  0  0  0  0  0
    2.4033   -3.7214   -2.5065 H   0  0  0  0  0  0  0  0  0  0  0  0
    2.8001   -2.1267   -3.0896 H   0  0  0  0  0  0  0  0  0  0  0  0
    2.3024   -2.2892   -1.4705 H   0  0  0  0  0  0  0  0  0  0  0  0
    4.8691   -3.7114   -3.7924 H   0  0  0  0  0  0  0  0  0  0  0  0
    6.2288   -2.9011   -3.0401 H   0  0  0  0  0  0  0  0  0  0  0  0
    4.9004   -1.9606   -3.6303 H   0  0  0  0  0  0  0  0  0  0  0  0
    4.1494   -1.1971   -0.5479 H   0  0  0  0  0  0  0  0  0  0  0  0
    6.6756   -3.4600   -1.1606 H   0  0  0  0  0  0  0  0  0  0  0  0
    6.7691   -5.8685    0.0278 H   0  0  0  0  0  0  0  0  0  0  0  0
    7.9600   -4.6366   -0.1059 H   0  0  0  0  0  0  0  0  0  0  0  0
    7.8999   -5.3590    2.1105 H   0  0  0  0  0  0  0  0  0  0  0  0
    7.4037   -3.6700    2.0484 H   0  0  0  0  0  0  0  0  0  0  0  0
    5.4057   -5.8013    4.2318 H   0  0  0  0  0  0  0  0  0  0  0  0
    4.1711   -6.7640    0.2144 H   0  0  0  0  0  0  0  0  0  0  0  0
    3.3315   -6.3018    1.6572 H   0  0  0  0  0  0  0  0  0  0  0  0
    1.8125   -3.7908   -0.1684 H   0  0  0  0  0  0  0  0  0  0  0  0
    1.7876   -5.0502    0.9793 H   0  0  0  0  0  0  0  0  0  0  0  0
    2.0780   -5.4321   -0.7066 H   0  0  0  0  0  0  0  0  0  0  0  0
    4.7804   -5.2290   -1.6326 H   0  0  0  0  0  0  0  0  0  0  0  0
    2.3285   -2.8168    2.1204 H   0  0  0  0  0  0  0  0  0  0  0  0
    2.6619   -1.9028    0.7024 H   0  0  0  0  0  0  0  0  0  0  0  0
    3.5408   -1.5497    2.1749 H   0  0  0  0  0  0  0  0  0  0  0  0
    5.3569   -3.0563    3.0686 H   0  0  0  0  0  0  0  0  0  0  0  0
    4.1586   -4.3491    4.3560 H   0  0  0  0  0  0  0  0  0  0  0  0
  1  2  1  0
  1 20  1  0
  1 21  1  0
  1 22  1  0
  2 15  1  0
  2  3  1  0
  2  4  1  0
  3 23  1  0
  3 24  1  0
  3 25  1  0
  4  5  2  0
  4 26  1  0
  5 16  1  0
  5  6  1  0
  6 15  1  0
  6  7  1  0
  6 27  1  6
  7  8  1  0
  7 28  1  0
  7 29  1  0
  8  9  1  0
  8 30  1  0
  8 31  1  0
  9 18  1  0
  9 10  1  1
  9 11  1  0
 10 32  1  0
 11 12  1  0
 12 13  1  0
 12 33  1  0
 12 34  1  0
 13 14  1  6
 13 15  1  0
 13 16  1  0
 14 35  1  0
 14 36  1  0
 14 37  1  0
 15 38  1  6
 16 17  1  1
 16 18  1  0
 17 39  1  0
 17 40  1  0
 17 41  1  0
 18 19  1  0
 18 42  1  1
 19 43  1  0
M  END
>  <i_m_ct_stereo_status>  (351) 
1

>  <s_m_source_file>  (351) 
/var/tmp/pbs.5076255.sched01/tmphrhi8tfx/132_dydaaau.sdf

>  <i_m_source_file_index>  (351) 
32

>  <i_lp_mmshare_version>  (351) 
48012

>  <i_f3d_flags>  (351) 
1

>  <s_epik_input>  (351) 
W0NIM11DKFtDSDNdKShbQ0hdPTEpW0NAQEhdMltDQF0oW0NIMl1PMykoW0NIM10pW0NAQF0oW0NIM10pKFtDQEhdNFtPSF0pQzFbQ0BIXTJbQ0gyXVtDSDJdW0NAXTM0W09IXQ==

>  <s_epik_cmdline>  (351) 
J2VwaWtfcHl0aG9uJywgJy1waHQnLCAnMi4wJywgJy1waCcsICc3LjAnLCAnLXRuJywgJzgnLCAnLW1hJywgJzIwMCcsICctaW1hZScsICc8aW5maWxlLm1hZT4nLCAnLW9tYWUnLCAnPG91dGZpbGUubWFlPic=

>  <r_lp_tautomer_probability>  (351) 
1

>  <r_epik_Ionization_Penalty>  (351) 
1.02214e-07

>  <r_epik_Ionization_Penalty_Charging>  (351) 
0

>  <r_epik_Ionization_Penalty_Neutral>  (351) 
1.02214e-07

>  <r_epik_State_Penalty>  (351) 
-0

>  <r_epik_Charging_Adjusted_Penalty>  (351) 
0

>  <i_epik_Tot_Q>  (351) 
0

>  <i_epik_Tot_abs_Q>  (351) 
0

>  <s_lp_Force_Field>  (351) 
OPLS3e

>  <r_lp_Energy>  (351) 
120.638

>  <b_lp_Chiralities_Consistent>  (351) 
1

>  <s_lp_Variant>  (351) 
113:0-1

>  <s_i_glide_gridfile>  (351) 
pfpi4k_grid

>  <i_i_glide_lignum>  (351) 
32

>  <i_i_glide_rotatable_bonds>  (351) 
2

>  <r_i_docking_score>  (351) 
-3.01235

>  <r_i_glide_ligand_efficiency>  (351) 
-0.158545

>  <r_i_glide_ligand_efficiency_sa>  (351) 
-0.423061

>  <r_i_glide_ligand_efficiency_ln>  (351) 
-0.763695

>  <r_i_glide_gscore>  (351) 
-3.01235

>  <r_i_glide_lipo>  (351) 
-0.539602

>  <r_i_glide_hbond>  (351) 
0

>  <r_i_glide_metal>  (351) 
-0

>  <r_i_glide_rewards>  (351) 
-1.63583

>  <r_i_glide_evdw>  (351) 
-15.0903

>  <r_i_glide_ecoul>  (351) 
-0.54931

>  <r_i_glide_erotb>  (351) 
0

>  <r_i_glide_esite>  (351) 
0

>  <r_i_glide_emodel>  (351) 
-18.8975

>  <r_i_glide_energy>  (351) 
-15.6396

>  <r_i_glide_einternal>  (351) 
0.340368

>  <r_i_glide_intrahb_reward>  (351) 
-0

>  <i_i_glide_confnum>  (351) 
2

>  <i_i_glide_posenum>  (351) 
1

>  <r_i_glide_eff_state_penalty>  (351) 
0

>  <ligand_id>  (351) 
113

>  <original_smiles>  (351) 
CC1(C)C=C2C3CCC4(O)OCC(C)(C31)C2(C)C4O

>  <smiles>  (351) 
[H]OC1([H])C2(O[H])OC([H])([H])C3(C([H])([H])[H])C4([H])C([H])(C(=C([H])C4(C([H])([H])[H])C([H])([H])[H])C13C([H])([H])[H])C([H])([H])C2([H])[H]

$$$$
113:0:2
     RDKit          3D

 43 46  0  0  1  0  0  0  0  0999 V2000
    5.3317   -1.1392   -1.1131 C   0  0  0  0  0  0  0  0  0  0  0  0
    4.3989   -2.3673   -1.1823 C   0  0  0  0  0  0  0  0  0  0  0  0
    3.3842   -2.0005   -2.3057 C   0  0  0  0  0  0  0  0  0  0  0  0
    5.1568   -3.6687   -1.4723 C   0  0  0  0  0  0  0  0  0  0  0  0
    4.8169   -4.5481   -0.5063 C   0  0  0  0  0  0  0  0  0  0  0  0
    3.3695   -4.2286   -0.2723 C   0  0  1  0  0  0  0  0  0  0  0  0
    2.4593   -5.1764    0.5188 C   0  0  0  0  0  0  0  0  0  0  0  0
    3.1187   -6.3737    1.1994 C   0  0  0  0  0  0  0  0  0  0  0  0
    4.0410   -5.9014    2.3195 C   0  0  2  0  0  0  0  0  0  0  0  0
    4.1311   -6.9545    3.2516 O   0  0  0  0  0  0  0  0  0  0  0  0
    3.4195   -4.7952    2.9046 O   0  0  0  0  0  0  0  0  0  0  0  0
    3.9402   -3.4804    2.7197 C   0  0  0  0  0  0  0  0  0  0  0  0
    4.7066   -3.1163    1.3992 C   0  0  2  0  0  0  0  0  0  0  0  0
    5.5502   -1.8884    1.8479 C   0  0  0  0  0  0  0  0  0  0  0  0
    3.7097   -2.8105    0.1858 C   0  0  1  0  0  0  0  0  0  0  0  0
    5.5396   -4.3397    0.8483 C   0  0  2  0  0  0  0  0  0  0  0  0
    7.0629   -4.0624    0.6219 C   0  0  0  0  0  0  0  0  0  0  0  0
    5.4712   -5.5781    1.8106 C   0  0  1  0  0  0  0  0  0  0  0  0
    6.3404   -5.4534    2.9299 O   0  0  0  0  0  0  0  0  0  0  0  0
    4.9624   -0.3979   -0.4039 H   0  0  0  0  0  0  0  0  0  0  0  0
    5.4116   -0.6240   -2.0696 H   0  0  0  0  0  0  0  0  0  0  0  0
    6.3537   -1.4012   -0.8632 H   0  0  0  0  0  0  0  0  0  0  0  0
    2.7659   -1.1554   -1.9884 H   0  0  0  0  0  0  0  0  0  0  0  0
    2.7005   -2.7903   -2.6078 H   0  0  0  0  0  0  0  0  0  0  0  0
    3.8912   -1.6940   -3.2247 H   0  0  0  0  0  0  0  0  0  0  0  0
    6.1748   -3.5389   -1.7997 H   0  0  0  0  0  0  0  0  0  0  0  0
    2.8588   -4.2534   -1.2302 H   0  0  0  0  0  0  0  0  0  0  0  0
    1.8242   -4.6077    1.1990 H   0  0  0  0  0  0  0  0  0  0  0  0
    1.7546   -5.6081   -0.1929 H   0  0  0  0  0  0  0  0  0  0  0  0
    2.3246   -6.9759    1.6437 H   0  0  0  0  0  0  0  0  0  0  0  0
    3.6545   -7.0230    0.5057 H   0  0  0  0  0  0  0  0  0  0  0  0
    4.8302   -6.7326    3.8519 H   0  0  0  0  0  0  0  0  0  0  0  0
    3.1093   -2.7877    2.8528 H   0  0  0  0  0  0  0  0  0  0  0  0
    4.5756   -3.3294    3.5929 H   0  0  0  0  0  0  0  0  0  0  0  0
    6.3432   -1.5968    1.1776 H   0  0  0  0  0  0  0  0  0  0  0  0
    6.0733   -2.0772    2.7833 H   0  0  0  0  0  0  0  0  0  0  0  0
    4.9092   -1.0238    2.0052 H   0  0  0  0  0  0  0  0  0  0  0  0
    2.8450   -2.2039    0.4528 H   0  0  0  0  0  0  0  0  0  0  0  0
    7.5694   -3.8039    1.5495 H   0  0  0  0  0  0  0  0  0  0  0  0
    7.2871   -3.2439   -0.0556 H   0  0  0  0  0  0  0  0  0  0  0  0
    7.5598   -4.9479    0.2251 H   0  0  0  0  0  0  0  0  0  0  0  0
    5.8247   -6.4554    1.2624 H   0  0  0  0  0  0  0  0  0  0  0  0
    6.0579   -4.7110    3.4373 H   0  0  0  0  0  0  0  0  0  0  0  0
  1  2  1  0
  1 20  1  0
  1 21  1  0
  1 22  1  0
  2 15  1  0
  2  3  1  0
  2  4  1  0
  3 23  1  0
  3 24  1  0
  3 25  1  0
  4  5  2  0
  4 26  1  0
  5 16  1  0
  5  6  1  0
  6 15  1  0
  6  7  1  0
  6 27  1  6
  7  8  1  0
  7 28  1  0
  7 29  1  0
  8  9  1  0
  8 30  1  0
  8 31  1  0
  9 18  1  0
  9 10  1  1
  9 11  1  0
 10 32  1  0
 11 12  1  0
 12 13  1  0
 12 33  1  0
 12 34  1  0
 13 14  1  1
 13 15  1  0
 13 16  1  0
 14 35  1  0
 14 36  1  0
 14 37  1  0
 15 38  1  1
 16 17  1  6
 16 18  1  0
 17 39  1  0
 17 40  1  0
 17 41  1  0
 18 19  1  0
 18 42  1  6
 19 43  1  0
M  END
>  <i_m_ct_stereo_status>  (352) 
1

>  <s_m_source_file>  (352) 
/var/tmp/pbs.5076255.sched01/tmphrhi8tfx/132_dydaaau.sdf

>  <i_m_source_file_index>  (352) 
32

>  <i_lp_mmshare_version>  (352) 
48012

>  <i_f3d_flags>  (352) 
1

>  <s_epik_input>  (352) 
W0NIM11DKFtDSDNdKShbQ0hdPTEpW0NAQEhdMltDQF0oW0NIMl1PMykoW0NIM10pW0NAQF0oW0NIM10pKFtDQEhdNFtPSF0pQzFbQ0BIXTJbQ0gyXVtDSDJdW0NAXTM0W09IXQ==

>  <s_epik_cmdline>  (352) 
J2VwaWtfcHl0aG9uJywgJy1waHQnLCAnMi4wJywgJy1waCcsICc3LjAnLCAnLXRuJywgJzgnLCAnLW1hJywgJzIwMCcsICctaW1hZScsICc8aW5maWxlLm1hZT4nLCAnLW9tYWUnLCAnPG91dGZpbGUubWFlPic=

>  <r_lp_tautomer_probability>  (352) 
1

>  <r_epik_Ionization_Penalty>  (352) 
1.02214e-07

>  <r_epik_Ionization_Penalty_Charging>  (352) 
0

>  <r_epik_Ionization_Penalty_Neutral>  (352) 
1.02214e-07

>  <r_epik_State_Penalty>  (352) 
-0

>  <r_epik_Charging_Adjusted_Penalty>  (352) 
0

>  <i_epik_Tot_Q>  (352) 
0

>  <i_epik_Tot_abs_Q>  (352) 
0

>  <s_lp_Force_Field>  (352) 
OPLS3e

>  <r_lp_Energy>  (352) 
120.638

>  <b_lp_Chiralities_Consistent>  (352) 
1

>  <s_lp_Variant>  (352) 
113:0-1

>  <s_i_glide_gridfile>  (352) 
pfpi4k_grid

>  <i_i_glide_lignum>  (352) 
32

>  <i_i_glide_rotatable_bonds>  (352) 
2

>  <r_i_docking_score>  (352) 
-2.98873

>  <r_i_glide_ligand_efficiency>  (352) 
-0.157302

>  <r_i_glide_ligand_efficiency_sa>  (352) 
-0.419744

>  <r_i_glide_ligand_efficiency_ln>  (352) 
-0.757707

>  <r_i_glide_gscore>  (352) 
-2.98873

>  <r_i_glide_lipo>  (352) 
-0.421046

>  <r_i_glide_hbond>  (352) 
0

>  <r_i_glide_metal>  (352) 
-0

>  <r_i_glide_rewards>  (352) 
-1.61044

>  <r_i_glide_evdw>  (352) 
-20.5091

>  <r_i_glide_ecoul>  (352) 
0.454772

>  <r_i_glide_erotb>  (352) 
0

>  <r_i_glide_esite>  (352) 
0

>  <r_i_glide_emodel>  (352) 
-23.3881

>  <r_i_glide_energy>  (352) 
-20.0543

>  <r_i_glide_einternal>  (352) 
0.00780761

>  <r_i_glide_intrahb_reward>  (352) 
-0

>  <i_i_glide_confnum>  (352) 
2

>  <i_i_glide_posenum>  (352) 
3

>  <r_i_glide_eff_state_penalty>  (352) 
0

>  <ligand_id>  (352) 
113

>  <original_smiles>  (352) 
CC1(C)C=C2C3CCC4(O)OCC(C)(C31)C2(C)C4O

>  <smiles>  (352) 
[H]OC1([H])C2(O[H])OC([H])([H])C3(C([H])([H])[H])C4([H])C([H])(C(=C([H])C4(C([H])([H])[H])C([H])([H])[H])C13C([H])([H])[H])C([H])([H])C2([H])[H]

$$$$
115:0:0
     RDKit          3D

 91 99  0  0  1  0  0  0  0  0999 V2000
    5.1399   -1.8958    4.5599 C   0  0  0  0  0  0  0  0  0  0  0  0
    4.7247   -2.7559    3.5081 O   0  0  0  0  0  0  0  0  0  0  0  0
    3.9139   -3.8750    3.8764 C   0  0  1  0  0  0  0  0  0  0  0  0
    2.6417   -3.5270    4.6169 C   0  0  0  0  0  0  0  0  0  0  0  0
    1.9342   -4.7505    5.1590 C   0  0  0  0  0  0  0  0  0  0  0  0
    1.3298   -4.6355    6.4345 C   0  0  0  0  0  0  0  0  0  0  0  0
    0.5799   -5.6929    6.9807 C   0  0  0  0  0  0  0  0  0  0  0  0
   -0.0536   -5.5760    8.3629 C   0  0  0  0  0  0  0  0  0  0  0  0
   -1.2388   -4.5979    8.3572 C   0  0  0  0  0  0  0  0  0  0  0  0
    0.9783   -5.2010    9.4398 C   0  0  0  0  0  0  0  0  0  0  0  0
    0.4101   -6.8524    6.2107 C   0  0  0  0  0  0  0  0  0  0  0  0
    1.0037   -6.9657    4.9404 C   0  0  0  0  0  0  0  0  0  0  0  0
    1.8533   -5.9560    4.4086 C   0  0  0  0  0  0  0  0  0  0  0  0
    2.5802   -6.1338    3.0293 C   0  0  1  0  0  0  0  0  0  0  0  0
    1.5673   -5.5857    1.9857 C   0  0  0  0  0  0  0  0  0  0  0  0
    2.0412   -5.7119    0.5229 C   0  0  0  0  0  0  0  0  0  0  0  0
    3.5624   -5.5762    0.3858 C   0  0  0  0  0  0  0  0  0  0  0  0
    4.1430   -4.6045    1.4275 C   0  0  0  0  0  0  0  0  0  0  0  0
    5.6480   -4.4475    1.0696 C   0  0  0  0  0  0  0  0  0  0  0  0
    3.5260   -3.2052    1.0576 C   0  0  0  0  0  0  0  0  0  0  0  0
    3.8307   -5.1080    2.9302 C   0  0  1  0  0  0  0  0  0  0  0  0
    4.7559   -5.0348    4.1976 C   0  0  1  0  0  0  0  0  0  0  0  0
    6.1479   -5.0674    3.9252 O   0  0  0  0  0  0  0  0  0  0  0  0
    6.8099   -6.1773    4.7688 O   0  0  0  0  0  0  0  0  0  0  0  0
    6.5073   -7.4704    4.2239 C   0  0  2  0  0  0  0  0  0  0  0  0
    6.4641   -7.3035    2.6816 C   0  0  0  0  0  0  0  0  0  0  0  0
    5.2475   -7.9311    5.0323 C   0  0  0  0  0  0  0  0  0  0  0  0
    4.5176   -9.1289    4.4665 C   0  0  1  0  0  0  0  0  0  0  0  0
    5.4661  -10.0019    3.5907 C   0  0  0  0  0  0  0  0  0  0  0  0
    6.9800   -9.9630    3.9980 C   0  0  0  0  0  0  0  0  0  0  0  0
    7.5303   -8.5954    4.5322 C   0  0  1  0  0  0  0  0  0  0  0  0
    8.9703   -8.3291    4.0479 C   0  0  0  0  0  0  0  0  0  0  0  0
    3.9053  -10.1067    5.5283 C   0  0  0  0  0  0  0  0  0  0  0  0
    2.6681  -10.6117    4.8159 C   0  0  0  0  0  0  0  0  0  0  0  0
    1.8656  -11.6945    4.8818 N   0  0  0  0  0  0  0  0  0  0  0  0
    0.8513  -11.8437    3.9708 C   0  0  0  0  0  0  0  0  0  0  0  0
    0.6274  -10.8883    2.9170 C   0  0  0  0  0  0  0  0  0  0  0  0
    1.4911   -9.7689    2.8488 C   0  0  0  0  0  0  0  0  0  0  0  0
    2.4411   -9.7050    3.8184 C   0  0  0  0  0  0  0  0  0  0  0  0
    3.3064   -8.6423    3.7723 N   0  0  0  0  0  0  0  0  0  0  0  0
    2.8947   -7.7223    2.6796 C   0  0  1  0  0  0  0  0  0  0  0  0
    1.6826   -8.5225    2.0250 C   0  0  0  0  0  0  0  0  0  0  0  0
    5.8122   -1.1380    4.1531 H   0  0  0  0  0  0  0  0  0  0  0  0
    5.6729   -2.4482    5.3349 H   0  0  0  0  0  0  0  0  0  0  0  0
    4.3135   -1.3472    5.0144 H   0  0  0  0  0  0  0  0  0  0  0  0
    2.8451   -2.8545    5.4466 H   0  0  0  0  0  0  0  0  0  0  0  0
    1.9634   -3.0147    3.9361 H   0  0  0  0  0  0  0  0  0  0  0  0
    1.4442   -3.7245    6.9995 H   0  0  0  0  0  0  0  0  0  0  0  0
   -0.4452   -6.5581    8.6291 H   0  0  0  0  0  0  0  0  0  0  0  0
   -1.9852   -4.8906    7.6179 H   0  0  0  0  0  0  0  0  0  0  0  0
   -0.9113   -3.5856    8.1196 H   0  0  0  0  0  0  0  0  0  0  0  0
   -1.7362   -4.5701    9.3272 H   0  0  0  0  0  0  0  0  0  0  0  0
    1.8051   -5.9107    9.4510 H   0  0  0  0  0  0  0  0  0  0  0  0
    0.5356   -5.1968   10.4364 H   0  0  0  0  0  0  0  0  0  0  0  0
    1.4005   -4.2101    9.2718 H   0  0  0  0  0  0  0  0  0  0  0  0
   -0.1725   -7.6817    6.5857 H   0  0  0  0  0  0  0  0  0  0  0  0
    0.7837   -7.8638    4.3983 H   0  0  0  0  0  0  0  0  0  0  0  0
    0.5669   -5.9980    2.0994 H   0  0  0  0  0  0  0  0  0  0  0  0
    1.4057   -4.5361    2.2134 H   0  0  0  0  0  0  0  0  0  0  0  0
    1.7120   -6.6544    0.0957 H   0  0  0  0  0  0  0  0  0  0  0  0
    1.5681   -4.9418   -0.0849 H   0  0  0  0  0  0  0  0  0  0  0  0
    4.0507   -6.5383    0.4683 H   0  0  0  0  0  0  0  0  0  0  0  0
    3.8116   -5.2593   -0.6310 H   0  0  0  0  0  0  0  0  0  0  0  0
    6.2077   -3.8467    1.7879 H   0  0  0  0  0  0  0  0  0  0  0  0
    5.7583   -3.9384    0.1082 H   0  0  0  0  0  0  0  0  0  0  0  0
    6.1604   -5.3926    0.9263 H   0  0  0  0  0  0  0  0  0  0  0  0
    4.2216   -2.3805    1.2225 H   0  0  0  0  0  0  0  0  0  0  0  0
    2.6179   -2.9515    1.5992 H   0  0  0  0  0  0  0  0  0  0  0  0
    3.2763   -3.1388   -0.0034 H   0  0  0  0  0  0  0  0  0  0  0  0
    4.5504   -5.2491    5.2413 H   0  0  0  0  0  0  0  0  0  0  0  0
    6.6617   -8.2017    2.1081 H   0  0  0  0  0  0  0  0  0  0  0  0
    7.2488   -6.6145    2.3650 H   0  0  0  0  0  0  0  0  0  0  0  0
    5.5160   -6.9205    2.3504 H   0  0  0  0  0  0  0  0  0  0  0  0
    5.5702   -8.1619    6.0435 H   0  0  0  0  0  0  0  0  0  0  0  0
    4.4864   -7.1974    5.2262 H   0  0  0  0  0  0  0  0  0  0  0  0
    5.1398  -11.0422    3.5882 H   0  0  0  0  0  0  0  0  0  0  0  0
    5.3383   -9.7250    2.5479 H   0  0  0  0  0  0  0  0  0  0  0  0
    7.1676  -10.7260    4.7525 H   0  0  0  0  0  0  0  0  0  0  0  0
    7.5606  -10.2805    3.1257 H   0  0  0  0  0  0  0  0  0  0  0  0
    7.6110   -8.6805    5.6187 H   0  0  0  0  0  0  0  0  0  0  0  0
    9.0440   -8.2624    2.9617 H   0  0  0  0  0  0  0  0  0  0  0  0
    9.6343   -9.1350    4.3665 H   0  0  0  0  0  0  0  0  0  0  0  0
    9.3636   -7.4050    4.4690 H   0  0  0  0  0  0  0  0  0  0  0  0
    4.5732  -10.9124    5.8395 H   0  0  0  0  0  0  0  0  0  0  0  0
    3.5704   -9.5748    6.4185 H   0  0  0  0  0  0  0  0  0  0  0  0
    0.2231  -12.7115    4.1145 H   0  0  0  0  0  0  0  0  0  0  0  0
   -0.1639  -11.0130    2.2010 H   0  0  0  0  0  0  0  0  0  0  0  0
    3.6987   -7.7993    1.9576 H   0  0  0  0  0  0  0  0  0  0  0  0
    1.8993   -8.7992    0.9955 H   0  0  0  0  0  0  0  0  0  0  0  0
    0.7157   -8.0304    2.0343 H   0  0  0  0  0  0  0  0  0  0  0  0
    1.9864  -12.3786    5.6351 H   0  0  0  0  0  0  0  0  0  0  0  0
  1  2  1  0
  1 43  1  0
  1 44  1  0
  1 45  1  0
  3  2  1  6
  3 21  1  0
  3 22  1  0
  3  4  1  0
  4  5  1  0
  4 46  1  0
  4 47  1  0
  5 13  2  0
  5  6  1  0
  6  7  2  0
  6 48  1  0
  7  8  1  0
  7 11  1  0
  8  9  1  0
  8 10  1  0
  8 49  1  0
  9 50  1  0
  9 51  1  0
  9 52  1  0
 10 53  1  0
 10 54  1  0
 10 55  1  0
 11 12  2  0
 11 56  1  0
 12 13  1  0
 12 57  1  0
 13 14  1  0
 14 21  1  0
 14 41  1  0
 14 15  1  6
 15 16  1  0
 15 58  1  0
 15 59  1  0
 16 17  1  0
 16 60  1  0
 16 61  1  0
 17 18  1  0
 17 62  1  0
 17 63  1  0
 18 19  1  0
 18 20  1  0
 21 18  1  6
 19 64  1  0
 19 65  1  0
 19 66  1  0
 20 67  1  0
 20 68  1  0
 20 69  1  0
 21 22  1  0
 22 23  1  0
 22 70  1  1
 23 24  1  0
 24 25  1  0
 25 31  1  0
 25 26  1  6
 25 27  1  0
 26 71  1  0
 26 72  1  0
 26 73  1  0
 27 28  1  0
 27 74  1  0
 27 75  1  0
 28 40  1  0
 28 29  1  6
 28 33  1  0
 29 30  1  0
 29 76  1  0
 29 77  1  0
 30 31  1  0
 30 78  1  0
 30 79  1  0
 31 32  1  0
 31 80  1  1
 32 81  1  0
 32 82  1  0
 32 83  1  0
 33 34  1  0
 33 84  1  0
 33 85  1  0
 34 39  2  0
 34 35  1  0
 35 36  2  0
 35 91  1  0
 36 37  1  0
 36 86  1  0
 37 38  2  0
 37 87  1  0
 38 42  1  0
 38 39  1  0
 39 40  1  0
 40 41  1  0
 41 42  1  0
 41 88  1  6
 42 89  1  0
 42 90  1  0
M  CHG  1  35   1
M  END
>  <i_m_ct_stereo_status>  (353) 
1

>  <s_m_source_file>  (353) 
/var/tmp/pbs.5076255.sched01/tmphrhi8tfx/132_dydaaau.sdf

>  <i_m_source_file_index>  (353) 
35

>  <i_lp_mmshare_version>  (353) 
48012

>  <i_f3d_flags>  (353) 
0

>  <s_epik_input>  (353) 
W0NIM11bQ0hdKFtDSDNdKWMoW2NIXTEpW2NIXVtjSF1jMmMxW0NIMl1bQ0BdKE9bQ0gzXSkoW0NAQF0zKFtDQEBdMjQ1KUMoW0NIM10pKFtDSDNdKVtDSDJdW0NIMl1bQ0gyXTQpW0NAQEhdM09PW0NAXTYoW0NIM10pW0NIMl1bQ0BdNyhbQ0gyXVtDSDJdW0NASF02W0NIM10pTjhjOWMoW0NIMl03KW5bY0hdW2NIXWM5W0NIMl1bQ0BASF01OA==

>  <s_epik_cmdline>  (353) 
J2VwaWtfcHl0aG9uJywgJy1waHQnLCAnMi4wJywgJy1waCcsICc3LjAnLCAnLXRuJywgJzgnLCAnLW1hJywgJzIwMCcsICctaW1hZScsICc8aW5maWxlLm1hZT4nLCAnLW9tYWUnLCAnPG91dGZpbGUubWFlPic=

>  <r_lp_tautomer_probability>  (353) 
0.999846

>  <r_epik_Ionization_Penalty>  (353) 
0.0559621

>  <r_epik_Ionization_Penalty_Charging>  (353) 
0.0559621

>  <r_epik_Ionization_Penalty_Neutral>  (353) 
8.82267e-10

>  <r_epik_State_Penalty>  (353) 
0.0482402

>  <r_epik_Charging_Adjusted_Penalty>  (353) 
0.104202

>  <i_epik_Tot_Q>  (353) 
1

>  <i_epik_Tot_abs_Q>  (353) 
1

>  <s_lp_Force_Field>  (353) 
OPLS3e

>  <r_lp_Energy>  (353) 
198.199

>  <b_lp_Chiralities_Consistent>  (353) 
1

>  <s_lp_Variant>  (353) 
115:0-1

>  <s_i_glide_gridfile>  (353) 
pfpi4k_grid

>  <i_i_glide_lignum>  (353) 
35

>  <i_i_glide_rotatable_bonds>  (353) 
2

>  <r_i_docking_score>  (353) 
-2.76109

>  <r_i_glide_ligand_efficiency>  (353) 
-0.0657402

>  <r_i_glide_ligand_efficiency_sa>  (353) 
-0.228515

>  <r_i_glide_ligand_efficiency_ln>  (353) 
-0.582795

>  <r_i_glide_gscore>  (353) 
-2.76109

>  <r_i_glide_lipo>  (353) 
-0.318449

>  <r_i_glide_hbond>  (353) 
-0.180213

>  <r_i_glide_metal>  (353) 
-0

>  <r_i_glide_rewards>  (353) 
-0.53

>  <r_i_glide_evdw>  (353) 
-25.5868

>  <r_i_glide_ecoul>  (353) 
-2.55575

>  <r_i_glide_erotb>  (353) 
0

>  <r_i_glide_esite>  (353) 
-0.0697223

>  <r_i_glide_emodel>  (353) 
-34.8269

>  <r_i_glide_energy>  (353) 
-28.1426

>  <r_i_glide_einternal>  (353) 
0.266256

>  <r_i_glide_intrahb_reward>  (353) 
-0

>  <i_i_glide_confnum>  (353) 
2

>  <i_i_glide_posenum>  (353) 
1

>  <r_i_glide_eff_state_penalty>  (353) 
0

>  <ligand_id>  (353) 
115

>  <original_smiles>  (353) 
COC12Cc3cc(C(C)C)ccc3C34CCCC(C)(C)C13C2OOC1(C)CC2(CCC1C)Cc1nccc3c1N2C4C3

>  <smiles>  (353) 
[H]c1c([H])c2c(c([H])c1C([H])(C([H])([H])[H])C([H])([H])[H])C([H])([H])C1(OC([H])([H])[H])C3([H])OOC4(C([H])([H])[H])C([H])([H])C5(N6c7c(c([H])c([H])[n+]([H])c7C5([H])[H])C([H])([H])C6([H])C25C([H])([H])C([H])([H])C([H])([H])C(C([H])([H])[H])(C([H])([H])[H])C315)C([H])([H])C([H])([H])C4([H])C([H])([H])[H]

$$$$
115:0:1
     RDKit          3D

 91 99  0  0  1  0  0  0  0  0999 V2000
    2.7644   -7.8038    7.5536 C   0  0  0  0  0  0  0  0  0  0  0  0
    2.1342   -7.7587    6.2820 O   0  0  0  0  0  0  0  0  0  0  0  0
    2.8605   -7.1142    5.2325 C   0  0  1  0  0  0  0  0  0  0  0  0
    4.1747   -7.7671    4.8713 C   0  0  0  0  0  0  0  0  0  0  0  0
    4.9865   -6.9285    3.9052 C   0  0  0  0  0  0  0  0  0  0  0  0
    6.3880   -6.8857    4.0893 C   0  0  0  0  0  0  0  0  0  0  0  0
    7.2363   -6.2338    3.1729 C   0  0  0  0  0  0  0  0  0  0  0  0
    8.7510   -6.1962    3.4042 C   0  0  0  0  0  0  0  0  0  0  0  0
    9.5383   -5.5475    2.2476 C   0  0  0  0  0  0  0  0  0  0  0  0
    9.3207   -7.5911    3.7240 C   0  0  0  0  0  0  0  0  0  0  0  0
    6.6378   -5.6321    2.0470 C   0  0  0  0  0  0  0  0  0  0  0  0
    5.2480   -5.6516    1.8762 C   0  0  0  0  0  0  0  0  0  0  0  0
    4.3721   -6.2314    2.8287 C   0  0  0  0  0  0  0  0  0  0  0  0
    2.8240   -6.1849    2.6360 C   0  0  1  0  0  0  0  0  0  0  0  0
    2.4961   -7.4502    1.7937 C   0  0  0  0  0  0  0  0  0  0  0  0
    1.0056   -7.5874    1.4292 C   0  0  0  0  0  0  0  0  0  0  0  0
    0.0778   -7.0191    2.5058 C   0  0  0  0  0  0  0  0  0  0  0  0
    0.6600   -7.2003    3.9180 C   0  0  0  0  0  0  0  0  0  0  0  0
   -0.4420   -6.7224    4.9044 C   0  0  0  0  0  0  0  0  0  0  0  0
    0.7065   -8.7561    4.1387 C   0  0  0  0  0  0  0  0  0  0  0  0
    2.0877   -6.4552    4.0548 C   0  0  1  0  0  0  0  0  0  0  0  0
    2.6606   -5.6596    5.2842 C   0  0  1  0  0  0  0  0  0  0  0  0
    1.6906   -5.0571    6.1295 O   0  0  0  0  0  0  0  0  0  0  0  0
    2.0236   -3.5614    6.3069 O   0  0  0  0  0  0  0  0  0  0  0  0
    1.7118   -2.8283    5.1134 C   0  0  2  0  0  0  0  0  0  0  0  0
    0.4354   -3.4771    4.5168 C   0  0  0  0  0  0  0  0  0  0  0  0
    3.0606   -2.7935    4.3126 C   0  0  0  0  0  0  0  0  0  0  0  0
    2.9522   -2.3468    2.8676 C   0  0  1  0  0  0  0  0  0  0  0  0
    1.6881   -1.4574    2.6529 C   0  0  0  0  0  0  0  0  0  0  0  0
    1.2233   -0.6334    3.9033 C   0  0  0  0  0  0  0  0  0  0  0  0
    1.4021   -1.3191    5.3034 C   0  0  1  0  0  0  0  0  0  0  0  0
    0.2291   -1.0002    6.2533 C   0  0  0  0  0  0  0  0  0  0  0  0
    4.1584   -1.4991    2.3322 C   0  0  0  0  0  0  0  0  0  0  0  0
    4.2177   -1.9089    0.8739 C   0  0  0  0  0  0  0  0  0  0  0  0
    4.6891   -1.3868   -0.2779 N   0  0  0  0  0  0  0  0  0  0  0  0
    4.4564   -2.0409   -1.4658 C   0  0  0  0  0  0  0  0  0  0  0  0
    3.7096   -3.2666   -1.5169 C   0  0  0  0  0  0  0  0  0  0  0  0
    3.1988   -3.7906   -0.3025 C   0  0  0  0  0  0  0  0  0  0  0  0
    3.5083   -3.0766    0.8085 C   0  0  0  0  0  0  0  0  0  0  0  0
    3.0236   -3.5443    2.0043 N   0  0  0  0  0  0  0  0  0  0  0  0
    2.3452   -4.8498    1.7864 C   0  0  1  0  0  0  0  0  0  0  0  0
    2.4247   -4.9864    0.1974 C   0  0  0  0  0  0  0  0  0  0  0  0
    2.0695   -8.2475    8.2673 H   0  0  0  0  0  0  0  0  0  0  0  0
    3.0246   -6.8054    7.9088 H   0  0  0  0  0  0  0  0  0  0  0  0
    3.6581   -8.4295    7.5615 H   0  0  0  0  0  0  0  0  0  0  0  0
    4.7697   -7.9639    5.7610 H   0  0  0  0  0  0  0  0  0  0  0  0
    3.9788   -8.7313    4.4005 H   0  0  0  0  0  0  0  0  0  0  0  0
    6.8078   -7.3809    4.9516 H   0  0  0  0  0  0  0  0  0  0  0  0
    8.9079   -5.5699    4.2817 H   0  0  0  0  0  0  0  0  0  0  0  0
    9.2168   -4.5251    2.0588 H   0  0  0  0  0  0  0  0  0  0  0  0
    9.4138   -6.1202    1.3290 H   0  0  0  0  0  0  0  0  0  0  0  0
   10.6035   -5.4989    2.4734 H   0  0  0  0  0  0  0  0  0  0  0  0
    8.8418   -8.0564    4.5826 H   0  0  0  0  0  0  0  0  0  0  0  0
   10.3854   -7.5437    3.9528 H   0  0  0  0  0  0  0  0  0  0  0  0
    9.1915   -8.2677    2.8793 H   0  0  0  0  0  0  0  0  0  0  0  0
    7.2117   -5.1334    1.2811 H   0  0  0  0  0  0  0  0  0  0  0  0
    4.8874   -5.2036    0.9726 H   0  0  0  0  0  0  0  0  0  0  0  0
    3.1193   -7.5582    0.9103 H   0  0  0  0  0  0  0  0  0  0  0  0
    2.7973   -8.3286    2.3609 H   0  0  0  0  0  0  0  0  0  0  0  0
    0.7828   -7.1198    0.4740 H   0  0  0  0  0  0  0  0  0  0  0  0
    0.7962   -8.6467    1.3000 H   0  0  0  0  0  0  0  0  0  0  0  0
   -0.1225   -5.9717    2.3323 H   0  0  0  0  0  0  0  0  0  0  0  0
   -0.9065   -7.4845    2.4195 H   0  0  0  0  0  0  0  0  0  0  0  0
   -0.1191   -6.7153    5.9454 H   0  0  0  0  0  0  0  0  0  0  0  0
   -1.3029   -7.3957    4.8638 H   0  0  0  0  0  0  0  0  0  0  0  0
   -0.8469   -5.7501    4.6558 H   0  0  0  0  0  0  0  0  0  0  0  0
    0.4883   -9.0423    5.1701 H   0  0  0  0  0  0  0  0  0  0  0  0
    1.6566   -9.2199    3.8835 H   0  0  0  0  0  0  0  0  0  0  0  0
   -0.0577   -9.2713    3.5510 H   0  0  0  0  0  0  0  0  0  0  0  0
    3.6496   -5.2533    5.4664 H   0  0  0  0  0  0  0  0  0  0  0  0
   -0.1707   -2.8293    3.8933 H   0  0  0  0  0  0  0  0  0  0  0  0
   -0.2388   -3.7672    5.3253 H   0  0  0  0  0  0  0  0  0  0  0  0
    0.6676   -4.3520    3.9360 H   0  0  0  0  0  0  0  0  0  0  0  0
    3.7372   -2.1242    4.8385 H   0  0  0  0  0  0  0  0  0  0  0  0
    3.6440   -3.6939    4.2891 H   0  0  0  0  0  0  0  0  0  0  0  0
    1.8379   -0.7642    1.8247 H   0  0  0  0  0  0  0  0  0  0  0  0
    0.8801   -2.0824    2.2840 H   0  0  0  0  0  0  0  0  0  0  0  0
    1.7470    0.3240    3.9201 H   0  0  0  0  0  0  0  0  0  0  0  0
    0.1711   -0.3763    3.7516 H   0  0  0  0  0  0  0  0  0  0  0  0
    2.2725   -0.8618    5.7755 H   0  0  0  0  0  0  0  0  0  0  0  0
   -0.7255   -1.3646    5.8752 H   0  0  0  0  0  0  0  0  0  0  0  0
    0.1338    0.0795    6.3845 H   0  0  0  0  0  0  0  0  0  0  0  0
    0.3952   -1.4323    7.2403 H   0  0  0  0  0  0  0  0  0  0  0  0
    4.0447   -0.4223    2.4704 H   0  0  0  0  0  0  0  0  0  0  0  0
    5.0947   -1.8086    2.7980 H   0  0  0  0  0  0  0  0  0  0  0  0
    4.8663   -1.5798   -2.3507 H   0  0  0  0  0  0  0  0  0  0  0  0
    3.5340   -3.7862   -2.4419 H   0  0  0  0  0  0  0  0  0  0  0  0
    1.3145   -4.6404    2.0249 H   0  0  0  0  0  0  0  0  0  0  0  0
    1.4355   -5.0035   -0.2595 H   0  0  0  0  0  0  0  0  0  0  0  0
    2.9649   -5.8501   -0.1792 H   0  0  0  0  0  0  0  0  0  0  0  0
    5.1846   -0.4934   -0.2686 H   0  0  0  0  0  0  0  0  0  0  0  0
  1  2  1  0
  1 43  1  0
  1 44  1  0
  1 45  1  0
  3  2  1  1
  3 21  1  0
  3 22  1  0
  3  4  1  0
  4  5  1  0
  4 46  1  0
  4 47  1  0
  5 13  2  0
  5  6  1  0
  6  7  2  0
  6 48  1  0
  7  8  1  0
  7 11  1  0
  8  9  1  0
  8 10  1  0
  8 49  1  0
  9 50  1  0
  9 51  1  0
  9 52  1  0
 10 53  1  0
 10 54  1  0
 10 55  1  0
 11 12  2  0
 11 56  1  0
 12 13  1  0
 12 57  1  0
 13 14  1  0
 14 21  1  0
 14 41  1  0
 14 15  1  6
 15 16  1  0
 15 58  1  0
 15 59  1  0
 16 17  1  0
 16 60  1  0
 16 61  1  0
 17 18  1  0
 17 62  1  0
 17 63  1  0
 18 19  1  0
 18 20  1  0
 21 18  1  6
 19 64  1  0
 19 65  1  0
 19 66  1  0
 20 67  1  0
 20 68  1  0
 20 69  1  0
 21 22  1  0
 22 23  1  0
 22 70  1  6
 23 24  1  0
 24 25  1  0
 25 31  1  0
 25 26  1  6
 25 27  1  0
 26 71  1  0
 26 72  1  0
 26 73  1  0
 27 28  1  0
 27 74  1  0
 27 75  1  0
 28 40  1  0
 28 29  1  1
 28 33  1  0
 29 30  1  0
 29 76  1  0
 29 77  1  0
 30 31  1  0
 30 78  1  0
 30 79  1  0
 31 32  1  0
 31 80  1  1
 32 81  1  0
 32 82  1  0
 32 83  1  0
 33 34  1  0
 33 84  1  0
 33 85  1  0
 34 39  2  0
 34 35  1  0
 35 36  2  0
 35 91  1  0
 36 37  1  0
 36 86  1  0
 37 38  2  0
 37 87  1  0
 38 42  1  0
 38 39  1  0
 39 40  1  0
 40 41  1  0
 41 42  1  0
 41 88  1  6
 42 89  1  0
 42 90  1  0
M  CHG  1  35   1
M  END
>  <i_m_ct_stereo_status>  (354) 
1

>  <s_m_source_file>  (354) 
/var/tmp/pbs.5076255.sched01/tmphrhi8tfx/132_dydaaau.sdf

>  <i_m_source_file_index>  (354) 
35

>  <i_lp_mmshare_version>  (354) 
48012

>  <i_f3d_flags>  (354) 
0

>  <s_epik_input>  (354) 
W0NIM11bQ0hdKFtDSDNdKWMoW2NIXTEpW2NIXVtjSF1jMmMxW0NIMl1bQ0BdKE9bQ0gzXSkoW0NAQF0zKFtDQEBdMjQ1KUMoW0NIM10pKFtDSDNdKVtDSDJdW0NIMl1bQ0gyXTQpW0NAQEhdM09PW0NAXTYoW0NIM10pW0NIMl1bQ0BdNyhbQ0gyXVtDSDJdW0NASF02W0NIM10pTjhjOWMoW0NIMl03KW5bY0hdW2NIXWM5W0NIMl1bQ0BASF01OA==

>  <s_epik_cmdline>  (354) 
J2VwaWtfcHl0aG9uJywgJy1waHQnLCAnMi4wJywgJy1waCcsICc3LjAnLCAnLXRuJywgJzgnLCAnLW1hJywgJzIwMCcsICctaW1hZScsICc8aW5maWxlLm1hZT4nLCAnLW9tYWUnLCAnPG91dGZpbGUubWFlPic=

>  <r_lp_tautomer_probability>  (354) 
0.999846

>  <r_epik_Ionization_Penalty>  (354) 
0.0559621

>  <r_epik_Ionization_Penalty_Charging>  (354) 
0.0559621

>  <r_epik_Ionization_Penalty_Neutral>  (354) 
8.82267e-10

>  <r_epik_State_Penalty>  (354) 
0.0482402

>  <r_epik_Charging_Adjusted_Penalty>  (354) 
0.104202

>  <i_epik_Tot_Q>  (354) 
1

>  <i_epik_Tot_abs_Q>  (354) 
1

>  <s_lp_Force_Field>  (354) 
OPLS3e

>  <r_lp_Energy>  (354) 
198.199

>  <b_lp_Chiralities_Consistent>  (354) 
1

>  <s_lp_Variant>  (354) 
115:0-1

>  <s_i_glide_gridfile>  (354) 
pfpi4k_grid

>  <i_i_glide_lignum>  (354) 
35

>  <i_i_glide_rotatable_bonds>  (354) 
2

>  <r_i_docking_score>  (354) 
-2.03

>  <r_i_glide_ligand_efficiency>  (354) 
-0.0483334

>  <r_i_glide_ligand_efficiency_sa>  (354) 
-0.168008

>  <r_i_glide_ligand_efficiency_ln>  (354) 
-0.428481

>  <r_i_glide_gscore>  (354) 
-2.03

>  <r_i_glide_lipo>  (354) 
-0.113748

>  <r_i_glide_hbond>  (354) 
0

>  <r_i_glide_metal>  (354) 
-0

>  <r_i_glide_rewards>  (354) 
0

>  <r_i_glide_evdw>  (354) 
-27.8938

>  <r_i_glide_ecoul>  (354) 
-3.30887

>  <r_i_glide_erotb>  (354) 
0

>  <r_i_glide_esite>  (354) 
-0.0252335

>  <r_i_glide_emodel>  (354) 
-34.8021

>  <r_i_glide_energy>  (354) 
-31.2027

>  <r_i_glide_einternal>  (354) 
2.48632

>  <r_i_glide_intrahb_reward>  (354) 
-0

>  <i_i_glide_confnum>  (354) 
2

>  <i_i_glide_posenum>  (354) 
7

>  <r_i_glide_eff_state_penalty>  (354) 
0

>  <ligand_id>  (354) 
115

>  <original_smiles>  (354) 
COC12Cc3cc(C(C)C)ccc3C34CCCC(C)(C)C13C2OOC1(C)CC2(CCC1C)Cc1nccc3c1N2C4C3

>  <smiles>  (354) 
[H]c1c([H])c2c(c([H])c1C([H])(C([H])([H])[H])C([H])([H])[H])C([H])([H])C1(OC([H])([H])[H])C3([H])OOC4(C([H])([H])[H])C([H])([H])C5(N6c7c(c([H])c([H])[n+]([H])c7C5([H])[H])C([H])([H])C6([H])C25C([H])([H])C([H])([H])C([H])([H])C(C([H])([H])[H])(C([H])([H])[H])C315)C([H])([H])C([H])([H])C4([H])C([H])([H])[H]

$$$$
115:0:2
     RDKit          3D

 91 99  0  0  1  0  0  0  0  0999 V2000
    1.7527   -8.0334    8.1461 C   0  0  0  0  0  0  0  0  0  0  0  0
    1.3672   -7.9810    6.7802 O   0  0  0  0  0  0  0  0  0  0  0  0
    2.3630   -7.5480    5.8488 C   0  0  1  0  0  0  0  0  0  0  0  0
    3.6090   -8.4045    5.7902 C   0  0  0  0  0  0  0  0  0  0  0  0
    4.7050   -7.7782    4.9491 C   0  0  0  0  0  0  0  0  0  0  0  0
    6.0406   -7.9188    5.3995 C   0  0  0  0  0  0  0  0  0  0  0  0
    7.1264   -7.4537    4.6361 C   0  0  0  0  0  0  0  0  0  0  0  0
    8.5579   -7.6097    5.1401 C   0  0  0  0  0  0  0  0  0  0  0  0
    9.3108   -6.2685    5.1730 C   0  0  0  0  0  0  0  0  0  0  0  0
    9.3294   -8.6708    4.3420 C   0  0  0  0  0  0  0  0  0  0  0  0
    6.8581   -6.8842    3.3800 C   0  0  0  0  0  0  0  0  0  0  0  0
    5.5321   -6.7330    2.9349 C   0  0  0  0  0  0  0  0  0  0  0  0
    4.4118   -7.1000    3.7302 C   0  0  0  0  0  0  0  0  0  0  0  0
    2.9400   -6.8634    3.2391 C   0  0  1  0  0  0  0  0  0  0  0  0
    2.5780   -8.1472    2.4360 C   0  0  0  0  0  0  0  0  0  0  0  0
    1.1722   -8.1141    1.8022 C   0  0  0  0  0  0  0  0  0  0  0  0
    0.1614   -7.3251    2.6382 C   0  0  0  0  0  0  0  0  0  0  0  0
    0.4488   -7.4531    4.1438 C   0  0  0  0  0  0  0  0  0  0  0  0
   -0.7256   -6.7399    4.8661 C   0  0  0  0  0  0  0  0  0  0  0  0
    0.2170   -8.9730    4.4712 C   0  0  0  0  0  0  0  0  0  0  0  0
    1.9251   -6.9001    4.5045 C   0  0  1  0  0  0  0  0  0  0  0  0
    2.3773   -6.0812    5.7686 C   0  0  1  0  0  0  0  0  0  0  0  0
    1.3708   -5.2755    6.3680 O   0  0  0  0  0  0  0  0  0  0  0  0
    1.8882   -3.8287    6.5091 O   0  0  0  0  0  0  0  0  0  0  0  0
    1.9109   -3.1739    5.2328 C   0  0  2  0  0  0  0  0  0  0  0  0
    0.6805   -3.6966    4.4449 C   0  0  0  0  0  0  0  0  0  0  0  0
    3.3716   -3.3989    4.7067 C   0  0  0  0  0  0  0  0  0  0  0  0
    3.5946   -3.0754    3.2429 C   0  0  1  0  0  0  0  0  0  0  0  0
    2.5402   -2.0471    2.7299 C   0  0  0  0  0  0  0  0  0  0  0  0
    1.9877   -1.0558    3.8107 C   0  0  0  0  0  0  0  0  0  0  0  0
    1.8055   -1.6257    5.2608 C   0  0  1  0  0  0  0  0  0  0  0  0
    0.5418   -1.0627    5.9428 C   0  0  0  0  0  0  0  0  0  0  0  0
    4.9943   -2.4550    2.8974 C   0  0  0  0  0  0  0  0  0  0  0  0
    5.2597   -3.0054    1.5111 C   0  0  0  0  0  0  0  0  0  0  0  0
    6.0129   -2.6640    0.4437 N   0  0  0  0  0  0  0  0  0  0  0  0
    5.9016   -3.3840   -0.7236 C   0  0  0  0  0  0  0  0  0  0  0  0
    4.9951   -4.4903   -0.8397 C   0  0  0  0  0  0  0  0  0  0  0  0
    4.1970   -4.8287    0.2831 C   0  0  0  0  0  0  0  0  0  0  0  0
    4.4033   -4.0646    1.3849 C   0  0  0  0  0  0  0  0  0  0  0  0
    3.6365   -4.3440    2.4880 N   0  0  0  0  0  0  0  0  0  0  0  0
    2.8189   -5.5584    2.2262 C   0  0  1  0  0  0  0  0  0  0  0  0
    3.1671   -5.8514    0.6982 C   0  0  0  0  0  0  0  0  0  0  0  0
    0.8821   -8.3047    8.7445 H   0  0  0  0  0  0  0  0  0  0  0  0
    2.1169   -7.0655    8.4938 H   0  0  0  0  0  0  0  0  0  0  0  0
    2.5106   -8.7927    8.3448 H   0  0  0  0  0  0  0  0  0  0  0  0
    3.9964   -8.5968    6.7890 H   0  0  0  0  0  0  0  0  0  0  0  0
    3.3539   -9.3720    5.3559 H   0  0  0  0  0  0  0  0  0  0  0  0
    6.2359   -8.4056    6.3436 H   0  0  0  0  0  0  0  0  0  0  0  0
    8.4984   -7.9609    6.1698 H   0  0  0  0  0  0  0  0  0  0  0  0
    8.7706   -5.5268    5.7604 H   0  0  0  0  0  0  0  0  0  0  0  0
    9.4543   -5.8596    4.1732 H   0  0  0  0  0  0  0  0  0  0  0  0
   10.2982   -6.3831    5.6212 H   0  0  0  0  0  0  0  0  0  0  0  0
    8.8001   -9.6220    4.3424 H   0  0  0  0  0  0  0  0  0  0  0  0
   10.3151   -8.8445    4.7732 H   0  0  0  0  0  0  0  0  0  0  0  0
    9.4718   -8.3702    3.3041 H   0  0  0  0  0  0  0  0  0  0  0  0
    7.6712   -6.5621    2.7443 H   0  0  0  0  0  0  0  0  0  0  0  0
    5.4102   -6.3317    1.9487 H   0  0  0  0  0  0  0  0  0  0  0  0
    3.3229   -8.4230    1.6944 H   0  0  0  0  0  0  0  0  0  0  0  0
    2.6359   -9.0012    3.1077 H   0  0  0  0  0  0  0  0  0  0  0  0
    1.1980   -7.7029    0.7981 H   0  0  0  0  0  0  0  0  0  0  0  0
    0.8254   -9.1408    1.6896 H   0  0  0  0  0  0  0  0  0  0  0  0
    0.1544   -6.2798    2.3582 H   0  0  0  0  0  0  0  0  0  0  0  0
   -0.8503   -7.6590    2.3946 H   0  0  0  0  0  0  0  0  0  0  0  0
   -0.5857   -6.6682    5.9440 H   0  0  0  0  0  0  0  0  0  0  0  0
   -1.6589   -7.2892    4.7111 H   0  0  0  0  0  0  0  0  0  0  0  0
   -0.9272   -5.7524    4.4762 H   0  0  0  0  0  0  0  0  0  0  0  0
   -0.2259   -9.1318    5.4569 H   0  0  0  0  0  0  0  0  0  0  0  0
    1.1148   -9.5852    4.4352 H   0  0  0  0  0  0  0  0  0  0  0  0
   -0.4976   -9.4330    3.7835 H   0  0  0  0  0  0  0  0  0  0  0  0
    3.3662   -5.7966    6.1105 H   0  0  0  0  0  0  0  0  0  0  0  0
    0.3028   -3.0350    3.6734 H   0  0  0  0  0  0  0  0  0  0  0  0
   -0.1666   -3.8152    5.1233 H   0  0  0  0  0  0  0  0  0  0  0  0
    0.8822   -4.6442    3.9770 H   0  0  0  0  0  0  0  0  0  0  0  0
    4.0351   -2.7818    5.3077 H   0  0  0  0  0  0  0  0  0  0  0  0
    3.8083   -4.3681    4.8549 H   0  0  0  0  0  0  0  0  0  0  0  0
    2.9438   -1.4596    1.9051 H   0  0  0  0  0  0  0  0  0  0  0  0
    1.7275   -2.5859    2.2484 H   0  0  0  0  0  0  0  0  0  0  0  0
    2.6391   -0.1824    3.8645 H   0  0  0  0  0  0  0  0  0  0  0  0
    1.0329   -0.6706    3.4424 H   0  0  0  0  0  0  0  0  0  0  0  0
    2.6358   -1.2496    5.8607 H   0  0  0  0  0  0  0  0  0  0  0  0
   -0.3735   -1.3259    5.4132 H   0  0  0  0  0  0  0  0  0  0  0  0
    0.5885    0.0270    5.9827 H   0  0  0  0  0  0  0  0  0  0  0  0
    0.4588   -1.4190    6.9695 H   0  0  0  0  0  0  0  0  0  0  0  0
    5.0246   -1.3649    2.9393 H   0  0  0  0  0  0  0  0  0  0  0  0
    5.7724   -2.8452    3.5529 H   0  0  0  0  0  0  0  0  0  0  0  0
    6.5331   -3.0735   -1.5428 H   0  0  0  0  0  0  0  0  0  0  0  0
    4.9169   -5.0525   -1.7540 H   0  0  0  0  0  0  0  0  0  0  0  0
    1.8032   -5.1849    2.2170 H   0  0  0  0  0  0  0  0  0  0  0  0
    2.2826   -5.7633    0.0675 H   0  0  0  0  0  0  0  0  0  0  0  0
    3.6228   -6.8141    0.4879 H   0  0  0  0  0  0  0  0  0  0  0  0
    6.6441   -1.8634    0.5009 H   0  0  0  0  0  0  0  0  0  0  0  0
  1  2  1  0
  1 43  1  0
  1 44  1  0
  1 45  1  0
  3  2  1  1
  3 21  1  0
  3 22  1  0
  3  4  1  0
  4  5  1  0
  4 46  1  0
  4 47  1  0
  5 13  2  0
  5  6  1  0
  6  7  2  0
  6 48  1  0
  7  8  1  0
  7 11  1  0
  8  9  1  0
  8 10  1  0
  8 49  1  0
  9 50  1  0
  9 51  1  0
  9 52  1  0
 10 53  1  0
 10 54  1  0
 10 55  1  0
 11 12  2  0
 11 56  1  0
 12 13  1  0
 12 57  1  0
 13 14  1  0
 14 21  1  0
 14 41  1  0
 14 15  1  6
 15 16  1  0
 15 58  1  0
 15 59  1  0
 16 17  1  0
 16 60  1  0
 16 61  1  0
 17 18  1  0
 17 62  1  0
 17 63  1  0
 18 19  1  0
 18 20  1  0
 21 18  1  6
 19 64  1  0
 19 65  1  0
 19 66  1  0
 20 67  1  0
 20 68  1  0
 20 69  1  0
 21 22  1  0
 22 23  1  0
 22 70  1  6
 23 24  1  0
 24 25  1  0
 25 31  1  0
 25 26  1  6
 25 27  1  0
 26 71  1  0
 26 72  1  0
 26 73  1  0
 27 28  1  0
 27 74  1  0
 27 75  1  0
 28 40  1  0
 28 29  1  6
 28 33  1  0
 29 30  1  0
 29 76  1  0
 29 77  1  0
 30 31  1  0
 30 78  1  0
 30 79  1  0
 31 32  1  0
 31 80  1  1
 32 81  1  0
 32 82  1  0
 32 83  1  0
 33 34  1  0
 33 84  1  0
 33 85  1  0
 34 39  2  0
 34 35  1  0
 35 36  2  0
 35 91  1  0
 36 37  1  0
 36 86  1  0
 37 38  2  0
 37 87  1  0
 38 42  1  0
 38 39  1  0
 39 40  1  0
 40 41  1  0
 41 42  1  0
 41 88  1  6
 42 89  1  0
 42 90  1  0
M  CHG  1  35   1
M  END
>  <i_m_ct_stereo_status>  (355) 
1

>  <s_m_source_file>  (355) 
/var/tmp/pbs.5076255.sched01/tmphrhi8tfx/132_dydaaau.sdf

>  <i_m_source_file_index>  (355) 
35

>  <i_lp_mmshare_version>  (355) 
48012

>  <i_f3d_flags>  (355) 
0

>  <s_epik_input>  (355) 
W0NIM11bQ0hdKFtDSDNdKWMoW2NIXTEpW2NIXVtjSF1jMmMxW0NIMl1bQ0BdKE9bQ0gzXSkoW0NAQF0zKFtDQEBdMjQ1KUMoW0NIM10pKFtDSDNdKVtDSDJdW0NIMl1bQ0gyXTQpW0NAQEhdM09PW0NAXTYoW0NIM10pW0NIMl1bQ0BdNyhbQ0gyXVtDSDJdW0NASF02W0NIM10pTjhjOWMoW0NIMl03KW5bY0hdW2NIXWM5W0NIMl1bQ0BASF01OA==

>  <s_epik_cmdline>  (355) 
J2VwaWtfcHl0aG9uJywgJy1waHQnLCAnMi4wJywgJy1waCcsICc3LjAnLCAnLXRuJywgJzgnLCAnLW1hJywgJzIwMCcsICctaW1hZScsICc8aW5maWxlLm1hZT4nLCAnLW9tYWUnLCAnPG91dGZpbGUubWFlPic=

>  <r_lp_tautomer_probability>  (355) 
0.999846

>  <r_epik_Ionization_Penalty>  (355) 
0.0559621

>  <r_epik_Ionization_Penalty_Charging>  (355) 
0.0559621

>  <r_epik_Ionization_Penalty_Neutral>  (355) 
8.82267e-10

>  <r_epik_State_Penalty>  (355) 
0.0482402

>  <r_epik_Charging_Adjusted_Penalty>  (355) 
0.104202

>  <i_epik_Tot_Q>  (355) 
1

>  <i_epik_Tot_abs_Q>  (355) 
1

>  <s_lp_Force_Field>  (355) 
OPLS3e

>  <r_lp_Energy>  (355) 
198.199

>  <b_lp_Chiralities_Consistent>  (355) 
1

>  <s_lp_Variant>  (355) 
115:0-1

>  <s_i_glide_gridfile>  (355) 
pfpi4k_grid

>  <i_i_glide_lignum>  (355) 
35

>  <i_i_glide_rotatable_bonds>  (355) 
2

>  <r_i_docking_score>  (355) 
-1.99825

>  <r_i_glide_ligand_efficiency>  (355) 
-0.0475775

>  <r_i_glide_ligand_efficiency_sa>  (355) 
-0.165381

>  <r_i_glide_ligand_efficiency_ln>  (355) 
-0.42178

>  <r_i_glide_gscore>  (355) 
-1.99825

>  <r_i_glide_lipo>  (355) 
-0.288487

>  <r_i_glide_hbond>  (355) 
0

>  <r_i_glide_metal>  (355) 
-0

>  <r_i_glide_rewards>  (355) 
-2.11073e-05

>  <r_i_glide_evdw>  (355) 
-25.1062

>  <r_i_glide_ecoul>  (355) 
-3.02955

>  <r_i_glide_erotb>  (355) 
0

>  <r_i_glide_esite>  (355) 
0

>  <r_i_glide_emodel>  (355) 
-32.9578

>  <r_i_glide_energy>  (355) 
-28.1358

>  <r_i_glide_einternal>  (355) 
0.0620945

>  <r_i_glide_intrahb_reward>  (355) 
-0

>  <i_i_glide_confnum>  (355) 
2

>  <i_i_glide_posenum>  (355) 
12

>  <r_i_glide_eff_state_penalty>  (355) 
0

>  <ligand_id>  (355) 
115

>  <original_smiles>  (355) 
COC12Cc3cc(C(C)C)ccc3C34CCCC(C)(C)C13C2OOC1(C)CC2(CCC1C)Cc1nccc3c1N2C4C3

>  <smiles>  (355) 
[H]c1c([H])c2c(c([H])c1C([H])(C([H])([H])[H])C([H])([H])[H])C([H])([H])C1(OC([H])([H])[H])C3([H])OOC4(C([H])([H])[H])C([H])([H])C5(N6c7c(c([H])c([H])[n+]([H])c7C5([H])[H])C([H])([H])C6([H])C25C([H])([H])C([H])([H])C([H])([H])C(C([H])([H])[H])(C([H])([H])[H])C315)C([H])([H])C([H])([H])C4([H])C([H])([H])[H]

$$$$
116:0:0
     RDKit          3D

 82 88  0  0  1  0  0  0  0  0999 V2000
    4.7330   -0.7039   -2.2562 C   0  0  0  0  0  0  0  0  0  0  0  0
    4.4266   -1.1361   -0.9477 O   0  0  0  0  0  0  0  0  0  0  0  0
    5.5340   -1.4837   -0.1248 C   0  0  1  0  0  0  0  0  0  0  0  0
    6.1387   -0.3058    0.6283 C   0  0  0  0  0  0  0  0  0  0  0  0
    5.0070   -2.5491    0.8465 C   0  0  0  0  0  0  0  0  0  0  0  0
    5.7590   -3.8429    0.5239 C   0  0  2  0  0  0  0  0  0  0  0  0
    6.1140   -3.6020   -0.8143 O   0  0  0  0  0  0  0  0  0  0  0  0
    6.5473   -2.1664   -0.8041 O   0  0  0  0  0  0  0  0  0  0  0  0
    4.8763   -4.9257    0.7086 O   0  0  0  0  0  0  0  0  0  0  0  0
    5.4385   -6.2067    0.4795 C   0  0  2  0  0  0  0  0  0  0  0  0
    4.3642   -7.2882    0.6481 C   0  0  0  0  0  0  0  0  0  0  0  0
    4.8404   -8.2337    1.7729 C   0  0  2  0  0  0  0  0  0  0  0  0
    5.5601   -9.2840    1.1336 O   0  0  0  0  0  0  0  0  0  0  0  0
    3.6957   -8.9008    2.6038 C   0  0  2  0  0  0  0  0  0  0  0  0
    2.6308   -9.5485    1.6867 C   0  0  0  0  0  0  0  0  0  0  0  0
    1.4547  -10.2012    2.4316 C   0  0  0  0  0  0  0  0  0  0  0  0
    0.7700   -9.2733    3.4385 C   0  0  2  0  0  0  0  0  0  0  0  0
   -0.3404   -8.3102    2.8341 C   0  0  0  0  0  0  0  0  0  0  0  0
    0.0870   -7.3747    1.6792 C   0  0  0  0  0  0  0  0  0  0  0  0
   -1.5393   -9.1437    2.2937 C   0  0  0  0  0  0  0  0  0  0  0  0
   -0.8764   -7.3920    3.9369 C   0  0  1  0  0  0  0  0  0  0  0  0
   -1.7323   -8.1267    4.8028 O   0  0  0  0  0  0  0  0  0  0  0  0
    0.2099   -6.7077    4.7714 C   0  0  0  0  0  0  0  0  0  0  0  0
    1.1247   -7.7408    5.4307 C   0  0  0  0  0  0  0  0  0  0  0  0
    1.8376   -8.6754    4.4269 C   0  0  1  0  0  0  0  0  0  0  0  0
    2.3786   -9.8543    5.2930 C   0  0  0  0  0  0  0  0  0  0  0  0
    2.9996   -7.9599    3.6216 C   0  0  1  0  0  0  0  0  0  0  0  0
    4.0154   -7.1240    4.4417 C   0  0  1  0  0  0  0  0  0  0  0  0
    4.6831   -7.8631    5.4352 O   0  0  0  0  0  0  0  0  0  0  0  0
    5.0565   -6.4241    3.5472 C   0  0  0  0  0  0  0  0  0  0  0  0
    5.8467   -7.3658    2.5880 C   0  0  1  0  0  0  0  0  0  0  0  0
    6.8837   -8.1997    3.3823 C   0  0  0  0  0  0  0  0  0  0  0  0
    6.5610   -6.5704    1.4644 C   0  0  2  0  0  0  0  0  0  0  0  0
    7.3841   -5.3777    1.8986 C   0  0  1  0  0  0  0  0  0  0  0  0
    8.2585   -4.6706    0.8757 C   0  0  0  0  0  0  0  0  0  0  0  0
    7.0017   -4.0154    1.3857 C   0  0  1  0  0  0  0  0  0  0  0  0
    3.8307   -0.4019   -2.7756 H   0  0  0  0  0  0  0  0  0  0  0  0
    5.1836   -1.5239   -2.8130 H   0  0  0  0  0  0  0  0  0  0  0  0
    5.4150    0.1388   -2.2489 H   0  0  0  0  0  0  0  0  0  0  0  0
    6.6186    0.4154   -0.0176 H   0  0  0  0  0  0  0  0  0  0  0  0
    6.9035   -0.6583    1.3090 H   0  0  0  0  0  0  0  0  0  0  0  0
    5.3799    0.2219    1.2082 H   0  0  0  0  0  0  0  0  0  0  0  0
    5.1225   -2.2633    1.8981 H   0  0  0  0  0  0  0  0  0  0  0  0
    3.9355   -2.6963    0.6847 H   0  0  0  0  0  0  0  0  0  0  0  0
    5.8121   -6.1926   -0.5343 H   0  0  0  0  0  0  0  0  0  0  0  0
    3.4210   -6.8055    0.8987 H   0  0  0  0  0  0  0  0  0  0  0  0
    4.2096   -7.8135   -0.2921 H   0  0  0  0  0  0  0  0  0  0  0  0
    4.9564   -9.9740    0.8842 H   0  0  0  0  0  0  0  0  0  0  0  0
    4.1828   -9.6949    3.1699 H   0  0  0  0  0  0  0  0  0  0  0  0
    2.2724   -8.8449    0.9478 H   0  0  0  0  0  0  0  0  0  0  0  0
    3.1168  -10.3011    1.0990 H   0  0  0  0  0  0  0  0  0  0  0  0
    0.7028  -10.5719    1.7464 H   0  0  0  0  0  0  0  0  0  0  0  0
    1.8160  -11.0933    2.9370 H   0  0  0  0  0  0  0  0  0  0  0  0
    0.1720   -9.9561    4.0453 H   0  0  0  0  0  0  0  0  0  0  0  0
   -0.7697   -6.8026    1.3181 H   0  0  0  0  0  0  0  0  0  0  0  0
    0.4492   -7.8972    0.8044 H   0  0  0  0  0  0  0  0  0  0  0  0
    0.8370   -6.6421    1.9594 H   0  0  0  0  0  0  0  0  0  0  0  0
   -2.4054   -8.5163    2.0842 H   0  0  0  0  0  0  0  0  0  0  0  0
   -1.8607   -9.8840    3.0225 H   0  0  0  0  0  0  0  0  0  0  0  0
   -1.3368   -9.6950    1.3794 H   0  0  0  0  0  0  0  0  0  0  0  0
   -1.5116   -6.6249    3.5064 H   0  0  0  0  0  0  0  0  0  0  0  0
   -1.4481   -9.0299    4.8488 H   0  0  0  0  0  0  0  0  0  0  0  0
    0.7971   -6.0315    4.1550 H   0  0  0  0  0  0  0  0  0  0  0  0
   -0.2442   -6.0866    5.5431 H   0  0  0  0  0  0  0  0  0  0  0  0
    1.8412   -7.2398    6.0820 H   0  0  0  0  0  0  0  0  0  0  0  0
    0.5157   -8.3447    6.1055 H   0  0  0  0  0  0  0  0  0  0  0  0
    2.9543   -9.5221    6.1556 H   0  0  0  0  0  0  0  0  0  0  0  0
    3.0032  -10.5551    4.7439 H   0  0  0  0  0  0  0  0  0  0  0  0
    1.5628  -10.4511    5.7102 H   0  0  0  0  0  0  0  0  0  0  0  0
    2.5182   -7.2045    3.0164 H   0  0  0  0  0  0  0  0  0  0  0  0
    3.4715   -6.3305    4.9559 H   0  0  0  0  0  0  0  0  0  0  0  0
    4.0339   -8.3330    5.9375 H   0  0  0  0  0  0  0  0  0  0  0  0
    4.5041   -5.6909    2.9700 H   0  0  0  0  0  0  0  0  0  0  0  0
    5.7366   -5.8406    4.1695 H   0  0  0  0  0  0  0  0  0  0  0  0
    7.4431   -7.5701    4.0756 H   0  0  0  0  0  0  0  0  0  0  0  0
    7.6090   -8.6745    2.7191 H   0  0  0  0  0  0  0  0  0  0  0  0
    6.4089   -8.9954    3.9547 H   0  0  0  0  0  0  0  0  0  0  0  0
    7.2450   -7.2530    0.9543 H   0  0  0  0  0  0  0  0  0  0  0  0
    7.8322   -5.4541    2.8874 H   0  0  0  0  0  0  0  0  0  0  0  0
    9.1982   -4.2630    1.2362 H   0  0  0  0  0  0  0  0  0  0  0  0
    8.2660   -5.0425   -0.1490 H   0  0  0  0  0  0  0  0  0  0  0  0
    7.1583   -3.1796    2.0522 H   0  0  0  0  0  0  0  0  0  0  0  0
  1  2  1  0
  1 37  1  0
  1 38  1  0
  1 39  1  0
  3  2  1  6
  3  8  1  0
  3  4  1  0
  3  5  1  0
  4 40  1  0
  4 41  1  0
  4 42  1  0
  5  6  1  0
  5 43  1  0
  5 44  1  0
  6 36  1  0
  6  7  1  6
  6  9  1  0
  7  8  1  0
  9 10  1  0
 10 33  1  0
 10 11  1  0
 10 45  1  6
 11 12  1  0
 11 46  1  0
 11 47  1  0
 12 31  1  0
 12 13  1  6
 12 14  1  0
 13 48  1  0
 14 27  1  0
 14 15  1  0
 14 49  1  1
 15 16  1  0
 15 50  1  0
 15 51  1  0
 16 17  1  0
 16 52  1  0
 16 53  1  0
 17 25  1  0
 17 18  1  0
 17 54  1  1
 18 19  1  0
 18 20  1  0
 18 21  1  0
 19 55  1  0
 19 56  1  0
 19 57  1  0
 20 58  1  0
 20 59  1  0
 20 60  1  0
 21 22  1  0
 21 23  1  0
 21 61  1  6
 22 62  1  0
 23 24  1  0
 23 63  1  0
 23 64  1  0
 24 25  1  0
 24 65  1  0
 24 66  1  0
 25 26  1  1
 25 27  1  0
 26 67  1  0
 26 68  1  0
 26 69  1  0
 27 28  1  0
 27 70  1  6
 28 29  1  0
 28 30  1  0
 28 71  1  1
 29 72  1  0
 30 31  1  0
 30 73  1  0
 30 74  1  0
 31 32  1  1
 31 33  1  0
 32 75  1  0
 32 76  1  0
 32 77  1  0
 33 34  1  0
 33 78  1  6
 34 36  1  0
 34 35  1  0
 34 79  1  1
 35 36  1  0
 35 80  1  0
 35 81  1  0
 36 82  1  1
M  END
>  <i_m_ct_stereo_status>  (356) 
1

>  <s_m_source_file>  (356) 
/var/tmp/pbs.5076255.sched01/tmphrhi8tfx/132_dydaaau.sdf

>  <i_m_source_file_index>  (356) 
37

>  <i_lp_mmshare_version>  (356) 
48012

>  <i_f3d_flags>  (356) 
0

>  <s_epik_input>  (356) 
W0NIM11PW0NAXShbQ0gzXSkoT08xKVtDSDJdW0NAXTEyW0NASF0zW0NASF0oW0NIMl0zKVtDQEBIXTRbQ0BIXShPMilbQ0gyXVtDQF01KFtPSF0pW0NASF02W0NASF0oW0NAQEhdKFtPSF0pW0NIMl1bQ0BdNDVbQ0gzXSlbQ0BdNyhbQ0gzXSlbQ0BIXShbQ0gyXVtDSDJdNilDKFtDSDNdKShbQ0gzXSlbQ0BASF0oW09IXSlbQ0gyXVtDSDJdNw==

>  <s_epik_cmdline>  (356) 
J2VwaWtfcHl0aG9uJywgJy1waHQnLCAnMi4wJywgJy1waCcsICc3LjAnLCAnLXRuJywgJzgnLCAnLW1hJywgJzIwMCcsICctaW1hZScsICc8aW5maWxlLm1hZT4nLCAnLW9tYWUnLCAnPG91dGZpbGUubWFlPic=

>  <r_lp_tautomer_probability>  (356) 
1

>  <r_epik_Ionization_Penalty>  (356) 
4.28578e-06

>  <r_epik_Ionization_Penalty_Charging>  (356) 
0

>  <r_epik_Ionization_Penalty_Neutral>  (356) 
4.28578e-06

>  <r_epik_State_Penalty>  (356) 
-0

>  <r_epik_Charging_Adjusted_Penalty>  (356) 
0

>  <i_epik_Tot_Q>  (356) 
0

>  <i_epik_Tot_abs_Q>  (356) 
0

>  <s_lp_Force_Field>  (356) 
OPLS3e

>  <r_lp_Energy>  (356) 
64.0096

>  <b_lp_Chiralities_Consistent>  (356) 
1

>  <s_lp_Variant>  (356) 
116:0-1

>  <s_i_glide_gridfile>  (356) 
pfpi4k_grid

>  <i_i_glide_lignum>  (356) 
37

>  <i_i_glide_rotatable_bonds>  (356) 
4

>  <r_i_docking_score>  (356) 
-3.19835

>  <r_i_glide_ligand_efficiency>  (356) 
-0.0888429

>  <r_i_glide_ligand_efficiency_sa>  (356) 
-0.293353

>  <r_i_glide_ligand_efficiency_ln>  (356) 
-0.697793

>  <r_i_glide_gscore>  (356) 
-3.19835

>  <r_i_glide_lipo>  (356) 
-1.15879

>  <r_i_glide_hbond>  (356) 
-0.224463

>  <r_i_glide_metal>  (356) 
-0

>  <r_i_glide_rewards>  (356) 
-0.0953525

>  <r_i_glide_evdw>  (356) 
-22.2877

>  <r_i_glide_ecoul>  (356) 
-3.96174

>  <r_i_glide_erotb>  (356) 
0

>  <r_i_glide_esite>  (356) 
-0.0111

>  <r_i_glide_emodel>  (356) 
-28.7825

>  <r_i_glide_energy>  (356) 
-26.2494

>  <r_i_glide_einternal>  (356) 
3.91573

>  <r_i_glide_intrahb_reward>  (356) 
-0

>  <i_i_glide_confnum>  (356) 
4

>  <i_i_glide_posenum>  (356) 
13

>  <r_i_glide_eff_state_penalty>  (356) 
0

>  <ligand_id>  (356) 
116

>  <original_smiles>  (356) 
COC1(C)CC2(OO1)OC1CC3(O)C4CCC5C(C)(C)C(O)CCC5(C)C4C(O)CC3(C)C1C1CC12

>  <smiles>  (356) 
[H]OC1([H])C([H])([H])C2(C([H])([H])[H])C3([H])C([H])(OC4(OOC(OC([H])([H])[H])(C([H])([H])[H])C4([H])[H])C4([H])C([H])([H])C43[H])C([H])([H])C2(O[H])C2([H])C([H])([H])C([H])([H])C3([H])C(C([H])([H])[H])(C([H])([H])[H])C([H])(O[H])C([H])([H])C([H])([H])C3(C([H])([H])[H])C12[H]

$$$$
116:0:1
     RDKit          3D

 82 88  0  0  1  0  0  0  0  0999 V2000
    3.4937    0.1856    1.1682 C   0  0  0  0  0  0  0  0  0  0  0  0
    4.2206   -0.2547    0.0231 O   0  0  0  0  0  0  0  0  0  0  0  0
    5.1957   -1.2715    0.1843 C   0  0  1  0  0  0  0  0  0  0  0  0
    6.4630   -0.6247    0.7157 C   0  0  0  0  0  0  0  0  0  0  0  0
    4.6737   -2.4486    0.9902 C   0  0  0  0  0  0  0  0  0  0  0  0
    5.5441   -3.6255    0.5683 C   0  0  2  0  0  0  0  0  0  0  0  0
    5.9143   -3.3156   -0.7700 O   0  0  0  0  0  0  0  0  0  0  0  0
    5.4930   -1.9255   -1.0736 O   0  0  0  0  0  0  0  0  0  0  0  0
    4.7145   -4.7684    0.6824 O   0  0  0  0  0  0  0  0  0  0  0  0
    5.3631   -6.0063    0.4384 C   0  0  2  0  0  0  0  0  0  0  0  0
    4.3288   -7.1187    0.6143 C   0  0  0  0  0  0  0  0  0  0  0  0
    4.8447   -8.0480    1.7268 C   0  0  2  0  0  0  0  0  0  0  0  0
    5.6100   -9.0550    1.0879 O   0  0  0  0  0  0  0  0  0  0  0  0
    3.7362   -8.7827    2.5540 C   0  0  2  0  0  0  0  0  0  0  0  0
    2.6979   -9.4732    1.6254 C   0  0  0  0  0  0  0  0  0  0  0  0
    1.5551  -10.1746    2.3793 C   0  0  0  0  0  0  0  0  0  0  0  0
    0.8325   -9.2996    3.4043 C   0  0  2  0  0  0  0  0  0  0  0  0
   -0.3266   -8.3826    2.8198 C   0  0  0  0  0  0  0  0  0  0  0  0
    0.0510   -7.3959    1.6856 C   0  0  0  0  0  0  0  0  0  0  0  0
   -1.4968   -9.2545    2.2805 C   0  0  0  0  0  0  0  0  0  0  0  0
   -0.9001   -7.5151    3.9669 C   0  0  1  0  0  0  0  0  0  0  0  0
   -1.7012   -8.2790    4.8352 O   0  0  0  0  0  0  0  0  0  0  0  0
    0.1682   -6.7947    4.7924 C   0  0  0  0  0  0  0  0  0  0  0  0
    1.1368   -7.7891    5.4266 C   0  0  0  0  0  0  0  0  0  0  0  0
    1.8835   -8.6732    4.3997 C   0  0  1  0  0  0  0  0  0  0  0  0
    2.4801   -9.8440    5.2400 C   0  0  0  0  0  0  0  0  0  0  0  0
    2.9984   -7.8843    3.5945 C   0  0  1  0  0  0  0  0  0  0  0  0
    3.9868   -7.0220    4.4290 C   0  0  1  0  0  0  0  0  0  0  0  0
    4.6993   -7.7404    5.3972 O   0  0  0  0  0  0  0  0  0  0  0  0
    4.9915   -6.2627    3.5341 C   0  0  0  0  0  0  0  0  0  0  0  0
    5.8162   -7.1602    2.5605 C   0  0  1  0  0  0  0  0  0  0  0  0
    6.8930   -7.9577    3.3310 C   0  0  0  0  0  0  0  0  0  0  0  0
    6.4911   -6.3450    1.4273 C   0  0  2  0  0  0  0  0  0  0  0  0
    7.2603   -5.1238    1.8829 C   0  0  1  0  0  0  0  0  0  0  0  0
    8.0667   -4.3323    0.8715 C   0  0  0  0  0  0  0  0  0  0  0  0
    6.7721   -3.7645    1.4280 C   0  0  1  0  0  0  0  0  0  0  0  0
    2.8504    1.0143    0.8882 H   0  0  0  0  0  0  0  0  0  0  0  0
    4.1696    0.5372    1.9479 H   0  0  0  0  0  0  0  0  0  0  0  0
    2.8469   -0.5953    1.5774 H   0  0  0  0  0  0  0  0  0  0  0  0
    6.7219    0.2525    0.0903 H   0  0  0  0  0  0  0  0  0  0  0  0
    7.3421   -1.3024    0.7950 H   0  0  0  0  0  0  0  0  0  0  0  0
    6.2655   -0.2210    1.6964 H   0  0  0  0  0  0  0  0  0  0  0  0
    4.6768   -2.2778    2.0705 H   0  0  0  0  0  0  0  0  0  0  0  0
    3.6493   -2.6510    0.6830 H   0  0  0  0  0  0  0  0  0  0  0  0
    5.7373   -5.9591   -0.5780 H   0  0  0  0  0  0  0  0  0  0  0  0
    3.3695   -6.6798    0.8766 H   0  0  0  0  0  0  0  0  0  0  0  0
    4.2172   -7.6534   -0.3278 H   0  0  0  0  0  0  0  0  0  0  0  0
    5.0141   -9.7702    0.8399 H   0  0  0  0  0  0  0  0  0  0  0  0
    4.2543   -9.5658    3.1022 H   0  0  0  0  0  0  0  0  0  0  0  0
    2.2929   -8.7513    0.9163 H   0  0  0  0  0  0  0  0  0  0  0  0
    3.2140  -10.1940    1.0112 H   0  0  0  0  0  0  0  0  0  0  0  0
    0.7945  -10.5671    1.7022 H   0  0  0  0  0  0  0  0  0  0  0  0
    1.9733  -11.0507    2.8762 H   0  0  0  0  0  0  0  0  0  0  0  0
    0.2795  -10.0191    4.0061 H   0  0  0  0  0  0  0  0  0  0  0  0
   -0.8401   -6.8694    1.3472 H   0  0  0  0  0  0  0  0  0  0  0  0
    0.4275   -7.8817    0.7950 H   0  0  0  0  0  0  0  0  0  0  0  0
    0.7616   -6.6375    1.9789 H   0  0  0  0  0  0  0  0  0  0  0  0
   -2.3857   -8.6484    2.0913 H   0  0  0  0  0  0  0  0  0  0  0  0
   -1.7794  -10.0262    2.9909 H   0  0  0  0  0  0  0  0  0  0  0  0
   -1.2802   -9.7665    1.3479 H   0  0  0  0  0  0  0  0  0  0  0  0
   -1.5703   -6.7669    3.5474 H   0  0  0  0  0  0  0  0  0  0  0  0
   -1.4564   -9.2087    4.7785 H   0  0  0  0  0  0  0  0  0  0  0  0
    0.7127   -6.0791    4.1771 H   0  0  0  0  0  0  0  0  0  0  0  0
   -0.3155   -6.2087    5.5698 H   0  0  0  0  0  0  0  0  0  0  0  0
    1.8283   -7.2648    6.0807 H   0  0  0  0  0  0  0  0  0  0  0  0
    0.5590   -8.4381    6.0893 H   0  0  0  0  0  0  0  0  0  0  0  0
    3.0486   -9.5011    6.1028 H   0  0  0  0  0  0  0  0  0  0  0  0
    3.1284  -10.5011    4.6689 H   0  0  0  0  0  0  0  0  0  0  0  0
    1.6915  -10.4788    5.6464 H   0  0  0  0  0  0  0  0  0  0  0  0
    2.4761   -7.1435    3.0125 H   0  0  0  0  0  0  0  0  0  0  0  0
    3.4071   -6.2647    4.9558 H   0  0  0  0  0  0  0  0  0  0  0  0
    4.0592   -8.2365    5.9239 H   0  0  0  0  0  0  0  0  0  0  0  0
    4.4042   -5.5389    2.9733 H   0  0  0  0  0  0  0  0  0  0  0  0
    5.6500   -5.6640    4.1674 H   0  0  0  0  0  0  0  0  0  0  0  0
    7.4268   -7.3089    4.0270 H   0  0  0  0  0  0  0  0  0  0  0  0
    7.6304   -8.3858    2.6532 H   0  0  0  0  0  0  0  0  0  0  0  0
    6.4562   -8.7817    3.8943 H   0  0  0  0  0  0  0  0  0  0  0  0
    7.1996   -7.0048    0.9069 H   0  0  0  0  0  0  0  0  0  0  0  0
    7.6954   -5.2151    2.8728 H   0  0  0  0  0  0  0  0  0  0  0  0
    8.9766   -3.8695    1.2387 H   0  0  0  0  0  0  0  0  0  0  0  0
    8.1051   -4.6637   -0.1665 H   0  0  0  0  0  0  0  0  0  0  0  0
    6.8623   -2.9569    2.1337 H   0  0  0  0  0  0  0  0  0  0  0  0
  1  2  1  0
  1 37  1  0
  1 38  1  0
  1 39  1  0
  3  2  1  6
  3  8  1  0
  3  4  1  0
  3  5  1  0
  4 40  1  0
  4 41  1  0
  4 42  1  0
  5  6  1  0
  5 43  1  0
  5 44  1  0
  6 36  1  0
  6  7  1  6
  6  9  1  0
  7  8  1  0
  9 10  1  0
 10 33  1  0
 10 11  1  0
 10 45  1  6
 11 12  1  0
 11 46  1  0
 11 47  1  0
 12 31  1  0
 12 13  1  6
 12 14  1  0
 13 48  1  0
 14 27  1  0
 14 15  1  0
 14 49  1  1
 15 16  1  0
 15 50  1  0
 15 51  1  0
 16 17  1  0
 16 52  1  0
 16 53  1  0
 17 25  1  0
 17 18  1  0
 17 54  1  1
 18 19  1  0
 18 20  1  0
 18 21  1  0
 19 55  1  0
 19 56  1  0
 19 57  1  0
 20 58  1  0
 20 59  1  0
 20 60  1  0
 21 22  1  0
 21 23  1  0
 21 61  1  6
 22 62  1  0
 23 24  1  0
 23 63  1  0
 23 64  1  0
 24 25  1  0
 24 65  1  0
 24 66  1  0
 25 26  1  1
 25 27  1  0
 26 67  1  0
 26 68  1  0
 26 69  1  0
 27 28  1  0
 27 70  1  6
 28 29  1  0
 28 30  1  0
 28 71  1  1
 29 72  1  0
 30 31  1  0
 30 73  1  0
 30 74  1  0
 31 32  1  1
 31 33  1  0
 32 75  1  0
 32 76  1  0
 32 77  1  0
 33 34  1  0
 33 78  1  6
 34 36  1  0
 34 35  1  0
 34 79  1  1
 35 36  1  0
 35 80  1  0
 35 81  1  0
 36 82  1  1
M  END
>  <i_m_ct_stereo_status>  (357) 
1

>  <s_m_source_file>  (357) 
/var/tmp/pbs.5076255.sched01/tmphrhi8tfx/132_dydaaau.sdf

>  <i_m_source_file_index>  (357) 
37

>  <i_lp_mmshare_version>  (357) 
48012

>  <i_f3d_flags>  (357) 
0

>  <s_epik_input>  (357) 
W0NIM11PW0NAXShbQ0gzXSkoT08xKVtDSDJdW0NAXTEyW0NASF0zW0NASF0oW0NIMl0zKVtDQEBIXTRbQ0BIXShPMilbQ0gyXVtDQF01KFtPSF0pW0NASF02W0NASF0oW0NAQEhdKFtPSF0pW0NIMl1bQ0BdNDVbQ0gzXSlbQ0BdNyhbQ0gzXSlbQ0BIXShbQ0gyXVtDSDJdNilDKFtDSDNdKShbQ0gzXSlbQ0BASF0oW09IXSlbQ0gyXVtDSDJdNw==

>  <s_epik_cmdline>  (357) 
J2VwaWtfcHl0aG9uJywgJy1waHQnLCAnMi4wJywgJy1waCcsICc3LjAnLCAnLXRuJywgJzgnLCAnLW1hJywgJzIwMCcsICctaW1hZScsICc8aW5maWxlLm1hZT4nLCAnLW9tYWUnLCAnPG91dGZpbGUubWFlPic=

>  <r_lp_tautomer_probability>  (357) 
1

>  <r_epik_Ionization_Penalty>  (357) 
4.28578e-06

>  <r_epik_Ionization_Penalty_Charging>  (357) 
0

>  <r_epik_Ionization_Penalty_Neutral>  (357) 
4.28578e-06

>  <r_epik_State_Penalty>  (357) 
-0

>  <r_epik_Charging_Adjusted_Penalty>  (357) 
0

>  <i_epik_Tot_Q>  (357) 
0

>  <i_epik_Tot_abs_Q>  (357) 
0

>  <s_lp_Force_Field>  (357) 
OPLS3e

>  <r_lp_Energy>  (357) 
64.0096

>  <b_lp_Chiralities_Consistent>  (357) 
1

>  <s_lp_Variant>  (357) 
116:0-1

>  <s_i_glide_gridfile>  (357) 
pfpi4k_grid

>  <i_i_glide_lignum>  (357) 
37

>  <i_i_glide_rotatable_bonds>  (357) 
4

>  <r_i_docking_score>  (357) 
-3.14736

>  <r_i_glide_ligand_efficiency>  (357) 
-0.0874265

>  <r_i_glide_ligand_efficiency_sa>  (357) 
-0.288676

>  <r_i_glide_ligand_efficiency_ln>  (357) 
-0.686668

>  <r_i_glide_gscore>  (357) 
-3.14736

>  <r_i_glide_lipo>  (357) 
-1.15393

>  <r_i_glide_hbond>  (357) 
-0.129774

>  <r_i_glide_metal>  (357) 
-0

>  <r_i_glide_rewards>  (357) 
-0.132003

>  <r_i_glide_evdw>  (357) 
-21.7864

>  <r_i_glide_ecoul>  (357) 
-4.28222

>  <r_i_glide_erotb>  (357) 
0

>  <r_i_glide_esite>  (357) 
0

>  <r_i_glide_emodel>  (357) 
-27.9406

>  <r_i_glide_energy>  (357) 
-26.0686

>  <r_i_glide_einternal>  (357) 
4.66324

>  <r_i_glide_intrahb_reward>  (357) 
-0

>  <i_i_glide_confnum>  (357) 
2

>  <i_i_glide_posenum>  (357) 
8

>  <r_i_glide_eff_state_penalty>  (357) 
0

>  <ligand_id>  (357) 
116

>  <original_smiles>  (357) 
COC1(C)CC2(OO1)OC1CC3(O)C4CCC5C(C)(C)C(O)CCC5(C)C4C(O)CC3(C)C1C1CC12

>  <smiles>  (357) 
[H]OC1([H])C([H])([H])C2(C([H])([H])[H])C3([H])C([H])(OC4(OOC(OC([H])([H])[H])(C([H])([H])[H])C4([H])[H])C4([H])C([H])([H])C43[H])C([H])([H])C2(O[H])C2([H])C([H])([H])C([H])([H])C3([H])C(C([H])([H])[H])(C([H])([H])[H])C([H])(O[H])C([H])([H])C([H])([H])C3(C([H])([H])[H])C12[H]

$$$$
116:0:2
     RDKit          3D

 82 88  0  0  1  0  0  0  0  0999 V2000
    2.6634   -0.3088    3.1160 C   0  0  0  0  0  0  0  0  0  0  0  0
    4.0668   -0.2593    2.8382 O   0  0  0  0  0  0  0  0  0  0  0  0
    4.6074   -1.2944    2.0163 C   0  0  1  0  0  0  0  0  0  0  0  0
    5.9799   -0.8066    1.5447 C   0  0  0  0  0  0  0  0  0  0  0  0
    4.6357   -2.6483    2.7212 C   0  0  0  0  0  0  0  0  0  0  0  0
    4.7076   -3.6667    1.5874 C   0  0  2  0  0  0  0  0  0  0  0  0
    4.0758   -3.0148    0.4914 O   0  0  0  0  0  0  0  0  0  0  0  0
    3.8024   -1.5899    0.8588 O   0  0  0  0  0  0  0  0  0  0  0  0
    3.9793   -4.8050    2.0289 O   0  0  0  0  0  0  0  0  0  0  0  0
    3.9760   -5.9377    1.1613 C   0  0  2  0  0  0  0  0  0  0  0  0
    3.1749   -7.0591    1.8454 C   0  0  0  0  0  0  0  0  0  0  0  0
    4.1237   -8.2715    1.9968 C   0  0  2  0  0  0  0  0  0  0  0  0
    3.9622   -9.0606    0.8203 O   0  0  0  0  0  0  0  0  0  0  0  0
    3.8149   -9.2186    3.2015 C   0  0  2  0  0  0  0  0  0  0  0  0
    2.3221   -9.6421    3.2036 C   0  0  0  0  0  0  0  0  0  0  0  0
    1.9013  -10.4950    4.4080 C   0  0  0  0  0  0  0  0  0  0  0  0
    2.3333   -9.9341    5.7861 C   0  0  2  0  0  0  0  0  0  0  0  0
    1.3347   -8.9047    6.4707 C   0  0  0  0  0  0  0  0  0  0  0  0
    0.9719   -7.6637    5.6234 C   0  0  0  0  0  0  0  0  0  0  0  0
   -0.0097   -9.6121    6.7763 C   0  0  0  0  0  0  0  0  0  0  0  0
    1.9316   -8.3894    7.8159 C   0  0  1  0  0  0  0  0  0  0  0  0
    1.8501   -9.3602    8.8443 O   0  0  0  0  0  0  0  0  0  0  0  0
    3.3879   -7.9216    7.6799 C   0  0  0  0  0  0  0  0  0  0  0  0
    4.2823   -9.0542    7.1741 C   0  0  0  0  0  0  0  0  0  0  0  0
    3.8752   -9.6147    5.7859 C   0  0  1  0  0  0  0  0  0  0  0  0
    4.6430  -10.9673    5.6707 C   0  0  0  0  0  0  0  0  0  0  0  0
    4.2260   -8.6379    4.5933 C   0  0  1  0  0  0  0  0  0  0  0  0
    5.6653   -8.0394    4.5819 C   0  0  1  0  0  0  0  0  0  0  0  0
    6.6962   -8.9977    4.5672 O   0  0  0  0  0  0  0  0  0  0  0  0
    5.8625   -7.0561    3.4130 C   0  0  0  0  0  0  0  0  0  0  0  0
    5.5510   -7.6456    1.9988 C   0  0  1  0  0  0  0  0  0  0  0  0
    6.6693   -8.6232    1.5573 C   0  0  0  0  0  0  0  0  0  0  0  0
    5.3801   -6.5249    0.9385 C   0  0  2  0  0  0  0  0  0  0  0  0
    6.4820   -5.4765    0.8889 C   0  0  1  0  0  0  0  0  0  0  0  0
    6.4708   -4.4307   -0.2102 C   0  0  0  0  0  0  0  0  0  0  0  0
    6.1372   -4.0436    1.2171 C   0  0  1  0  0  0  0  0  0  0  0  0
    2.3993    0.5148    3.7710 H   0  0  0  0  0  0  0  0  0  0  0  0
    2.3668   -1.2291    3.6175 H   0  0  0  0  0  0  0  0  0  0  0  0
    2.0787   -0.2109    2.2003 H   0  0  0  0  0  0  0  0  0  0  0  0
    5.8838    0.1401    1.0023 H   0  0  0  0  0  0  0  0  0  0  0  0
    6.5002   -1.5485    0.9316 H   0  0  0  0  0  0  0  0  0  0  0  0
    6.6107   -0.6075    2.4157 H   0  0  0  0  0  0  0  0  0  0  0  0
    5.4573   -2.7478    3.4367 H   0  0  0  0  0  0  0  0  0  0  0  0
    3.7140   -2.8380    3.2636 H   0  0  0  0  0  0  0  0  0  0  0  0
    3.5287   -5.6506    0.2118 H   0  0  0  0  0  0  0  0  0  0  0  0
    2.8415   -6.7051    2.8219 H   0  0  0  0  0  0  0  0  0  0  0  0
    2.2789   -7.3098    1.2758 H   0  0  0  0  0  0  0  0  0  0  0  0
    4.2197   -9.9538    0.9913 H   0  0  0  0  0  0  0  0  0  0  0  0
    4.4060  -10.1184    3.0382 H   0  0  0  0  0  0  0  0  0  0  0  0
    1.6802   -8.7686    3.1496 H   0  0  0  0  0  0  0  0  0  0  0  0
    2.1023  -10.2052    2.2971 H   0  0  0  0  0  0  0  0  0  0  0  0
    0.8284  -10.6714    4.3757 H   0  0  0  0  0  0  0  0  0  0  0  0
    2.3325  -11.4892    4.2835 H   0  0  0  0  0  0  0  0  0  0  0  0
    2.2523  -10.7878    6.4521 H   0  0  0  0  0  0  0  0  0  0  0  0
    0.2474   -7.0474    6.1587 H   0  0  0  0  0  0  0  0  0  0  0  0
    0.4885   -7.9404    4.6889 H   0  0  0  0  0  0  0  0  0  0  0  0
    1.8163   -7.0159    5.4097 H   0  0  0  0  0  0  0  0  0  0  0  0
   -0.6394   -8.9988    7.4185 H   0  0  0  0  0  0  0  0  0  0  0  0
    0.1233  -10.5641    7.2855 H   0  0  0  0  0  0  0  0  0  0  0  0
   -0.5711   -9.8124    5.8633 H   0  0  0  0  0  0  0  0  0  0  0  0
    1.3430   -7.5404    8.1696 H   0  0  0  0  0  0  0  0  0  0  0  0
    2.0220  -10.2203    8.4647 H   0  0  0  0  0  0  0  0  0  0  0  0
    3.4559   -7.0664    7.0092 H   0  0  0  0  0  0  0  0  0  0  0  0
    3.7545   -7.5698    8.6448 H   0  0  0  0  0  0  0  0  0  0  0  0
    5.3239   -8.7366    7.1830 H   0  0  0  0  0  0  0  0  0  0  0  0
    4.2395   -9.8620    7.9080 H   0  0  0  0  0  0  0  0  0  0  0  0
    5.7085  -10.8586    5.8710 H   0  0  0  0  0  0  0  0  0  0  0  0
    4.5459  -11.4474    4.6996 H   0  0  0  0  0  0  0  0  0  0  0  0
    4.2806  -11.6916    6.4019 H   0  0  0  0  0  0  0  0  0  0  0  0
    3.6071   -7.7626    4.7367 H   0  0  0  0  0  0  0  0  0  0  0  0
    5.8007   -7.4552    5.4935 H   0  0  0  0  0  0  0  0  0  0  0  0
    6.5779   -9.5417    3.7931 H   0  0  0  0  0  0  0  0  0  0  0  0
    5.2113   -6.2068    3.6149 H   0  0  0  0  0  0  0  0  0  0  0  0
    6.8723   -6.6416    3.4481 H   0  0  0  0  0  0  0  0  0  0  0  0
    7.6576   -8.1906    1.7310 H   0  0  0  0  0  0  0  0  0  0  0  0
    6.6003   -8.8666    0.4976 H   0  0  0  0  0  0  0  0  0  0  0  0
    6.6124   -9.5725    2.0858 H   0  0  0  0  0  0  0  0  0  0  0  0
    5.3395   -6.9997   -0.0424 H   0  0  0  0  0  0  0  0  0  0  0  0
    7.4632   -5.8288    1.1916 H   0  0  0  0  0  0  0  0  0  0  0  0
    7.4277   -4.0829   -0.5823 H   0  0  0  0  0  0  0  0  0  0  0  0
    5.6733   -4.4728   -0.9548 H   0  0  0  0  0  0  0  0  0  0  0  0
    6.9038   -3.5128    1.7818 H   0  0  0  0  0  0  0  0  0  0  0  0
  1  2  1  0
  1 37  1  0
  1 38  1  0
  1 39  1  0
  3  2  1  1
  3  8  1  0
  3  4  1  0
  3  5  1  0
  4 40  1  0
  4 41  1  0
  4 42  1  0
  5  6  1  0
  5 43  1  0
  5 44  1  0
  6 36  1  0
  6  7  1  6
  6  9  1  0
  7  8  1  0
  9 10  1  0
 10 33  1  0
 10 11  1  0
 10 45  1  6
 11 12  1  0
 11 46  1  0
 11 47  1  0
 12 31  1  0
 12 13  1  6
 12 14  1  0
 13 48  1  0
 14 27  1  0
 14 15  1  0
 14 49  1  6
 15 16  1  0
 15 50  1  0
 15 51  1  0
 16 17  1  0
 16 52  1  0
 16 53  1  0
 17 25  1  0
 17 18  1  0
 17 54  1  1
 18 19  1  0
 18 20  1  0
 18 21  1  0
 19 55  1  0
 19 56  1  0
 19 57  1  0
 20 58  1  0
 20 59  1  0
 20 60  1  0
 21 22  1  0
 21 23  1  0
 21 61  1  1
 22 62  1  0
 23 24  1  0
 23 63  1  0
 23 64  1  0
 24 25  1  0
 24 65  1  0
 24 66  1  0
 25 26  1  6
 25 27  1  0
 26 67  1  0
 26 68  1  0
 26 69  1  0
 27 28  1  0
 27 70  1  1
 28 29  1  0
 28 30  1  0
 28 71  1  1
 29 72  1  0
 30 31  1  0
 30 73  1  0
 30 74  1  0
 31 32  1  6
 31 33  1  0
 32 75  1  0
 32 76  1  0
 32 77  1  0
 33 34  1  0
 33 78  1  6
 34 36  1  0
 34 35  1  0
 34 79  1  1
 35 36  1  0
 35 80  1  0
 35 81  1  0
 36 82  1  1
M  END
>  <i_m_ct_stereo_status>  (358) 
1

>  <s_m_source_file>  (358) 
/var/tmp/pbs.5076255.sched01/tmphrhi8tfx/132_dydaaau.sdf

>  <i_m_source_file_index>  (358) 
37

>  <i_lp_mmshare_version>  (358) 
48012

>  <i_f3d_flags>  (358) 
0

>  <s_epik_input>  (358) 
W0NIM11PW0NAXShbQ0gzXSkoT08xKVtDSDJdW0NAXTEyW0NASF0zW0NASF0oW0NIMl0zKVtDQEBIXTRbQ0BIXShPMilbQ0gyXVtDQF01KFtPSF0pW0NASF02W0NASF0oW0NAQEhdKFtPSF0pW0NIMl1bQ0BdNDVbQ0gzXSlbQ0BdNyhbQ0gzXSlbQ0BIXShbQ0gyXVtDSDJdNilDKFtDSDNdKShbQ0gzXSlbQ0BASF0oW09IXSlbQ0gyXVtDSDJdNw==

>  <s_epik_cmdline>  (358) 
J2VwaWtfcHl0aG9uJywgJy1waHQnLCAnMi4wJywgJy1waCcsICc3LjAnLCAnLXRuJywgJzgnLCAnLW1hJywgJzIwMCcsICctaW1hZScsICc8aW5maWxlLm1hZT4nLCAnLW9tYWUnLCAnPG91dGZpbGUubWFlPic=

>  <r_lp_tautomer_probability>  (358) 
1

>  <r_epik_Ionization_Penalty>  (358) 
4.28578e-06

>  <r_epik_Ionization_Penalty_Charging>  (358) 
0

>  <r_epik_Ionization_Penalty_Neutral>  (358) 
4.28578e-06

>  <r_epik_State_Penalty>  (358) 
-0

>  <r_epik_Charging_Adjusted_Penalty>  (358) 
0

>  <i_epik_Tot_Q>  (358) 
0

>  <i_epik_Tot_abs_Q>  (358) 
0

>  <s_lp_Force_Field>  (358) 
OPLS3e

>  <r_lp_Energy>  (358) 
64.0096

>  <b_lp_Chiralities_Consistent>  (358) 
1

>  <s_lp_Variant>  (358) 
116:0-1

>  <s_i_glide_gridfile>  (358) 
pfpi4k_grid

>  <i_i_glide_lignum>  (358) 
37

>  <i_i_glide_rotatable_bonds>  (358) 
4

>  <r_i_docking_score>  (358) 
-2.47161

>  <r_i_glide_ligand_efficiency>  (358) 
-0.0686559

>  <r_i_glide_ligand_efficiency_sa>  (358) 
-0.226697

>  <r_i_glide_ligand_efficiency_ln>  (358) 
-0.539239

>  <r_i_glide_gscore>  (358) 
-2.47161

>  <r_i_glide_lipo>  (358) 
-0.699454

>  <r_i_glide_hbond>  (358) 
-0.0935673

>  <r_i_glide_metal>  (358) 
-0

>  <r_i_glide_rewards>  (358) 
-0.101608

>  <r_i_glide_evdw>  (358) 
-20.3637

>  <r_i_glide_ecoul>  (358) 
-3.72533

>  <r_i_glide_erotb>  (358) 
0

>  <r_i_glide_esite>  (358) 
0

>  <r_i_glide_emodel>  (358) 
-26.5726

>  <r_i_glide_energy>  (358) 
-24.089

>  <r_i_glide_einternal>  (358) 
1.94094

>  <r_i_glide_intrahb_reward>  (358) 
-0

>  <i_i_glide_confnum>  (358) 
2

>  <i_i_glide_posenum>  (358) 
22

>  <r_i_glide_eff_state_penalty>  (358) 
0

>  <ligand_id>  (358) 
116

>  <original_smiles>  (358) 
COC1(C)CC2(OO1)OC1CC3(O)C4CCC5C(C)(C)C(O)CCC5(C)C4C(O)CC3(C)C1C1CC12

>  <smiles>  (358) 
[H]OC1([H])C([H])([H])C2(C([H])([H])[H])C3([H])C([H])(OC4(OOC(OC([H])([H])[H])(C([H])([H])[H])C4([H])[H])C4([H])C([H])([H])C43[H])C([H])([H])C2(O[H])C2([H])C([H])([H])C([H])([H])C3([H])C(C([H])([H])[H])(C([H])([H])[H])C([H])(O[H])C([H])([H])C([H])([H])C3(C([H])([H])[H])C12[H]

$$$$
117:0:0
     RDKit          3D

 67 72  0  0  1  0  0  0  0  0999 V2000
   -1.6565   -8.7880    2.4474 C   0  0  0  0  0  0  0  0  0  0  0  0
   -0.4515   -7.8609    2.3336 C   0  0  0  0  0  0  0  0  0  0  0  0
   -0.5828   -6.6830    1.9921 O   0  0  0  0  0  0  0  0  0  0  0  0
    0.7051   -8.4677    2.6910 O   0  0  0  0  0  0  0  0  0  0  0  0
    1.9568   -7.7793    2.6384 C   0  0  2  0  0  0  0  0  0  0  0  0
    3.0045   -8.8037    2.1785 C   0  0  0  0  0  0  0  0  0  0  0  0
    4.4268   -8.1901    2.0887 C   0  0  1  0  0  0  0  0  0  0  0  0
    5.3227   -9.2895    1.4457 C   0  0  0  0  0  0  0  0  0  0  0  0
    4.3565   -7.0040    1.1122 C   0  0  0  0  0  0  0  0  0  0  0  0
    4.6894   -5.6650    1.1077 C   0  0  0  0  0  0  0  0  0  0  0  0
    4.3219   -5.0749   -0.1195 N   0  0  0  0  0  0  0  0  0  0  0  0
    4.8222   -3.7395   -0.1252 C   0  0  0  0  0  0  0  0  0  0  0  0
    4.9165   -2.2686   -0.4869 C   0  0  0  0  0  0  0  0  0  0  0  0
    5.3788   -1.9929   -1.9154 C   0  0  0  0  0  0  0  0  0  0  0  0
    3.8078   -1.3323   -0.0753 C   0  0  0  0  0  0  0  0  0  0  0  0
    5.8123   -2.8266    0.5278 C   0  0  2  0  0  0  0  0  0  0  0  0
    7.2427   -3.1348    0.1649 C   0  0  0  0  0  0  0  0  0  0  0  0
    5.4282   -3.2640    1.9220 C   0  0  0  0  0  0  0  0  0  0  0  0
    5.1278   -2.4289    2.7706 O   0  0  0  0  0  0  0  0  0  0  0  0
    5.4386   -4.8214    2.2288 C   0  0  1  0  0  0  0  0  0  0  0  0
    5.3507   -5.1351    3.7800 C   0  0  2  0  0  0  0  0  0  0  0  0
    6.5008   -6.0461    4.2325 C   0  0  0  0  0  0  0  0  0  0  0  0
    6.3542   -7.4400    3.6480 C   0  0  0  0  0  0  0  0  0  0  0  0
    4.8944   -7.9536    3.5522 C   0  0  1  0  0  0  0  0  0  0  0  0
    3.8779   -7.2043    4.4704 C   0  0  2  0  0  0  0  0  0  0  0  0
    4.0025   -7.8550    5.8516 C   0  0  0  0  0  0  0  0  0  0  0  0
    2.3896   -7.0712    3.9574 C   0  0  2  0  0  0  0  0  0  0  0  0
    1.2630   -7.1296    5.0123 C   0  0  0  0  0  0  0  0  0  0  0  0
    2.7130   -5.5820    3.6483 C   0  0  0  0  0  0  0  0  0  0  0  0
    2.1357   -4.6959    3.0073 O   0  0  0  0  0  0  0  0  0  0  0  0
    4.0396   -5.6493    4.4495 C   0  0  2  0  0  0  0  0  0  0  0  0
    3.8659   -4.8624    5.7620 C   0  0  0  0  0  0  0  0  0  0  0  0
   -1.7723   -9.1406    3.4717 H   0  0  0  0  0  0  0  0  0  0  0  0
   -1.5385   -9.6538    1.7954 H   0  0  0  0  0  0  0  0  0  0  0  0
   -2.5680   -8.2619    2.1635 H   0  0  0  0  0  0  0  0  0  0  0  0
    1.8651   -7.0423    1.8341 H   0  0  0  0  0  0  0  0  0  0  0  0
    3.0047   -9.6493    2.8796 H   0  0  0  0  0  0  0  0  0  0  0  0
    2.7046   -9.2341    1.2215 H   0  0  0  0  0  0  0  0  0  0  0  0
    5.4257  -10.1829    2.0780 H   0  0  0  0  0  0  0  0  0  0  0  0
    6.3341   -8.9424    1.2293 H   0  0  0  0  0  0  0  0  0  0  0  0
    4.9088   -9.6363    0.4988 H   0  0  0  0  0  0  0  0  0  0  0  0
    3.8745   -7.3372    0.2043 H   0  0  0  0  0  0  0  0  0  0  0  0
    5.8932   -1.0269   -1.9315 H   0  0  0  0  0  0  0  0  0  0  0  0
    4.5118   -1.9290   -2.5874 H   0  0  0  0  0  0  0  0  0  0  0  0
    6.0498   -2.7735   -2.2771 H   0  0  0  0  0  0  0  0  0  0  0  0
    4.2388   -0.3414    0.0886 H   0  0  0  0  0  0  0  0  0  0  0  0
    3.3357   -1.6622    0.8572 H   0  0  0  0  0  0  0  0  0  0  0  0
    3.0490   -1.2523   -0.8539 H   0  0  0  0  0  0  0  0  0  0  0  0
    7.8140   -3.5099    1.0158 H   0  0  0  0  0  0  0  0  0  0  0  0
    7.7190   -2.2148   -0.1884 H   0  0  0  0  0  0  0  0  0  0  0  0
    7.2845   -3.8676   -0.6512 H   0  0  0  0  0  0  0  0  0  0  0  0
    6.4654   -5.0978    1.9841 H   0  0  0  0  0  0  0  0  0  0  0  0
    5.6260   -4.1985    4.2676 H   0  0  0  0  0  0  0  0  0  0  0  0
    7.4791   -5.6182    4.0032 H   0  0  0  0  0  0  0  0  0  0  0  0
    6.4621   -6.1172    5.3165 H   0  0  0  0  0  0  0  0  0  0  0  0
    6.7927   -7.3983    2.6557 H   0  0  0  0  0  0  0  0  0  0  0  0
    6.9622   -8.1421    4.2153 H   0  0  0  0  0  0  0  0  0  0  0  0
    4.9718   -8.9655    3.9668 H   0  0  0  0  0  0  0  0  0  0  0  0
    3.4068   -7.3391    6.5987 H   0  0  0  0  0  0  0  0  0  0  0  0
    5.0247   -7.8510    6.2257 H   0  0  0  0  0  0  0  0  0  0  0  0
    3.6435   -8.8825    5.8434 H   0  0  0  0  0  0  0  0  0  0  0  0
    1.1203   -8.1564    5.3498 H   0  0  0  0  0  0  0  0  0  0  0  0
    0.3029   -6.7688    4.6464 H   0  0  0  0  0  0  0  0  0  0  0  0
    1.4675   -6.5310    5.8949 H   0  0  0  0  0  0  0  0  0  0  0  0
    4.6469   -5.1365    6.4687 H   0  0  0  0  0  0  0  0  0  0  0  0
    2.9185   -5.0553    6.2504 H   0  0  0  0  0  0  0  0  0  0  0  0
    3.9329   -3.7827    5.6134 H   0  0  0  0  0  0  0  0  0  0  0  0
  1  2  1  0
  1 33  1  0
  1 34  1  0
  1 35  1  0
  2  3  2  0
  2  4  1  0
  4  5  1  0
  5 27  1  0
  5  6  1  0
  5 36  1  6
  6  7  1  0
  6 37  1  0
  6 38  1  0
  7 24  1  0
  7  8  1  6
  7  9  1  0
  8 39  1  0
  8 40  1  0
  8 41  1  0
  9 10  2  3
  9 42  1  0
 10 20  1  0
 10 11  1  0
 11 12  2  0
 12 16  1  0
 12 13  1  0
 13 14  1  0
 13 15  1  0
 13 16  1  0
 14 43  1  0
 14 44  1  0
 14 45  1  0
 15 46  1  0
 15 47  1  0
 15 48  1  0
 16 17  1  6
 16 18  1  0
 17 49  1  0
 17 50  1  0
 17 51  1  0
 18 19  2  0
 18 20  1  0
 20 21  1  0
 20 52  1  6
 21 31  1  0
 21 22  1  0
 21 53  1  1
 22 23  1  0
 22 54  1  0
 22 55  1  0
 23 24  1  0
 23 56  1  0
 23 57  1  0
 24 25  1  0
 24 58  1  1
 25 31  1  0
 25 26  1  1
 25 27  1  0
 26 59  1  0
 26 60  1  0
 26 61  1  0
 27 28  1  1
 27 29  1  0
 28 62  1  0
 28 63  1  0
 28 64  1  0
 29 30  2  0
 29 31  1  0
 31 32  1  1
 32 65  1  0
 32 66  1  0
 32 67  1  0
M  END
>  <i_m_ct_stereo_status>  (359) 
1

>  <s_m_source_file>  (359) 
/var/tmp/pbs.5076255.sched01/tmphrhi8tfx/132_dydaaau.sdf

>  <i_m_source_file_index>  (359) 
38

>  <i_lp_mmshare_version>  (359) 
48012

>  <i_f3d_flags>  (359) 
0

>  <s_epik_input>  (359) 
W0NIM11DKD1PKU9bQ0BIXShbQ0gyXTEpW0NAQF0oW0NIM10pKFtDQEBdMihbQ0gzXSlbQ0BIXTNbQ0BAXTE0W0NIM10pQyg9TylbQ0BdMihbQ0gzXSlbQ0BASF0oW0NIMl1bQ0gyXTMpW0NASF01Qyg9W0NIXVw0KS9OPUM2QyhbQ0gzXSkoQzU9TylDNihbQ0gzXSlbQ0gzXQ==

>  <s_epik_cmdline>  (359) 
J2VwaWtfcHl0aG9uJywgJy1waHQnLCAnMi4wJywgJy1waCcsICc3LjAnLCAnLXRuJywgJzgnLCAnLW1hJywgJzIwMCcsICctaW1hZScsICc8aW5maWxlLm1hZT4nLCAnLW9tYWUnLCAnPG91dGZpbGUubWFlPic=

>  <r_lp_tautomer_probability>  (359) 
1

>  <r_epik_Ionization_Penalty>  (359) 
1.04711e-10

>  <r_epik_Ionization_Penalty_Charging>  (359) 
0

>  <r_epik_Ionization_Penalty_Neutral>  (359) 
1.04711e-10

>  <r_epik_State_Penalty>  (359) 
-0

>  <r_epik_Charging_Adjusted_Penalty>  (359) 
0

>  <i_epik_Tot_Q>  (359) 
0

>  <i_epik_Tot_abs_Q>  (359) 
0

>  <s_epik_Chemistry_Notes>  (359) 
This compound has an ester and may undergo hydrolysis at high or low pH. This compound has an imine and may undergo hydrolysis.

>  <s_lp_Force_Field>  (359) 
OPLS3e

>  <r_lp_Energy>  (359) 
76.0102

>  <b_lp_Chiralities_Consistent>  (359) 
1

>  <s_lp_Variant>  (359) 
117:0-1

>  <s_i_glide_gridfile>  (359) 
pfpi4k_grid

>  <i_i_glide_lignum>  (359) 
38

>  <i_i_glide_rotatable_bonds>  (359) 
2

>  <r_i_docking_score>  (359) 
-2.84378

>  <r_i_glide_ligand_efficiency>  (359) 
-0.0888681

>  <r_i_glide_ligand_efficiency_sa>  (359) 
-0.282139

>  <r_i_glide_ligand_efficiency_ln>  (359) 
-0.6368

>  <r_i_glide_gscore>  (359) 
-2.84378

>  <r_i_glide_lipo>  (359) 
-0.580941

>  <r_i_glide_hbond>  (359) 
-0.161822

>  <r_i_glide_metal>  (359) 
-0

>  <r_i_glide_rewards>  (359) 
-0.537323

>  <r_i_glide_evdw>  (359) 
-26.6313

>  <r_i_glide_ecoul>  (359) 
-1.80755

>  <r_i_glide_erotb>  (359) 
0.104155

>  <r_i_glide_esite>  (359) 
-0.0651522

>  <r_i_glide_emodel>  (359) 
-33.2411

>  <r_i_glide_energy>  (359) 
-28.4388

>  <r_i_glide_einternal>  (359) 
0.102382

>  <r_i_glide_intrahb_reward>  (359) 
-0

>  <i_i_glide_confnum>  (359) 
3

>  <i_i_glide_posenum>  (359) 
8

>  <r_i_glide_eff_state_penalty>  (359) 
0

>  <ligand_id>  (359) 
117

>  <original_smiles>  (359) 
CC(=O)OC1CC2(C)C=C3N=C4C(C)(C)C4(C)C(=O)C3C3CCC2C2(C)C1(C)C(=O)C32C

>  <smiles>  (359) 
[H]C1=C2N=C3C(C([H])([H])[H])(C(=O)C2([H])C2([H])C([H])([H])C([H])([H])C4([H])C1(C([H])([H])[H])C([H])([H])C([H])(OC(=O)C([H])([H])[H])C1(C([H])([H])[H])C(=O)C2(C([H])([H])[H])C41C([H])([H])[H])C3(C([H])([H])[H])C([H])([H])[H]

$$$$
117:0:1
     RDKit          3D

 67 72  0  0  1  0  0  0  0  0999 V2000
    3.7325   -0.6383   -2.9725 C   0  0  0  0  0  0  0  0  0  0  0  0
    4.1680   -1.2146   -1.6320 C   0  0  0  0  0  0  0  0  0  0  0  0
    5.1561   -0.7940   -1.0360 O   0  0  0  0  0  0  0  0  0  0  0  0
    3.3468   -2.2025   -1.2165 O   0  0  0  0  0  0  0  0  0  0  0  0
    3.4816   -2.8626    0.0531 C   0  0  2  0  0  0  0  0  0  0  0  0
    3.4019   -1.8833    1.2420 C   0  0  0  0  0  0  0  0  0  0  0  0
    3.5569   -2.5646    2.6160 C   0  0  1  0  0  0  0  0  0  0  0  0
    3.3482   -1.4202    3.6510 C   0  0  0  0  0  0  0  0  0  0  0  0
    2.3971   -3.5925    2.7767 C   0  0  0  0  0  0  0  0  0  0  0  0
    2.2889   -4.8977    3.1048 C   0  0  0  0  0  0  0  0  0  0  0  0
    0.9195   -5.3012    3.0473 N   0  0  0  0  0  0  0  0  0  0  0  0
    0.7393   -6.6263    3.4955 C   0  0  0  0  0  0  0  0  0  0  0  0
    0.1842   -7.9949    3.6876 C   0  0  0  0  0  0  0  0  0  0  0  0
   -1.0964   -8.0638    4.4934 C   0  0  0  0  0  0  0  0  0  0  0  0
    0.1551   -8.9446    2.4973 C   0  0  0  0  0  0  0  0  0  0  0  0
    1.4811   -7.6245    4.3067 C   0  0  2  0  0  0  0  0  0  0  0  0
    1.5374   -7.3695    5.7960 C   0  0  0  0  0  0  0  0  0  0  0  0
    2.8220   -7.4358    3.5953 C   0  0  0  0  0  0  0  0  0  0  0  0
    3.3703   -8.3844    3.0522 O   0  0  0  0  0  0  0  0  0  0  0  0
    3.3575   -5.9625    3.5480 C   0  0  1  0  0  0  0  0  0  0  0  0
    4.8707   -5.9045    3.0655 C   0  0  2  0  0  0  0  0  0  0  0  0
    5.7461   -5.1393    4.0661 C   0  0  0  0  0  0  0  0  0  0  0  0
    5.3773   -3.6656    4.0829 C   0  0  0  0  0  0  0  0  0  0  0  0
    5.0314   -3.0658    2.6966 C   0  0  1  0  0  0  0  0  0  0  0  0
    5.5144   -3.9119    1.4659 C   0  0  2  0  0  0  0  0  0  0  0  0
    6.9709   -3.5138    1.2042 C   0  0  0  0  0  0  0  0  0  0  0  0
    4.6438   -3.8827    0.1571 C   0  0  2  0  0  0  0  0  0  0  0  0
    5.3774   -3.9724   -1.2017 C   0  0  0  0  0  0  0  0  0  0  0  0
    4.1544   -5.2975    0.5881 C   0  0  0  0  0  0  0  0  0  0  0  0
    3.2158   -6.0212    0.2646 O   0  0  0  0  0  0  0  0  0  0  0  0
    5.2713   -5.4479    1.6314 C   0  0  2  0  0  0  0  0  0  0  0  0
    6.3574   -6.4184    1.1301 C   0  0  0  0  0  0  0  0  0  0  0  0
    2.8128   -0.0501   -2.8831 H   0  0  0  0  0  0  0  0  0  0  0  0
    3.5758   -1.4412   -3.6933 H   0  0  0  0  0  0  0  0  0  0  0  0
    4.5217    0.0124   -3.3394 H   0  0  0  0  0  0  0  0  0  0  0  0
    2.5611   -3.4469    0.0907 H   0  0  0  0  0  0  0  0  0  0  0  0
    4.1936   -1.1382    1.1838 H   0  0  0  0  0  0  0  0  0  0  0  0
    2.4652   -1.3272    1.1773 H   0  0  0  0  0  0  0  0  0  0  0  0
    4.1280   -0.6515    3.5885 H   0  0  0  0  0  0  0  0  0  0  0  0
    3.3295   -1.7735    4.6817 H   0  0  0  0  0  0  0  0  0  0  0  0
    2.3999   -0.9079    3.4857 H   0  0  0  0  0  0  0  0  0  0  0  0
    1.4827   -3.0626    2.5294 H   0  0  0  0  0  0  0  0  0  0  0  0
   -1.1369   -9.0232    5.0206 H   0  0  0  0  0  0  0  0  0  0  0  0
   -1.9819   -7.9970    3.8444 H   0  0  0  0  0  0  0  0  0  0  0  0
   -1.1468   -7.2552    5.2359 H   0  0  0  0  0  0  0  0  0  0  0  0
    0.2495   -9.9591    2.8890 H   0  0  0  0  0  0  0  0  0  0  0  0
    0.9782   -8.7594    1.8183 H   0  0  0  0  0  0  0  0  0  0  0  0
   -0.7934   -8.8770    1.9716 H   0  0  0  0  0  0  0  0  0  0  0  0
    2.5492   -7.1721    6.1299 H   0  0  0  0  0  0  0  0  0  0  0  0
    1.1418   -8.2428    6.3248 H   0  0  0  0  0  0  0  0  0  0  0  0
    0.8892   -6.5015    6.0329 H   0  0  0  0  0  0  0  0  0  0  0  0
    3.4323   -5.7050    4.6037 H   0  0  0  0  0  0  0  0  0  0  0  0
    5.2478   -6.9257    3.2020 H   0  0  0  0  0  0  0  0  0  0  0  0
    5.6933   -5.5691    5.0664 H   0  0  0  0  0  0  0  0  0  0  0  0
    6.7774   -5.2414    3.7486 H   0  0  0  0  0  0  0  0  0  0  0  0
    4.5179   -3.5684    4.7433 H   0  0  0  0  0  0  0  0  0  0  0  0
    6.1625   -3.0826    4.5617 H   0  0  0  0  0  0  0  0  0  0  0  0
    5.6223   -2.1435    2.6637 H   0  0  0  0  0  0  0  0  0  0  0  0
    7.4425   -4.1110    0.4293 H   0  0  0  0  0  0  0  0  0  0  0  0
    7.5752   -3.7192    2.0746 H   0  0  0  0  0  0  0  0  0  0  0  0
    7.0619   -2.4688    0.9016 H   0  0  0  0  0  0  0  0  0  0  0  0
    5.9686   -3.0908   -1.4178 H   0  0  0  0  0  0  0  0  0  0  0  0
    4.6998   -4.2167   -2.0417 H   0  0  0  0  0  0  0  0  0  0  0  0
    6.1244   -4.7157   -1.1141 H   0  0  0  0  0  0  0  0  0  0  0  0
    7.2692   -6.3121    1.7166 H   0  0  0  0  0  0  0  0  0  0  0  0
    6.6378   -6.2425    0.1059 H   0  0  0  0  0  0  0  0  0  0  0  0
    6.0529   -7.4608    1.2043 H   0  0  0  0  0  0  0  0  0  0  0  0
  1  2  1  0
  1 33  1  0
  1 34  1  0
  1 35  1  0
  2  3  2  0
  2  4  1  0
  4  5  1  0
  5 27  1  0
  5  6  1  0
  5 36  1  1
  6  7  1  0
  6 37  1  0
  6 38  1  0
  7 24  1  0
  7  8  1  1
  7  9  1  0
  8 39  1  0
  8 40  1  0
  8 41  1  0
  9 10  2  3
  9 42  1  0
 10 20  1  0
 10 11  1  0
 11 12  2  0
 12 16  1  0
 12 13  1  0
 13 14  1  0
 13 15  1  0
 13 16  1  0
 14 43  1  0
 14 44  1  0
 14 45  1  0
 15 46  1  0
 15 47  1  0
 15 48  1  0
 16 17  1  1
 16 18  1  0
 17 49  1  0
 17 50  1  0
 17 51  1  0
 18 19  2  0
 18 20  1  0
 20 21  1  0
 20 52  1  1
 21 31  1  0
 21 22  1  0
 21 53  1  6
 22 23  1  0
 22 54  1  0
 22 55  1  0
 23 24  1  0
 23 56  1  0
 23 57  1  0
 24 25  1  0
 24 58  1  6
 25 31  1  0
 25 26  1  6
 25 27  1  0
 26 59  1  0
 26 60  1  0
 26 61  1  0
 27 28  1  6
 27 29  1  0
 28 62  1  0
 28 63  1  0
 28 64  1  0
 29 30  2  0
 29 31  1  0
 31 32  1  6
 32 65  1  0
 32 66  1  0
 32 67  1  0
M  END
>  <i_m_ct_stereo_status>  (360) 
1

>  <s_m_source_file>  (360) 
/var/tmp/pbs.5076255.sched01/tmphrhi8tfx/132_dydaaau.sdf

>  <i_m_source_file_index>  (360) 
38

>  <i_lp_mmshare_version>  (360) 
48012

>  <i_f3d_flags>  (360) 
0

>  <s_epik_input>  (360) 
W0NIM11DKD1PKU9bQ0BIXShbQ0gyXTEpW0NAQF0oW0NIM10pKFtDQEBdMihbQ0gzXSlbQ0BIXTNbQ0BAXTE0W0NIM10pQyg9TylbQ0BdMihbQ0gzXSlbQ0BASF0oW0NIMl1bQ0gyXTMpW0NASF01Qyg9W0NIXVw0KS9OPUM2QyhbQ0gzXSkoQzU9TylDNihbQ0gzXSlbQ0gzXQ==

>  <s_epik_cmdline>  (360) 
J2VwaWtfcHl0aG9uJywgJy1waHQnLCAnMi4wJywgJy1waCcsICc3LjAnLCAnLXRuJywgJzgnLCAnLW1hJywgJzIwMCcsICctaW1hZScsICc8aW5maWxlLm1hZT4nLCAnLW9tYWUnLCAnPG91dGZpbGUubWFlPic=

>  <r_lp_tautomer_probability>  (360) 
1

>  <r_epik_Ionization_Penalty>  (360) 
1.04711e-10

>  <r_epik_Ionization_Penalty_Charging>  (360) 
0

>  <r_epik_Ionization_Penalty_Neutral>  (360) 
1.04711e-10

>  <r_epik_State_Penalty>  (360) 
-0

>  <r_epik_Charging_Adjusted_Penalty>  (360) 
0

>  <i_epik_Tot_Q>  (360) 
0

>  <i_epik_Tot_abs_Q>  (360) 
0

>  <s_epik_Chemistry_Notes>  (360) 
This compound has an ester and may undergo hydrolysis at high or low pH. This compound has an imine and may undergo hydrolysis.

>  <s_lp_Force_Field>  (360) 
OPLS3e

>  <r_lp_Energy>  (360) 
76.0102

>  <b_lp_Chiralities_Consistent>  (360) 
1

>  <s_lp_Variant>  (360) 
117:0-1

>  <s_i_glide_gridfile>  (360) 
pfpi4k_grid

>  <i_i_glide_lignum>  (360) 
38

>  <i_i_glide_rotatable_bonds>  (360) 
2

>  <r_i_docking_score>  (360) 
-1.97517

>  <r_i_glide_ligand_efficiency>  (360) 
-0.0617241

>  <r_i_glide_ligand_efficiency_sa>  (360) 
-0.195962

>  <r_i_glide_ligand_efficiency_ln>  (360) 
-0.442295

>  <r_i_glide_gscore>  (360) 
-1.97517

>  <r_i_glide_lipo>  (360) 
-0.44075

>  <r_i_glide_hbond>  (360) 
0

>  <r_i_glide_metal>  (360) 
-0

>  <r_i_glide_rewards>  (360) 
-0.483236

>  <r_i_glide_evdw>  (360) 
-20.4

>  <r_i_glide_ecoul>  (360) 
-0.371678

>  <r_i_glide_erotb>  (360) 
0.104155

>  <r_i_glide_esite>  (360) 
-0.0795885

>  <r_i_glide_emodel>  (360) 
-21.9149

>  <r_i_glide_energy>  (360) 
-20.7717

>  <r_i_glide_einternal>  (360) 
3.2942

>  <r_i_glide_intrahb_reward>  (360) 
-0

>  <i_i_glide_confnum>  (360) 
4

>  <i_i_glide_posenum>  (360) 
6

>  <r_i_glide_eff_state_penalty>  (360) 
0

>  <ligand_id>  (360) 
117

>  <original_smiles>  (360) 
CC(=O)OC1CC2(C)C=C3N=C4C(C)(C)C4(C)C(=O)C3C3CCC2C2(C)C1(C)C(=O)C32C

>  <smiles>  (360) 
[H]C1=C2N=C3C(C([H])([H])[H])(C(=O)C2([H])C2([H])C([H])([H])C([H])([H])C4([H])C1(C([H])([H])[H])C([H])([H])C([H])(OC(=O)C([H])([H])[H])C1(C([H])([H])[H])C(=O)C2(C([H])([H])[H])C41C([H])([H])[H])C3(C([H])([H])[H])C([H])([H])[H]

$$$$
117:0:2
     RDKit          3D

 67 72  0  0  1  0  0  0  0  0999 V2000
   -0.1826   -9.4823    7.2571 C   0  0  0  0  0  0  0  0  0  0  0  0
    0.5994   -8.7711    6.1583 C   0  0  0  0  0  0  0  0  0  0  0  0
    0.0192   -8.2151    5.2260 O   0  0  0  0  0  0  0  0  0  0  0  0
    1.9385   -8.8259    6.3422 O   0  0  0  0  0  0  0  0  0  0  0  0
    2.8402   -8.2898    5.3683 C   0  0  2  0  0  0  0  0  0  0  0  0
    3.2832   -9.4579    4.4803 C   0  0  0  0  0  0  0  0  0  0  0  0
    4.2935   -9.0165    3.3982 C   0  0  1  0  0  0  0  0  0  0  0  0
    4.4887  -10.2533    2.4793 C   0  0  0  0  0  0  0  0  0  0  0  0
    3.6124   -7.9081    2.5629 C   0  0  0  0  0  0  0  0  0  0  0  0
    3.9016   -6.6302    2.1594 C   0  0  0  0  0  0  0  0  0  0  0  0
    2.8251   -6.0785    1.4210 N   0  0  0  0  0  0  0  0  0  0  0  0
    3.2137   -4.8180    0.8982 C   0  0  0  0  0  0  0  0  0  0  0  0
    3.1055   -3.3960    0.3865 C   0  0  0  0  0  0  0  0  0  0  0  0
    2.5228   -3.2710   -1.0205 C   0  0  0  0  0  0  0  0  0  0  0  0
    2.6086   -2.3046    1.3081 C   0  0  0  0  0  0  0  0  0  0  0  0
    4.4280   -3.9968    0.6218 C   0  0  2  0  0  0  0  0  0  0  0  0
    5.2462   -4.4721   -0.5634 C   0  0  0  0  0  0  0  0  0  0  0  0
    5.0778   -4.2789    1.9516 C   0  0  0  0  0  0  0  0  0  0  0  0
    5.4388   -3.3461    2.6736 O   0  0  0  0  0  0  0  0  0  0  0  0
    5.2326   -5.7894    2.3773 C   0  0  1  0  0  0  0  0  0  0  0  0
    6.1986   -5.9750    3.6246 C   0  0  2  0  0  0  0  0  0  0  0  0
    7.3311   -6.9640    3.3293 C   0  0  0  0  0  0  0  0  0  0  0  0
    6.7872   -8.3708    3.1730 C   0  0  0  0  0  0  0  0  0  0  0  0
    5.6254   -8.7156    4.1400 C   0  0  1  0  0  0  0  0  0  0  0  0
    5.5000   -7.7838    5.3908 C   0  0  2  0  0  0  0  0  0  0  0  0
    6.4976   -8.3305    6.4236 C   0  0  0  0  0  0  0  0  0  0  0  0
    4.0520   -7.5259    5.9670 C   0  0  2  0  0  0  0  0  0  0  0  0
    3.8913   -7.3881    7.4935 C   0  0  0  0  0  0  0  0  0  0  0  0
    4.1461   -6.1073    5.3279 C   0  0  0  0  0  0  0  0  0  0  0  0
    3.3331   -5.2124    5.1126 O   0  0  0  0  0  0  0  0  0  0  0  0
    5.6622   -6.2671    5.0565 C   0  0  2  0  0  0  0  0  0  0  0  0
    6.4491   -5.3697    6.0375 C   0  0  0  0  0  0  0  0  0  0  0  0
   -0.0049   -9.0186    8.2279 H   0  0  0  0  0  0  0  0  0  0  0  0
    0.1061  -10.5302    7.3063 H   0  0  0  0  0  0  0  0  0  0  0  0
   -1.2521   -9.4617    7.0439 H   0  0  0  0  0  0  0  0  0  0  0  0
    2.2759   -7.5926    4.7427 H   0  0  0  0  0  0  0  0  0  0  0  0
    3.7192  -10.2408    5.1098 H   0  0  0  0  0  0  0  0  0  0  0  0
    2.4093   -9.9237    4.0234 H   0  0  0  0  0  0  0  0  0  0  0  0
    4.9608  -11.0988    2.9934 H   0  0  0  0  0  0  0  0  0  0  0  0
    5.0952  -10.0380    1.5997 H   0  0  0  0  0  0  0  0  0  0  0  0
    3.5341  -10.6178    2.0983 H   0  0  0  0  0  0  0  0  0  0  0  0
    2.6382   -8.2667    2.2656 H   0  0  0  0  0  0  0  0  0  0  0  0
    2.9456   -2.3870   -1.5045 H   0  0  0  0  0  0  0  0  0  0  0  0
    1.4368   -3.1549   -0.9895 H   0  0  0  0  0  0  0  0  0  0  0  0
    2.7534   -4.1504   -1.6204 H   0  0  0  0  0  0  0  0  0  0  0  0
    3.0760   -1.3705    0.9981 H   0  0  0  0  0  0  0  0  0  0  0  0
    2.8806   -2.4987    2.3486 H   0  0  0  0  0  0  0  0  0  0  0  0
    1.5314   -2.1714    1.2377 H   0  0  0  0  0  0  0  0  0  0  0  0
    6.2306   -4.8281   -0.2565 H   0  0  0  0  0  0  0  0  0  0  0  0
    5.3803   -3.6348   -1.2542 H   0  0  0  0  0  0  0  0  0  0  0  0
    4.7193   -5.2733   -1.0958 H   0  0  0  0  0  0  0  0  0  0  0  0
    5.8330   -6.1800    1.5561 H   0  0  0  0  0  0  0  0  0  0  0  0
    6.7711   -5.0569    3.6763 H   0  0  0  0  0  0  0  0  0  0  0  0
    7.9224   -6.6631    2.4620 H   0  0  0  0  0  0  0  0  0  0  0  0
    8.0240   -6.9494    4.1664 H   0  0  0  0  0  0  0  0  0  0  0  0
    6.4517   -8.4493    2.1440 H   0  0  0  0  0  0  0  0  0  0  0  0
    7.5998   -9.0898    3.2828 H   0  0  0  0  0  0  0  0  0  0  0  0
    5.9258   -9.6910    4.5316 H   0  0  0  0  0  0  0  0  0  0  0  0
    6.5698   -7.6922    7.3002 H   0  0  0  0  0  0  0  0  0  0  0  0
    7.5064   -8.4098    6.0203 H   0  0  0  0  0  0  0  0  0  0  0  0
    6.1929   -9.3102    6.7900 H   0  0  0  0  0  0  0  0  0  0  0  0
    4.0085   -8.3607    7.9701 H   0  0  0  0  0  0  0  0  0  0  0  0
    2.9114   -7.0040    7.7850 H   0  0  0  0  0  0  0  0  0  0  0  0
    4.6327   -6.7346    7.9447 H   0  0  0  0  0  0  0  0  0  0  0  0
    7.4923   -5.6759    6.0781 H   0  0  0  0  0  0  0  0  0  0  0  0
    6.0761   -5.4131    7.0563 H   0  0  0  0  0  0  0  0  0  0  0  0
    6.4459   -4.3175    5.7448 H   0  0  0  0  0  0  0  0  0  0  0  0
  1  2  1  0
  1 33  1  0
  1 34  1  0
  1 35  1  0
  2  3  2  0
  2  4  1  0
  4  5  1  0
  5 27  1  0
  5  6  1  0
  5 36  1  6
  6  7  1  0
  6 37  1  0
  6 38  1  0
  7 24  1  0
  7  8  1  6
  7  9  1  0
  8 39  1  0
  8 40  1  0
  8 41  1  0
  9 10  2  3
  9 42  1  0
 10 20  1  0
 10 11  1  0
 11 12  2  0
 12 16  1  0
 12 13  1  0
 13 14  1  0
 13 15  1  0
 13 16  1  0
 14 43  1  0
 14 44  1  0
 14 45  1  0
 15 46  1  0
 15 47  1  0
 15 48  1  0
 16 17  1  6
 16 18  1  0
 17 49  1  0
 17 50  1  0
 17 51  1  0
 18 19  2  0
 18 20  1  0
 20 21  1  0
 20 52  1  6
 21 31  1  0
 21 22  1  0
 21 53  1  1
 22 23  1  0
 22 54  1  0
 22 55  1  0
 23 24  1  0
 23 56  1  0
 23 57  1  0
 24 25  1  0
 24 58  1  1
 25 31  1  0
 25 26  1  1
 25 27  1  0
 26 59  1  0
 26 60  1  0
 26 61  1  0
 27 28  1  1
 27 29  1  0
 28 62  1  0
 28 63  1  0
 28 64  1  0
 29 30  2  0
 29 31  1  0
 31 32  1  1
 32 65  1  0
 32 66  1  0
 32 67  1  0
M  END
>  <i_m_ct_stereo_status>  (361) 
1

>  <s_m_source_file>  (361) 
/var/tmp/pbs.5076255.sched01/tmphrhi8tfx/132_dydaaau.sdf

>  <i_m_source_file_index>  (361) 
38

>  <i_lp_mmshare_version>  (361) 
48012

>  <i_f3d_flags>  (361) 
0

>  <s_epik_input>  (361) 
W0NIM11DKD1PKU9bQ0BIXShbQ0gyXTEpW0NAQF0oW0NIM10pKFtDQEBdMihbQ0gzXSlbQ0BIXTNbQ0BAXTE0W0NIM10pQyg9TylbQ0BdMihbQ0gzXSlbQ0BASF0oW0NIMl1bQ0gyXTMpW0NASF01Qyg9W0NIXVw0KS9OPUM2QyhbQ0gzXSkoQzU9TylDNihbQ0gzXSlbQ0gzXQ==

>  <s_epik_cmdline>  (361) 
J2VwaWtfcHl0aG9uJywgJy1waHQnLCAnMi4wJywgJy1waCcsICc3LjAnLCAnLXRuJywgJzgnLCAnLW1hJywgJzIwMCcsICctaW1hZScsICc8aW5maWxlLm1hZT4nLCAnLW9tYWUnLCAnPG91dGZpbGUubWFlPic=

>  <r_lp_tautomer_probability>  (361) 
1

>  <r_epik_Ionization_Penalty>  (361) 
1.04711e-10

>  <r_epik_Ionization_Penalty_Charging>  (361) 
0

>  <r_epik_Ionization_Penalty_Neutral>  (361) 
1.04711e-10

>  <r_epik_State_Penalty>  (361) 
-0

>  <r_epik_Charging_Adjusted_Penalty>  (361) 
0

>  <i_epik_Tot_Q>  (361) 
0

>  <i_epik_Tot_abs_Q>  (361) 
0

>  <s_epik_Chemistry_Notes>  (361) 
This compound has an ester and may undergo hydrolysis at high or low pH. This compound has an imine and may undergo hydrolysis.

>  <s_lp_Force_Field>  (361) 
OPLS3e

>  <r_lp_Energy>  (361) 
76.0102

>  <b_lp_Chiralities_Consistent>  (361) 
1

>  <s_lp_Variant>  (361) 
117:0-1

>  <s_i_glide_gridfile>  (361) 
pfpi4k_grid

>  <i_i_glide_lignum>  (361) 
38

>  <i_i_glide_rotatable_bonds>  (361) 
2

>  <r_i_docking_score>  (361) 
-1.68911

>  <r_i_glide_ligand_efficiency>  (361) 
-0.0527848

>  <r_i_glide_ligand_efficiency_sa>  (361) 
-0.167581

>  <r_i_glide_ligand_efficiency_ln>  (361) 
-0.378238

>  <r_i_glide_gscore>  (361) 
-1.68911

>  <r_i_glide_lipo>  (361) 
-0.131285

>  <r_i_glide_hbond>  (361) 
0

>  <r_i_glide_metal>  (361) 
-0

>  <r_i_glide_rewards>  (361) 
-0.466866

>  <r_i_glide_evdw>  (361) 
-19.6932

>  <r_i_glide_ecoul>  (361) 
-1.06831

>  <r_i_glide_erotb>  (361) 
0.104155

>  <r_i_glide_esite>  (361) 
-0.05021

>  <r_i_glide_emodel>  (361) 
-23.0448

>  <r_i_glide_energy>  (361) 
-20.7615

>  <r_i_glide_einternal>  (361) 
0.316132

>  <r_i_glide_intrahb_reward>  (361) 
-0

>  <i_i_glide_confnum>  (361) 
3

>  <i_i_glide_posenum>  (361) 
12

>  <r_i_glide_eff_state_penalty>  (361) 
0

>  <ligand_id>  (361) 
117

>  <original_smiles>  (361) 
CC(=O)OC1CC2(C)C=C3N=C4C(C)(C)C4(C)C(=O)C3C3CCC2C2(C)C1(C)C(=O)C32C

>  <smiles>  (361) 
[H]C1=C2N=C3C(C([H])([H])[H])(C(=O)C2([H])C2([H])C([H])([H])C([H])([H])C4([H])C1(C([H])([H])[H])C([H])([H])C([H])(OC(=O)C([H])([H])[H])C1(C([H])([H])[H])C(=O)C2(C([H])([H])[H])C41C([H])([H])[H])C3(C([H])([H])[H])C([H])([H])[H]

$$$$
117:1:0
     RDKit          3D

 67 72  0  0  1  0  0  0  0  0999 V2000
   -1.3165   -8.6594    2.3027 C   0  0  0  0  0  0  0  0  0  0  0  0
   -0.0477   -7.8370    2.0891 C   0  0  0  0  0  0  0  0  0  0  0  0
   -0.1094   -6.6735    1.6819 O   0  0  0  0  0  0  0  0  0  0  0  0
    1.0698   -8.4957    2.4870 O   0  0  0  0  0  0  0  0  0  0  0  0
    2.3495   -7.8505    2.5607 C   0  0  2  0  0  0  0  0  0  0  0  0
    3.3504   -8.8694    1.9632 C   0  0  0  0  0  0  0  0  0  0  0  0
    4.8557   -8.7267    2.3070 C   0  0  1  0  0  0  0  0  0  0  0  0
    5.5469  -10.0443    1.8494 C   0  0  0  0  0  0  0  0  0  0  0  0
    5.5624   -7.5958    1.5464 C   0  0  0  0  0  0  0  0  0  0  0  0
    5.0935   -6.3490    1.4288 C   0  0  0  0  0  0  0  0  0  0  0  0
    4.0234   -6.0383    0.5683 N   0  0  0  0  0  0  0  0  0  0  0  0
    4.1199   -4.6267    0.3937 C   0  0  0  0  0  0  0  0  0  0  0  0
    3.7009   -3.1977    0.0473 C   0  0  0  0  0  0  0  0  0  0  0  0
    3.4361   -2.9588   -1.4336 C   0  0  0  0  0  0  0  0  0  0  0  0
    2.7031   -2.4727    0.9231 C   0  0  0  0  0  0  0  0  0  0  0  0
    5.0389   -3.4619    0.5726 C   0  0  2  0  0  0  0  0  0  0  0  0
    6.2096   -3.4853   -0.3676 C   0  0  0  0  0  0  0  0  0  0  0  0
    5.4049   -3.8059    2.0023 C   0  0  0  0  0  0  0  0  0  0  0  0
    5.4076   -2.9478    2.8719 O   0  0  0  0  0  0  0  0  0  0  0  0
    5.8294   -5.2903    2.3211 C   0  0  1  0  0  0  0  0  0  0  0  0
    5.8580   -5.7137    3.8579 C   0  0  2  0  0  0  0  0  0  0  0  0
    6.9696   -6.7519    4.1915 C   0  0  0  0  0  0  0  0  0  0  0  0
    6.5336   -8.2414    4.2893 C   0  0  0  0  0  0  0  0  0  0  0  0
    5.0743   -8.5835    3.8644 C   0  0  1  0  0  0  0  0  0  0  0  0
    4.1143   -7.6453    4.6299 C   0  0  2  0  0  0  0  0  0  0  0  0
    3.9844   -8.2573    6.0418 C   0  0  0  0  0  0  0  0  0  0  0  0
    2.7123   -7.3281    3.9899 C   0  0  2  0  0  0  0  0  0  0  0  0
    1.4821   -7.3598    4.9301 C   0  0  0  0  0  0  0  0  0  0  0  0
    3.1762   -5.8450    3.9104 C   0  0  0  0  0  0  0  0  0  0  0  0
    2.6347   -4.8159    3.4884 O   0  0  0  0  0  0  0  0  0  0  0  0
    4.5360   -6.1255    4.6099 C   0  0  2  0  0  0  0  0  0  0  0  0
    4.5667   -5.3861    5.9594 C   0  0  0  0  0  0  0  0  0  0  0  0
   -1.3917   -8.9749    3.3439 H   0  0  0  0  0  0  0  0  0  0  0  0
   -1.3207   -9.5489    1.6722 H   0  0  0  0  0  0  0  0  0  0  0  0
   -2.1961   -8.0556    2.0760 H   0  0  0  0  0  0  0  0  0  0  0  0
    2.3098   -7.0068    1.8760 H   0  0  0  0  0  0  0  0  0  0  0  0
    3.0460   -9.8628    2.2990 H   0  0  0  0  0  0  0  0  0  0  0  0
    3.2210   -8.9032    0.8805 H   0  0  0  0  0  0  0  0  0  0  0  0
    5.1618  -10.9251    2.3777 H   0  0  0  0  0  0  0  0  0  0  0  0
    6.6269  -10.0330    2.0080 H   0  0  0  0  0  0  0  0  0  0  0  0
    5.4017  -10.2250    0.7836 H   0  0  0  0  0  0  0  0  0  0  0  0
    6.5824   -7.6536    1.8745 H   0  0  0  0  0  0  0  0  0  0  0  0
    3.6963   -1.9235   -1.6697 H   0  0  0  0  0  0  0  0  0  0  0  0
    2.3730   -3.0986   -1.6687 H   0  0  0  0  0  0  0  0  0  0  0  0
    4.0234   -3.6311   -2.0589 H   0  0  0  0  0  0  0  0  0  0  0  0
    2.8444   -1.4030    0.7738 H   0  0  0  0  0  0  0  0  0  0  0  0
    2.8379   -2.6909    1.9838 H   0  0  0  0  0  0  0  0  0  0  0  0
    1.6956   -2.7089    0.6227 H   0  0  0  0  0  0  0  0  0  0  0  0
    7.1459   -3.7270    0.1421 H   0  0  0  0  0  0  0  0  0  0  0  0
    6.3028   -2.4969   -0.8283 H   0  0  0  0  0  0  0  0  0  0  0  0
    6.0392   -4.2119   -1.1757 H   0  0  0  0  0  0  0  0  0  0  0  0
    6.8642   -5.3146    1.9785 H   0  0  0  0  0  0  0  0  0  0  0  0
    6.2507   -4.8006    4.3092 H   0  0  0  0  0  0  0  0  0  0  0  0
    7.7750   -6.6771    3.4644 H   0  0  0  0  0  0  0  0  0  0  0  0
    7.4322   -6.4712    5.1386 H   0  0  0  0  0  0  0  0  0  0  0  0
    7.2555   -8.8819    3.7834 H   0  0  0  0  0  0  0  0  0  0  0  0
    6.6491   -8.5178    5.3336 H   0  0  0  0  0  0  0  0  0  0  0  0
    4.8988   -9.5979    4.2403 H   0  0  0  0  0  0  0  0  0  0  0  0
    3.3530   -7.6692    6.7022 H   0  0  0  0  0  0  0  0  0  0  0  0
    4.9305   -8.3248    6.5737 H   0  0  0  0  0  0  0  0  0  0  0  0
    3.5314   -9.2482    6.0125 H   0  0  0  0  0  0  0  0  0  0  0  0
    1.2520   -8.3902    5.2067 H   0  0  0  0  0  0  0  0  0  0  0  0
    0.5789   -6.9272    4.5034 H   0  0  0  0  0  0  0  0  0  0  0  0
    1.6252   -6.7879    5.8480 H   0  0  0  0  0  0  0  0  0  0  0  0
    5.3443   -5.8036    6.6003 H   0  0  0  0  0  0  0  0  0  0  0  0
    3.6305   -5.4677    6.5104 H   0  0  0  0  0  0  0  0  0  0  0  0
    4.7845   -4.3182    5.8668 H   0  0  0  0  0  0  0  0  0  0  0  0
  1  2  1  0
  1 33  1  0
  1 34  1  0
  1 35  1  0
  2  3  2  0
  2  4  1  0
  4  5  1  0
  5 27  1  0
  5  6  1  0
  5 36  1  6
  6  7  1  0
  6 37  1  0
  6 38  1  0
  7 24  1  0
  7  8  1  6
  7  9  1  0
  8 39  1  0
  8 40  1  0
  8 41  1  0
  9 10  2  3
  9 42  1  0
 10 20  1  0
 10 11  1  0
 11 12  2  0
 12 16  1  0
 12 13  1  0
 13 14  1  0
 13 15  1  0
 13 16  1  0
 14 43  1  0
 14 44  1  0
 14 45  1  0
 15 46  1  0
 15 47  1  0
 15 48  1  0
 16 17  1  6
 16 18  1  0
 17 49  1  0
 17 50  1  0
 17 51  1  0
 18 19  2  0
 18 20  1  0
 20 21  1  0
 20 52  1  6
 21 31  1  0
 21 22  1  0
 21 53  1  1
 22 23  1  0
 22 54  1  0
 22 55  1  0
 23 24  1  0
 23 56  1  0
 23 57  1  0
 24 25  1  0
 24 58  1  1
 25 31  1  0
 25 26  1  1
 25 27  1  0
 26 59  1  0
 26 60  1  0
 26 61  1  0
 27 28  1  1
 27 29  1  0
 28 62  1  0
 28 63  1  0
 28 64  1  0
 29 30  2  0
 29 31  1  0
 31 32  1  1
 32 65  1  0
 32 66  1  0
 32 67  1  0
M  END
>  <i_m_ct_stereo_status>  (362) 
1

>  <s_m_source_file>  (362) 
/var/tmp/pbs.5076255.sched01/tmphrhi8tfx/132_dydaaau.sdf

>  <i_m_source_file_index>  (362) 
39

>  <i_lp_mmshare_version>  (362) 
48012

>  <i_f3d_flags>  (362) 
0

>  <s_epik_input>  (362) 
W0NIM11DKD1PKU9bQ0BIXShbQ0gyXTEpW0NAQF0oW0NIM10pKFtDQEBdMihbQ0gzXSlbQ0BIXTNbQ0BAXTE0W0NIM10pQyg9TylbQ0BdMihbQ0gzXSlbQ0BASF0oW0NIMl1bQ0gyXTMpW0NASF01Qyg9W0NIXVw0KS9OPUM2QyhbQ0gzXSkoQzU9TylDNihbQ0gzXSlbQ0gzXQ==

>  <s_epik_cmdline>  (362) 
J2VwaWtfcHl0aG9uJywgJy1waHQnLCAnMi4wJywgJy1waCcsICc3LjAnLCAnLXRuJywgJzgnLCAnLW1hJywgJzIwMCcsICctaW1hZScsICc8aW5maWxlLm1hZT4nLCAnLW9tYWUnLCAnPG91dGZpbGUubWFlPic=

>  <r_lp_tautomer_probability>  (362) 
1

>  <r_epik_Ionization_Penalty>  (362) 
1.04711e-10

>  <r_epik_Ionization_Penalty_Charging>  (362) 
0

>  <r_epik_Ionization_Penalty_Neutral>  (362) 
1.04711e-10

>  <r_epik_State_Penalty>  (362) 
-0

>  <r_epik_Charging_Adjusted_Penalty>  (362) 
0

>  <i_epik_Tot_Q>  (362) 
0

>  <i_epik_Tot_abs_Q>  (362) 
0

>  <s_epik_Chemistry_Notes>  (362) 
This compound has an ester and may undergo hydrolysis at high or low pH. This compound has an imine and may undergo hydrolysis.

>  <s_lp_Force_Field>  (362) 
OPLS3e

>  <r_lp_Energy>  (362) 
103.164

>  <b_lp_Chiralities_Consistent>  (362) 
1

>  <s_lp_Variant>  (362) 
117:0-2

>  <s_i_glide_gridfile>  (362) 
pfpi4k_grid

>  <i_i_glide_lignum>  (362) 
39

>  <i_i_glide_rotatable_bonds>  (362) 
2

>  <r_i_docking_score>  (362) 
-2.6191

>  <r_i_glide_ligand_efficiency>  (362) 
-0.0818469

>  <r_i_glide_ligand_efficiency_sa>  (362) 
-0.259848

>  <r_i_glide_ligand_efficiency_ln>  (362) 
-0.586488

>  <r_i_glide_gscore>  (362) 
-2.6191

>  <r_i_glide_lipo>  (362) 
-0.390968

>  <r_i_glide_hbond>  (362) 
-0.198316

>  <r_i_glide_metal>  (362) 
-0

>  <r_i_glide_rewards>  (362) 
-0.523133

>  <r_i_glide_evdw>  (362) 
-24.4164

>  <r_i_glide_ecoul>  (362) 
-2.15812

>  <r_i_glide_erotb>  (362) 
0.104155

>  <r_i_glide_esite>  (362) 
-0.0663009

>  <r_i_glide_emodel>  (362) 
-28.7606

>  <r_i_glide_energy>  (362) 
-26.5745

>  <r_i_glide_einternal>  (362) 
0.425878

>  <r_i_glide_intrahb_reward>  (362) 
-0

>  <i_i_glide_confnum>  (362) 
4

>  <i_i_glide_posenum>  (362) 
16

>  <r_i_glide_eff_state_penalty>  (362) 
0

>  <ligand_id>  (362) 
117

>  <original_smiles>  (362) 
CC(=O)OC1CC2(C)C=C3N=C4C(C)(C)C4(C)C(=O)C3C3CCC2C2(C)C1(C)C(=O)C32C

>  <smiles>  (362) 
[H]C1=C2N=C3C(C([H])([H])[H])(C(=O)C2([H])C2([H])C([H])([H])C([H])([H])C4([H])C1(C([H])([H])[H])C([H])([H])C([H])(OC(=O)C([H])([H])[H])C1(C([H])([H])[H])C(=O)C2(C([H])([H])[H])C41C([H])([H])[H])C3(C([H])([H])[H])C([H])([H])[H]

$$$$
117:1:1
     RDKit          3D

 67 72  0  0  1  0  0  0  0  0999 V2000
   -0.8894   -8.3034    2.0918 C   0  0  0  0  0  0  0  0  0  0  0  0
    0.3312   -7.4523    1.7365 C   0  0  0  0  0  0  0  0  0  0  0  0
    0.2599   -6.5505    0.9149 O   0  0  0  0  0  0  0  0  0  0  0  0
    1.4217   -7.8322    2.4429 O   0  0  0  0  0  0  0  0  0  0  0  0
    2.6974   -7.2117    2.2481 C   0  0  2  0  0  0  0  0  0  0  0  0
    3.6402   -8.3639    1.8275 C   0  0  0  0  0  0  0  0  0  0  0  0
    5.1609   -8.1845    2.0030 C   0  0  1  0  0  0  0  0  0  0  0  0
    5.8105   -9.5801    1.7988 C   0  0  0  0  0  0  0  0  0  0  0  0
    5.8101   -7.2690    0.9719 C   0  0  0  0  0  0  0  0  0  0  0  0
    5.3579   -6.0735    0.5730 C   0  0  0  0  0  0  0  0  0  0  0  0
    4.1797   -5.8993   -0.1454 N   0  0  0  0  0  0  0  0  0  0  0  0
    4.2237   -4.6198   -0.7321 C   0  0  0  0  0  0  0  0  0  0  0  0
    3.8016   -3.3390   -1.4136 C   0  0  0  0  0  0  0  0  0  0  0  0
    3.4115   -3.4377   -2.8900 C   0  0  0  0  0  0  0  0  0  0  0  0
    2.8801   -2.4217   -0.6633 C   0  0  0  0  0  0  0  0  0  0  0  0
    5.1884   -3.4911   -0.9573 C   0  0  2  0  0  0  0  0  0  0  0  0
    6.2263   -3.7064   -2.0179 C   0  0  0  0  0  0  0  0  0  0  0  0
    5.7119   -3.4705    0.4533 C   0  0  0  0  0  0  0  0  0  0  0  0
    5.7582   -2.4226    1.0832 O   0  0  0  0  0  0  0  0  0  0  0  0
    6.1607   -4.8463    1.0811 C   0  0  1  0  0  0  0  0  0  0  0  0
    6.2868   -4.8711    2.6579 C   0  0  2  0  0  0  0  0  0  0  0  0
    7.4299   -5.8454    3.1203 C   0  0  0  0  0  0  0  0  0  0  0  0
    7.0134   -7.2592    3.6323 C   0  0  0  0  0  0  0  0  0  0  0  0
    5.5200   -7.6648    3.4434 C   0  0  1  0  0  0  0  0  0  0  0  0
    4.6204   -6.5423    4.0364 C   0  0  2  0  0  0  0  0  0  0  0  0
    4.6333   -6.7762    5.5697 C   0  0  0  0  0  0  0  0  0  0  0  0
    3.1681   -6.3568    3.4595 C   0  0  2  0  0  0  0  0  0  0  0  0
    2.0223   -6.1548    4.4717 C   0  0  0  0  0  0  0  0  0  0  0  0
    3.6214   -4.9402    2.9894 C   0  0  0  0  0  0  0  0  0  0  0  0
    3.0629   -4.0321    2.3908 O   0  0  0  0  0  0  0  0  0  0  0  0
    5.0416   -5.0754    3.6043 C   0  0  2  0  0  0  0  0  0  0  0  0
    5.2267   -4.0496    4.7420 C   0  0  0  0  0  0  0  0  0  0  0  0
   -1.1284   -8.2274    3.1498 H   0  0  0  0  0  0  0  0  0  0  0  0
   -0.7055   -9.3484    1.8458 H   0  0  0  0  0  0  0  0  0  0  0  0
   -1.7568   -7.9777    1.5224 H   0  0  0  0  0  0  0  0  0  0  0  0
    2.5896   -6.5517    1.3980 H   0  0  0  0  0  0  0  0  0  0  0  0
    3.3639   -9.2459    2.4019 H   0  0  0  0  0  0  0  0  0  0  0  0
    3.4226   -8.6380    0.7970 H   0  0  0  0  0  0  0  0  0  0  0  0
    5.4825  -10.2958    2.5537 H   0  0  0  0  0  0  0  0  0  0  0  0
    6.8996   -9.5554    1.8443 H   0  0  0  0  0  0  0  0  0  0  0  0
    5.5576  -10.0093    0.8304 H   0  0  0  0  0  0  0  0  0  0  0  0
    6.8675   -7.2970    1.1569 H   0  0  0  0  0  0  0  0  0  0  0  0
    3.6528   -2.4976   -3.3888 H   0  0  0  0  0  0  0  0  0  0  0  0
    2.3354   -3.5935   -3.0128 H   0  0  0  0  0  0  0  0  0  0  0  0
    3.9240   -4.2362   -3.4192 H   0  0  0  0  0  0  0  0  0  0  0  0
    2.9951   -1.4229   -1.0969 H   0  0  0  0  0  0  0  0  0  0  0  0
    3.1321   -2.3352    0.3946 H   0  0  0  0  0  0  0  0  0  0  0  0
    1.8761   -2.7464   -0.7849 H   0  0  0  0  0  0  0  0  0  0  0  0
    7.2165   -3.8635   -1.5826 H   0  0  0  0  0  0  0  0  0  0  0  0
    6.2764   -2.8464   -2.6825 H   0  0  0  0  0  0  0  0  0  0  0  0
    5.8605   -4.5278   -2.6378 H   0  0  0  0  0  0  0  0  0  0  0  0
    7.1559   -4.9764    0.6676 H   0  0  0  0  0  0  0  0  0  0  0  0
    6.6238   -3.8625    2.8348 H   0  0  0  0  0  0  0  0  0  0  0  0
    8.1809   -5.9649    2.3430 H   0  0  0  0  0  0  0  0  0  0  0  0
    7.9865   -5.4086    3.9431 H   0  0  0  0  0  0  0  0  0  0  0  0
    7.6909   -8.0265    3.2483 H   0  0  0  0  0  0  0  0  0  0  0  0
    7.2291   -7.2683    4.6996 H   0  0  0  0  0  0  0  0  0  0  0  0
    5.3721   -8.5476    4.0712 H   0  0  0  0  0  0  0  0  0  0  0  0
    4.0662   -6.0280    6.1192 H   0  0  0  0  0  0  0  0  0  0  0  0
    5.6315   -6.7330    6.0030 H   0  0  0  0  0  0  0  0  0  0  0  0
    4.1895   -7.7366    5.8253 H   0  0  0  0  0  0  0  0  0  0  0  0
    1.8608   -7.0797    5.0247 H   0  0  0  0  0  0  0  0  0  0  0  0
    1.0797   -5.8835    3.9990 H   0  0  0  0  0  0  0  0  0  0  0  0
    2.2247   -5.3712    5.2018 H   0  0  0  0  0  0  0  0  0  0  0  0
    6.0716   -4.3271    5.3749 H   0  0  0  0  0  0  0  0  0  0  0  0
    4.3664   -3.9571    5.3907 H   0  0  0  0  0  0  0  0  0  0  0  0
    5.4429   -3.0405    4.3903 H   0  0  0  0  0  0  0  0  0  0  0  0
  1  2  1  0
  1 33  1  0
  1 34  1  0
  1 35  1  0
  2  3  2  0
  2  4  1  0
  4  5  1  0
  5 27  1  0
  5  6  1  0
  5 36  1  6
  6  7  1  0
  6 37  1  0
  6 38  1  0
  7 24  1  0
  7  8  1  1
  7  9  1  0
  8 39  1  0
  8 40  1  0
  8 41  1  0
  9 10  2  3
  9 42  1  0
 10 20  1  0
 10 11  1  0
 11 12  2  0
 12 16  1  0
 12 13  1  0
 13 14  1  0
 13 15  1  0
 13 16  1  0
 14 43  1  0
 14 44  1  0
 14 45  1  0
 15 46  1  0
 15 47  1  0
 15 48  1  0
 16 17  1  6
 16 18  1  0
 17 49  1  0
 17 50  1  0
 17 51  1  0
 18 19  2  0
 18 20  1  0
 20 21  1  0
 20 52  1  6
 21 31  1  0
 21 22  1  0
 21 53  1  1
 22 23  1  0
 22 54  1  0
 22 55  1  0
 23 24  1  0
 23 56  1  0
 23 57  1  0
 24 25  1  0
 24 58  1  1
 25 31  1  0
 25 26  1  1
 25 27  1  0
 26 59  1  0
 26 60  1  0
 26 61  1  0
 27 28  1  1
 27 29  1  0
 28 62  1  0
 28 63  1  0
 28 64  1  0
 29 30  2  0
 29 31  1  0
 31 32  1  1
 32 65  1  0
 32 66  1  0
 32 67  1  0
M  END
>  <i_m_ct_stereo_status>  (363) 
1

>  <s_m_source_file>  (363) 
/var/tmp/pbs.5076255.sched01/tmphrhi8tfx/132_dydaaau.sdf

>  <i_m_source_file_index>  (363) 
39

>  <i_lp_mmshare_version>  (363) 
48012

>  <i_f3d_flags>  (363) 
0

>  <s_epik_input>  (363) 
W0NIM11DKD1PKU9bQ0BIXShbQ0gyXTEpW0NAQF0oW0NIM10pKFtDQEBdMihbQ0gzXSlbQ0BIXTNbQ0BAXTE0W0NIM10pQyg9TylbQ0BdMihbQ0gzXSlbQ0BASF0oW0NIMl1bQ0gyXTMpW0NASF01Qyg9W0NIXVw0KS9OPUM2QyhbQ0gzXSkoQzU9TylDNihbQ0gzXSlbQ0gzXQ==

>  <s_epik_cmdline>  (363) 
J2VwaWtfcHl0aG9uJywgJy1waHQnLCAnMi4wJywgJy1waCcsICc3LjAnLCAnLXRuJywgJzgnLCAnLW1hJywgJzIwMCcsICctaW1hZScsICc8aW5maWxlLm1hZT4nLCAnLW9tYWUnLCAnPG91dGZpbGUubWFlPic=

>  <r_lp_tautomer_probability>  (363) 
1

>  <r_epik_Ionization_Penalty>  (363) 
1.04711e-10

>  <r_epik_Ionization_Penalty_Charging>  (363) 
0

>  <r_epik_Ionization_Penalty_Neutral>  (363) 
1.04711e-10

>  <r_epik_State_Penalty>  (363) 
-0

>  <r_epik_Charging_Adjusted_Penalty>  (363) 
0

>  <i_epik_Tot_Q>  (363) 
0

>  <i_epik_Tot_abs_Q>  (363) 
0

>  <s_epik_Chemistry_Notes>  (363) 
This compound has an ester and may undergo hydrolysis at high or low pH. This compound has an imine and may undergo hydrolysis.

>  <s_lp_Force_Field>  (363) 
OPLS3e

>  <r_lp_Energy>  (363) 
103.164

>  <b_lp_Chiralities_Consistent>  (363) 
1

>  <s_lp_Variant>  (363) 
117:0-2

>  <s_i_glide_gridfile>  (363) 
pfpi4k_grid

>  <i_i_glide_lignum>  (363) 
39

>  <i_i_glide_rotatable_bonds>  (363) 
2

>  <r_i_docking_score>  (363) 
-1.96414

>  <r_i_glide_ligand_efficiency>  (363) 
-0.0613793

>  <r_i_glide_ligand_efficiency_sa>  (363) 
-0.194867

>  <r_i_glide_ligand_efficiency_ln>  (363) 
-0.439824

>  <r_i_glide_gscore>  (363) 
-1.96414

>  <r_i_glide_lipo>  (363) 
-0.542569

>  <r_i_glide_hbond>  (363) 
-0.16

>  <r_i_glide_metal>  (363) 
-0

>  <r_i_glide_rewards>  (363) 
-0.50702

>  <r_i_glide_evdw>  (363) 
-10.7119

>  <r_i_glide_ecoul>  (363) 
-1.42084

>  <r_i_glide_erotb>  (363) 
0.104155

>  <r_i_glide_esite>  (363) 
-0.109986

>  <r_i_glide_emodel>  (363) 
-13.8206

>  <r_i_glide_energy>  (363) 
-12.1327

>  <r_i_glide_einternal>  (363) 
0.424594

>  <r_i_glide_intrahb_reward>  (363) 
-0

>  <i_i_glide_confnum>  (363) 
2

>  <i_i_glide_posenum>  (363) 
11

>  <r_i_glide_eff_state_penalty>  (363) 
0

>  <ligand_id>  (363) 
117

>  <original_smiles>  (363) 
CC(=O)OC1CC2(C)C=C3N=C4C(C)(C)C4(C)C(=O)C3C3CCC2C2(C)C1(C)C(=O)C32C

>  <smiles>  (363) 
[H]C1=C2N=C3C(C([H])([H])[H])(C(=O)C2([H])C2([H])C([H])([H])C([H])([H])C4([H])C1(C([H])([H])[H])C([H])([H])C([H])(OC(=O)C([H])([H])[H])C1(C([H])([H])[H])C(=O)C2(C([H])([H])[H])C41C([H])([H])[H])C3(C([H])([H])[H])C([H])([H])[H]

$$$$
117:1:2
     RDKit          3D

 67 72  0  0  1  0  0  0  0  0999 V2000
   -0.1902   -8.1979    2.0346 C   0  0  0  0  0  0  0  0  0  0  0  0
    0.7850   -7.1240    1.5525 C   0  0  0  0  0  0  0  0  0  0  0  0
    0.5642   -6.4752    0.5281 O   0  0  0  0  0  0  0  0  0  0  0  0
    1.7685   -6.8621    2.4683 O   0  0  0  0  0  0  0  0  0  0  0  0
    2.6824   -5.7615    2.3085 C   0  0  2  0  0  0  0  0  0  0  0  0
    4.0382   -6.2822    2.8502 C   0  0  0  0  0  0  0  0  0  0  0  0
    5.1161   -5.2427    3.2677 C   0  0  1  0  0  0  0  0  0  0  0  0
    6.1905   -6.0336    4.0668 C   0  0  0  0  0  0  0  0  0  0  0  0
    5.8619   -4.5955    2.0794 C   0  0  0  0  0  0  0  0  0  0  0  0
    5.2622   -4.0552    1.0230 C   0  0  0  0  0  0  0  0  0  0  0  0
    4.6504   -4.8761    0.0317 N   0  0  0  0  0  0  0  0  0  0  0  0
    4.5285   -4.0416   -1.1041 C   0  0  0  0  0  0  0  0  0  0  0  0
    4.0390   -3.5009   -2.4711 C   0  0  0  0  0  0  0  0  0  0  0  0
    4.5140   -4.2291   -3.7138 C   0  0  0  0  0  0  0  0  0  0  0  0
    2.6115   -2.9977   -2.6375 C   0  0  0  0  0  0  0  0  0  0  0  0
    4.9780   -2.7272   -1.6313 C   0  0  2  0  0  0  0  0  0  0  0  0
    6.4514   -2.7125   -1.9977 C   0  0  0  0  0  0  0  0  0  0  0  0
    4.6820   -1.9121   -0.3821 C   0  0  0  0  0  0  0  0  0  0  0  0
    4.0955   -0.8413   -0.4367 O   0  0  0  0  0  0  0  0  0  0  0  0
    5.1984   -2.4890    0.9907 C   0  0  1  0  0  0  0  0  0  0  0  0
    4.5479   -1.8549    2.3214 C   0  0  2  0  0  0  0  0  0  0  0  0
    5.5374   -1.8225    3.4854 C   0  0  0  0  0  0  0  0  0  0  0  0
    5.4141   -2.9527    4.5622 C   0  0  0  0  0  0  0  0  0  0  0  0
    4.4890   -4.1468    4.2306 C   0  0  1  0  0  0  0  0  0  0  0  0
    3.1088   -3.5608    3.8711 C   0  0  2  0  0  0  0  0  0  0  0  0
    2.4190   -3.2202    5.2214 C   0  0  0  0  0  0  0  0  0  0  0  0
    2.1963   -4.3988    2.9251 C   0  0  2  0  0  0  0  0  0  0  0  0
    0.7326   -4.5146    3.3726 C   0  0  0  0  0  0  0  0  0  0  0  0
    2.4173   -3.2466    1.8868 C   0  0  0  0  0  0  0  0  0  0  0  0
    2.2366   -3.1101    0.6747 O   0  0  0  0  0  0  0  0  0  0  0  0
    3.1642   -2.3491    2.8637 C   0  0  2  0  0  0  0  0  0  0  0  0
    2.3542   -1.0851    3.2227 C   0  0  0  0  0  0  0  0  0  0  0  0
   -0.5850   -7.9497    3.0216 H   0  0  0  0  0  0  0  0  0  0  0  0
    0.3067   -9.1638    2.0849 H   0  0  0  0  0  0  0  0  0  0  0  0
   -1.0313   -8.2744    1.3459 H   0  0  0  0  0  0  0  0  0  0  0  0
    2.7863   -5.6436    1.2323 H   0  0  0  0  0  0  0  0  0  0  0  0
    3.8155   -6.9021    3.7307 H   0  0  0  0  0  0  0  0  0  0  0  0
    4.4675   -6.9687    2.1121 H   0  0  0  0  0  0  0  0  0  0  0  0
    5.7839   -6.4901    4.9741 H   0  0  0  0  0  0  0  0  0  0  0  0
    7.0199   -5.4004    4.3805 H   0  0  0  0  0  0  0  0  0  0  0  0
    6.6194   -6.8369    3.4642 H   0  0  0  0  0  0  0  0  0  0  0  0
    6.6138   -3.9593    2.5166 H   0  0  0  0  0  0  0  0  0  0  0  0
    4.6905   -3.5445   -4.5172 H   0  0  0  0  0  0  0  0  0  0  0  0
    3.8177   -4.9671   -4.0976 H   0  0  0  0  0  0  0  0  0  0  0  0
    5.4159   -4.7346   -3.4846 H   0  0  0  0  0  0  0  0  0  0  0  0
    2.5824   -2.2896   -3.4702 H   0  0  0  0  0  0  0  0  0  0  0  0
    2.2446   -2.4682   -1.7552 H   0  0  0  0  0  0  0  0  0  0  0  0
    1.9261   -3.8158   -2.8604 H   0  0  0  0  0  0  0  0  0  0  0  0
    7.0697   -2.0790   -1.3533 H   0  0  0  0  0  0  0  0  0  0  0  0
    6.5012   -2.3272   -3.0169 H   0  0  0  0  0  0  0  0  0  0  0  0
    6.8944   -3.7055   -2.0324 H   0  0  0  0  0  0  0  0  0  0  0  0
    6.2516   -2.1896    0.9773 H   0  0  0  0  0  0  0  0  0  0  0  0
    4.4580   -0.8116    2.0308 H   0  0  0  0  0  0  0  0  0  0  0  0
    6.5145   -1.7372    3.0193 H   0  0  0  0  0  0  0  0  0  0  0  0
    5.4007   -0.8757    4.0010 H   0  0  0  0  0  0  0  0  0  0  0  0
    6.3798   -3.3186    4.8910 H   0  0  0  0  0  0  0  0  0  0  0  0
    5.0468   -2.4736    5.4660 H   0  0  0  0  0  0  0  0  0  0  0  0
    4.3568   -4.6860    5.1730 H   0  0  0  0  0  0  0  0  0  0  0  0
    1.4357   -2.7622    5.1050 H   0  0  0  0  0  0  0  0  0  0  0  0
    2.9699   -2.4934    5.8128 H   0  0  0  0  0  0  0  0  0  0  0  0
    2.2595   -4.1114    5.8332 H   0  0  0  0  0  0  0  0  0  0  0  0
    0.6394   -5.1189    4.2749 H   0  0  0  0  0  0  0  0  0  0  0  0
    0.1754   -5.0134    2.6198 H   0  0  0  0  0  0  0  0  0  0  0  0
    0.2066   -3.5732    3.5310 H   0  0  0  0  0  0  0  0  0  0  0  0
    2.7876   -0.6026    4.1042 H   0  0  0  0  0  0  0  0  0  0  0  0
    1.3060   -1.2924    3.4399 H   0  0  0  0  0  0  0  0  0  0  0  0
    2.3606   -0.3440    2.4198 H   0  0  0  0  0  0  0  0  0  0  0  0
  1  2  1  0
  1 33  1  0
  1 34  1  0
  1 35  1  0
  2  3  2  0
  2  4  1  0
  4  5  1  0
  5 27  1  0
  5  6  1  0
  5 36  1  6
  6  7  1  0
  6 37  1  0
  6 38  1  0
  7 24  1  0
  7  8  1  1
  7  9  1  0
  8 39  1  0
  8 40  1  0
  8 41  1  0
  9 10  2  3
  9 42  1  0
 10 20  1  0
 10 11  1  0
 11 12  2  0
 12 16  1  0
 12 13  1  0
 13 14  1  0
 13 15  1  0
 13 16  1  0
 14 43  1  0
 14 44  1  0
 14 45  1  0
 15 46  1  0
 15 47  1  0
 15 48  1  0
 16 17  1  6
 16 18  1  0
 17 49  1  0
 17 50  1  0
 17 51  1  0
 18 19  2  0
 18 20  1  0
 20 21  1  0
 20 52  1  1
 21 31  1  0
 21 22  1  0
 21 53  1  6
 22 23  1  0
 22 54  1  0
 22 55  1  0
 23 24  1  0
 23 56  1  0
 23 57  1  0
 24 25  1  0
 24 58  1  1
 25 31  1  0
 25 26  1  1
 25 27  1  0
 26 59  1  0
 26 60  1  0
 26 61  1  0
 27 28  1  1
 27 29  1  0
 28 62  1  0
 28 63  1  0
 28 64  1  0
 29 30  2  0
 29 31  1  0
 31 32  1  1
 32 65  1  0
 32 66  1  0
 32 67  1  0
M  END
>  <i_m_ct_stereo_status>  (364) 
1

>  <s_m_source_file>  (364) 
/var/tmp/pbs.5076255.sched01/tmphrhi8tfx/132_dydaaau.sdf

>  <i_m_source_file_index>  (364) 
39

>  <i_lp_mmshare_version>  (364) 
48012

>  <i_f3d_flags>  (364) 
0

>  <s_epik_input>  (364) 
W0NIM11DKD1PKU9bQ0BIXShbQ0gyXTEpW0NAQF0oW0NIM10pKFtDQEBdMihbQ0gzXSlbQ0BIXTNbQ0BAXTE0W0NIM10pQyg9TylbQ0BdMihbQ0gzXSlbQ0BASF0oW0NIMl1bQ0gyXTMpW0NASF01Qyg9W0NIXVw0KS9OPUM2QyhbQ0gzXSkoQzU9TylDNihbQ0gzXSlbQ0gzXQ==

>  <s_epik_cmdline>  (364) 
J2VwaWtfcHl0aG9uJywgJy1waHQnLCAnMi4wJywgJy1waCcsICc3LjAnLCAnLXRuJywgJzgnLCAnLW1hJywgJzIwMCcsICctaW1hZScsICc8aW5maWxlLm1hZT4nLCAnLW9tYWUnLCAnPG91dGZpbGUubWFlPic=

>  <r_lp_tautomer_probability>  (364) 
1

>  <r_epik_Ionization_Penalty>  (364) 
1.04711e-10

>  <r_epik_Ionization_Penalty_Charging>  (364) 
0

>  <r_epik_Ionization_Penalty_Neutral>  (364) 
1.04711e-10

>  <r_epik_State_Penalty>  (364) 
-0

>  <r_epik_Charging_Adjusted_Penalty>  (364) 
0

>  <i_epik_Tot_Q>  (364) 
0

>  <i_epik_Tot_abs_Q>  (364) 
0

>  <s_epik_Chemistry_Notes>  (364) 
This compound has an ester and may undergo hydrolysis at high or low pH. This compound has an imine and may undergo hydrolysis.

>  <s_lp_Force_Field>  (364) 
OPLS3e

>  <r_lp_Energy>  (364) 
103.164

>  <b_lp_Chiralities_Consistent>  (364) 
1

>  <s_lp_Variant>  (364) 
117:0-2

>  <s_i_glide_gridfile>  (364) 
pfpi4k_grid

>  <i_i_glide_lignum>  (364) 
39

>  <i_i_glide_rotatable_bonds>  (364) 
2

>  <r_i_docking_score>  (364) 
-1.58195

>  <r_i_glide_ligand_efficiency>  (364) 
-0.0494358

>  <r_i_glide_ligand_efficiency_sa>  (364) 
-0.156949

>  <r_i_glide_ligand_efficiency_ln>  (364) 
-0.354241

>  <r_i_glide_gscore>  (364) 
-1.58195

>  <r_i_glide_lipo>  (364) 
-0.235062

>  <r_i_glide_hbond>  (364) 
-0.227575

>  <r_i_glide_metal>  (364) 
-0

>  <r_i_glide_rewards>  (364) 
-0.425652

>  <r_i_glide_evdw>  (364) 
-12.3068

>  <r_i_glide_ecoul>  (364) 
-0.748281

>  <r_i_glide_erotb>  (364) 
0.104155

>  <r_i_glide_esite>  (364) 
-0.119056

>  <r_i_glide_emodel>  (364) 
-11.5016

>  <r_i_glide_energy>  (364) 
-13.0551

>  <r_i_glide_einternal>  (364) 
0.873338

>  <r_i_glide_intrahb_reward>  (364) 
-0

>  <i_i_glide_confnum>  (364) 
2

>  <i_i_glide_posenum>  (364) 
29

>  <r_i_glide_eff_state_penalty>  (364) 
0

>  <ligand_id>  (364) 
117

>  <original_smiles>  (364) 
CC(=O)OC1CC2(C)C=C3N=C4C(C)(C)C4(C)C(=O)C3C3CCC2C2(C)C1(C)C(=O)C32C

>  <smiles>  (364) 
[H]C1=C2N=C3C(C([H])([H])[H])(C(=O)C2([H])C2([H])C([H])([H])C([H])([H])C4([H])C1(C([H])([H])[H])C([H])([H])C([H])(OC(=O)C([H])([H])[H])C1(C([H])([H])[H])C(=O)C2(C([H])([H])[H])C41C([H])([H])[H])C3(C([H])([H])[H])C([H])([H])[H]

$$$$
117:2:0
     RDKit          3D

 67 72  0  0  1  0  0  0  0  0999 V2000
   -1.7108   -4.4888    7.2327 C   0  0  0  0  0  0  0  0  0  0  0  0
   -0.9416   -3.3881    6.5011 C   0  0  0  0  0  0  0  0  0  0  0  0
   -1.5111   -2.3808    6.0851 O   0  0  0  0  0  0  0  0  0  0  0  0
    0.3747   -3.6614    6.3871 O   0  0  0  0  0  0  0  0  0  0  0  0
    1.2763   -2.7566    5.7350 C   0  0  2  0  0  0  0  0  0  0  0  0
    1.7443   -3.3896    4.4318 C   0  0  0  0  0  0  0  0  0  0  0  0
    2.5916   -2.4066    3.5929 C   0  0  1  0  0  0  0  0  0  0  0  0
    2.9560   -3.1831    2.3037 C   0  0  0  0  0  0  0  0  0  0  0  0
    1.6937   -1.2152    3.1515 C   0  0  0  0  0  0  0  0  0  0  0  0
    1.5523    0.0879    3.4482 C   0  0  0  0  0  0  0  0  0  0  0  0
    0.5467    0.7145    2.6880 N   0  0  0  0  0  0  0  0  0  0  0  0
   -0.0532    1.6534    3.5561 C   0  0  0  0  0  0  0  0  0  0  0  0
   -0.8080    2.8851    4.0569 C   0  0  0  0  0  0  0  0  0  0  0  0
   -0.2616    4.2648    3.8054 C   0  0  0  0  0  0  0  0  0  0  0  0
   -2.3209    2.8291    3.8330 C   0  0  0  0  0  0  0  0  0  0  0  0
   -0.1405    1.9889    5.0219 C   0  0  1  0  0  0  0  0  0  0  0  0
   -0.9154    0.9640    5.7941 C   0  0  0  0  0  0  0  0  0  0  0  0
    1.3400    1.9441    5.3383 C   0  0  0  0  0  0  0  0  0  0  0  0
    1.7712    2.6737    6.2197 O   0  0  0  0  0  0  0  0  0  0  0  0
    2.3114    1.0148    4.5145 C   0  0  1  0  0  0  0  0  0  0  0  0
    3.6428    0.6130    5.2716 C   0  0  2  0  0  0  0  0  0  0  0  0
    4.8361    0.3310    4.3564 C   0  0  0  0  0  0  0  0  0  0  0  0
    4.7464   -0.9990    3.6272 C   0  0  0  0  0  0  0  0  0  0  0  0
    3.9149   -2.0830    4.3443 C   0  0  1  0  0  0  0  0  0  0  0  0
    3.8340   -1.9287    5.8919 C   0  0  2  0  0  0  0  0  0  0  0  0
    5.0903   -2.6249    6.4360 C   0  0  0  0  0  0  0  0  0  0  0  0
    2.4897   -2.3591    6.5988 C   0  0  2  0  0  0  0  0  0  0  0  0
    2.5965   -3.2764    7.8375 C   0  0  0  0  0  0  0  0  0  0  0  0
    2.3174   -0.8881    7.0414 C   0  0  0  0  0  0  0  0  0  0  0  0
    1.4656   -0.3073    7.7089 O   0  0  0  0  0  0  0  0  0  0  0  0
    3.6597   -0.4607    6.3934 C   0  0  2  0  0  0  0  0  0  0  0  0
    4.5800    0.0476    7.5225 C   0  0  0  0  0  0  0  0  0  0  0  0
   -1.3514   -4.5780    8.2553 H   0  0  0  0  0  0  0  0  0  0  0  0
   -1.5844   -5.4480    6.7350 H   0  0  0  0  0  0  0  0  0  0  0  0
   -2.7762   -4.2608    7.2615 H   0  0  0  0  0  0  0  0  0  0  0  0
    0.7276   -1.8497    5.4676 H   0  0  0  0  0  0  0  0  0  0  0  0
    2.3274   -4.2805    4.6831 H   0  0  0  0  0  0  0  0  0  0  0  0
    0.8863   -3.7552    3.8685 H   0  0  0  0  0  0  0  0  0  0  0  0
    3.5612   -4.0717    2.5111 H   0  0  0  0  0  0  0  0  0  0  0  0
    3.5092   -2.5611    1.6028 H   0  0  0  0  0  0  0  0  0  0  0  0
    2.0635   -3.5274    1.7842 H   0  0  0  0  0  0  0  0  0  0  0  0
    1.0024   -1.5709    2.3848 H   0  0  0  0  0  0  0  0  0  0  0  0
   -0.6225    4.9139    4.6052 H   0  0  0  0  0  0  0  0  0  0  0  0
   -0.6182    4.6658    2.8709 H   0  0  0  0  0  0  0  0  0  0  0  0
    0.8279    4.2754    3.8181 H   0  0  0  0  0  0  0  0  0  0  0  0
   -2.8252    3.2467    4.7119 H   0  0  0  0  0  0  0  0  0  0  0  0
   -2.6498    1.8046    3.6711 H   0  0  0  0  0  0  0  0  0  0  0  0
   -2.5976    3.4178    2.9485 H   0  0  0  0  0  0  0  0  0  0  0  0
   -1.2051    1.4073    6.7422 H   0  0  0  0  0  0  0  0  0  0  0  0
   -0.3200    0.0643    5.9590 H   0  0  0  0  0  0  0  0  0  0  0  0
   -1.8211    0.6533    5.2590 H   0  0  0  0  0  0  0  0  0  0  0  0
    2.7102    1.7468    3.8099 H   0  0  0  0  0  0  0  0  0  0  0  0
    3.9296    1.5670    5.7289 H   0  0  0  0  0  0  0  0  0  0  0  0
    4.9951    1.1601    3.6763 H   0  0  0  0  0  0  0  0  0  0  0  0
    5.7307    0.3053    4.9630 H   0  0  0  0  0  0  0  0  0  0  0  0
    4.2968   -0.7807    2.6648 H   0  0  0  0  0  0  0  0  0  0  0  0
    5.7440   -1.3752    3.4082 H   0  0  0  0  0  0  0  0  0  0  0  0
    4.4988   -2.9910    4.1840 H   0  0  0  0  0  0  0  0  0  0  0  0
    5.1935   -2.5090    7.5116 H   0  0  0  0  0  0  0  0  0  0  0  0
    6.0015   -2.2175    6.0004 H   0  0  0  0  0  0  0  0  0  0  0  0
    5.0739   -3.6994    6.2521 H   0  0  0  0  0  0  0  0  0  0  0  0
    2.9113   -4.2755    7.5327 H   0  0  0  0  0  0  0  0  0  0  0  0
    1.6549   -3.3867    8.3793 H   0  0  0  0  0  0  0  0  0  0  0  0
    3.3169   -2.9148    8.5689 H   0  0  0  0  0  0  0  0  0  0  0  0
    5.6234    0.0218    7.2103 H   0  0  0  0  0  0  0  0  0  0  0  0
    4.5067   -0.5517    8.4270 H   0  0  0  0  0  0  0  0  0  0  0  0
    4.3677    1.0806    7.8103 H   0  0  0  0  0  0  0  0  0  0  0  0
  1  2  1  0
  1 33  1  0
  1 34  1  0
  1 35  1  0
  2  3  2  0
  2  4  1  0
  4  5  1  0
  5 27  1  0
  5  6  1  0
  5 36  1  6
  6  7  1  0
  6 37  1  0
  6 38  1  0
  7 24  1  0
  7  8  1  6
  7  9  1  0
  8 39  1  0
  8 40  1  0
  8 41  1  0
  9 10  2  3
  9 42  1  0
 10 20  1  0
 10 11  1  0
 11 12  2  0
 12 16  1  0
 12 13  1  0
 13 14  1  0
 13 15  1  0
 13 16  1  0
 14 43  1  0
 14 44  1  0
 14 45  1  0
 15 46  1  0
 15 47  1  0
 15 48  1  0
 16 17  1  1
 16 18  1  0
 17 49  1  0
 17 50  1  0
 17 51  1  0
 18 19  2  0
 18 20  1  0
 20 21  1  0
 20 52  1  6
 21 31  1  0
 21 22  1  0
 21 53  1  1
 22 23  1  0
 22 54  1  0
 22 55  1  0
 23 24  1  0
 23 56  1  0
 23 57  1  0
 24 25  1  0
 24 58  1  1
 25 31  1  0
 25 26  1  1
 25 27  1  0
 26 59  1  0
 26 60  1  0
 26 61  1  0
 27 28  1  1
 27 29  1  0
 28 62  1  0
 28 63  1  0
 28 64  1  0
 29 30  2  0
 29 31  1  0
 31 32  1  1
 32 65  1  0
 32 66  1  0
 32 67  1  0
M  END
>  <i_m_ct_stereo_status>  (365) 
1

>  <s_m_source_file>  (365) 
/var/tmp/pbs.5076255.sched01/tmphrhi8tfx/132_dydaaau.sdf

>  <i_m_source_file_index>  (365) 
40

>  <i_lp_mmshare_version>  (365) 
48012

>  <i_f3d_flags>  (365) 
0

>  <s_epik_input>  (365) 
W0NIM11DKD1PKU9bQ0BIXShbQ0gyXTEpW0NAQF0oW0NIM10pKFtDQEBdMihbQ0gzXSlbQ0BIXTNbQ0BAXTE0W0NIM10pQyg9TylbQ0BdMihbQ0gzXSlbQ0BASF0oW0NIMl1bQ0gyXTMpW0NASF01Qyg9W0NIXVw0KS9OPUM2QyhbQ0gzXSkoQzU9TylDNihbQ0gzXSlbQ0gzXQ==

>  <s_epik_cmdline>  (365) 
J2VwaWtfcHl0aG9uJywgJy1waHQnLCAnMi4wJywgJy1waCcsICc3LjAnLCAnLXRuJywgJzgnLCAnLW1hJywgJzIwMCcsICctaW1hZScsICc8aW5maWxlLm1hZT4nLCAnLW9tYWUnLCAnPG91dGZpbGUubWFlPic=

>  <r_lp_tautomer_probability>  (365) 
1

>  <r_epik_Ionization_Penalty>  (365) 
1.04711e-10

>  <r_epik_Ionization_Penalty_Charging>  (365) 
0

>  <r_epik_Ionization_Penalty_Neutral>  (365) 
1.04711e-10

>  <r_epik_State_Penalty>  (365) 
-0

>  <r_epik_Charging_Adjusted_Penalty>  (365) 
0

>  <i_epik_Tot_Q>  (365) 
0

>  <i_epik_Tot_abs_Q>  (365) 
0

>  <s_epik_Chemistry_Notes>  (365) 
This compound has an ester and may undergo hydrolysis at high or low pH. This compound has an imine and may undergo hydrolysis.

>  <s_lp_Force_Field>  (365) 
OPLS3e

>  <r_lp_Energy>  (365) 
76.599

>  <b_lp_Chiralities_Consistent>  (365) 
1

>  <s_lp_Variant>  (365) 
117:0-3

>  <s_i_glide_gridfile>  (365) 
pfpi4k_grid

>  <i_i_glide_lignum>  (365) 
40

>  <i_i_glide_rotatable_bonds>  (365) 
2

>  <r_i_docking_score>  (365) 
-1.86633

>  <r_i_glide_ligand_efficiency>  (365) 
-0.0583229

>  <r_i_glide_ligand_efficiency_sa>  (365) 
-0.185164

>  <r_i_glide_ligand_efficiency_ln>  (365) 
-0.417923

>  <r_i_glide_gscore>  (365) 
-1.86633

>  <r_i_glide_lipo>  (365) 
-0.241073

>  <r_i_glide_hbond>  (365) 
0

>  <r_i_glide_metal>  (365) 
-0

>  <r_i_glide_rewards>  (365) 
-0.425652

>  <r_i_glide_evdw>  (365) 
-19.3503

>  <r_i_glide_ecoul>  (365) 
-1.79995

>  <r_i_glide_erotb>  (365) 
0.104155

>  <r_i_glide_esite>  (365) 
-0.0662594

>  <r_i_glide_emodel>  (365) 
-21.3361

>  <r_i_glide_energy>  (365) 
-21.1502

>  <r_i_glide_einternal>  (365) 
0.309225

>  <r_i_glide_intrahb_reward>  (365) 
-0

>  <i_i_glide_confnum>  (365) 
1

>  <i_i_glide_posenum>  (365) 
5

>  <r_i_glide_eff_state_penalty>  (365) 
0

>  <ligand_id>  (365) 
117

>  <original_smiles>  (365) 
CC(=O)OC1CC2(C)C=C3N=C4C(C)(C)C4(C)C(=O)C3C3CCC2C2(C)C1(C)C(=O)C32C

>  <smiles>  (365) 
[H]C1=C2N=C3C(C([H])([H])[H])(C(=O)C2([H])C2([H])C([H])([H])C([H])([H])C4([H])C1(C([H])([H])[H])C([H])([H])C([H])(OC(=O)C([H])([H])[H])C1(C([H])([H])[H])C(=O)C2(C([H])([H])[H])C41C([H])([H])[H])C3(C([H])([H])[H])C([H])([H])[H]

$$$$
117:2:1
     RDKit          3D

 67 72  0  0  1  0  0  0  0  0999 V2000
   -0.7164   -5.0549    6.1585 C   0  0  0  0  0  0  0  0  0  0  0  0
   -0.1861   -3.6295    6.0782 C   0  0  0  0  0  0  0  0  0  0  0  0
   -0.9082   -2.6670    6.3390 O   0  0  0  0  0  0  0  0  0  0  0  0
    1.1165   -3.5888    5.7316 O   0  0  0  0  0  0  0  0  0  0  0  0
    1.8507   -2.3595    5.6887 C   0  0  2  0  0  0  0  0  0  0  0  0
    2.9869   -2.5326    4.6826 C   0  0  0  0  0  0  0  0  0  0  0  0
    3.7595   -1.2165    4.4292 C   0  0  1  0  0  0  0  0  0  0  0  0
    4.8417   -1.5674    3.3765 C   0  0  0  0  0  0  0  0  0  0  0  0
    2.8021   -0.1953    3.7554 C   0  0  0  0  0  0  0  0  0  0  0  0
    2.1555    0.9327    4.0952 C   0  0  0  0  0  0  0  0  0  0  0  0
    1.4147    1.4748    3.0266 N   0  0  0  0  0  0  0  0  0  0  0  0
    0.2565    2.0232    3.6165 C   0  0  0  0  0  0  0  0  0  0  0  0
   -0.9813    2.8865    3.8361 C   0  0  0  0  0  0  0  0  0  0  0  0
   -0.8336    4.3736    4.0171 C   0  0  0  0  0  0  0  0  0  0  0  0
   -2.1649    2.5448    2.9301 C   0  0  0  0  0  0  0  0  0  0  0  0
   -0.5274    1.9682    4.9004 C   0  0  1  0  0  0  0  0  0  0  0  0
   -1.1932    0.6426    5.1143 C   0  0  0  0  0  0  0  0  0  0  0  0
    0.6239    2.1933    5.8612 C   0  0  0  0  0  0  0  0  0  0  0  0
    0.4028    2.7739    6.9142 O   0  0  0  0  0  0  0  0  0  0  0  0
    2.0837    1.7325    5.4812 C   0  0  1  0  0  0  0  0  0  0  0  0
    3.0464    1.4885    6.7120 C   0  0  2  0  0  0  0  0  0  0  0  0
    4.5354    1.7224    6.4104 C   0  0  0  0  0  0  0  0  0  0  0  0
    5.1631    0.6004    5.5954 C   0  0  0  0  0  0  0  0  0  0  0  0
    4.4888   -0.7828    5.7325 C   0  0  1  0  0  0  0  0  0  0  0  0
    3.7386   -1.0177    7.0765 C   0  0  2  0  0  0  0  0  0  0  0  0
    4.8147   -1.5157    8.0547 C   0  0  0  0  0  0  0  0  0  0  0  0
    2.4249   -1.8982    7.0519 C   0  0  2  0  0  0  0  0  0  0  0  0
    2.3337   -3.0269    8.1111 C   0  0  0  0  0  0  0  0  0  0  0  0
    1.6470   -0.6417    7.5213 C   0  0  0  0  0  0  0  0  0  0  0  0
    0.4699   -0.4269    7.8064 O   0  0  0  0  0  0  0  0  0  0  0  0
    2.9357    0.2140    7.5974 C   0  0  2  0  0  0  0  0  0  0  0  0
    3.1030    0.6372    9.0698 C   0  0  0  0  0  0  0  0  0  0  0  0
   -0.1442   -5.6154    6.8964 H   0  0  0  0  0  0  0  0  0  0  0  0
   -0.6318   -5.5616    5.1941 H   0  0  0  0  0  0  0  0  0  0  0  0
   -1.7602   -5.0539    6.4737 H   0  0  0  0  0  0  0  0  0  0  0  0
    1.1683   -1.6049    5.2851 H   0  0  0  0  0  0  0  0  0  0  0  0
    3.6619   -3.2992    5.0738 H   0  0  0  0  0  0  0  0  0  0  0  0
    2.5953   -2.9446    3.7530 H   0  0  0  0  0  0  0  0  0  0  0  0
    5.5485   -2.3201    3.7395 H   0  0  0  0  0  0  0  0  0  0  0  0
    5.4165   -0.6919    3.0808 H   0  0  0  0  0  0  0  0  0  0  0  0
    4.3953   -1.9736    2.4696 H   0  0  0  0  0  0  0  0  0  0  0  0
    2.6312   -0.5123    2.7235 H   0  0  0  0  0  0  0  0  0  0  0  0
   -1.6761    4.7059    4.6253 H   0  0  0  0  0  0  0  0  0  0  0  0
   -0.8735    4.8877    3.0562 H   0  0  0  0  0  0  0  0  0  0  0  0
    0.0897    4.6321    4.5340 H   0  0  0  0  0  0  0  0  0  0  0  0
   -3.0890    2.5968    3.5192 H   0  0  0  0  0  0  0  0  0  0  0  0
   -2.0568    1.5509    2.4971 H   0  0  0  0  0  0  0  0  0  0  0  0
   -2.2284    3.2676    2.1053 H   0  0  0  0  0  0  0  0  0  0  0  0
   -1.9677    0.7710    5.8648 H   0  0  0  0  0  0  0  0  0  0  0  0
   -0.4696   -0.1105    5.4321 H   0  0  0  0  0  0  0  0  0  0  0  0
   -1.6583    0.2772    4.1898 H   0  0  0  0  0  0  0  0  0  0  0  0
    2.4843    2.6806    5.1181 H   0  0  0  0  0  0  0  0  0  0  0  0
    2.8045    2.3455    7.3504 H   0  0  0  0  0  0  0  0  0  0  0  0
    4.7181    2.6992    5.9558 H   0  0  0  0  0  0  0  0  0  0  0  0
    5.0536    1.7444    7.3622 H   0  0  0  0  0  0  0  0  0  0  0  0
    5.1061    0.9239    4.5618 H   0  0  0  0  0  0  0  0  0  0  0  0
    6.2242    0.5201    5.8232 H   0  0  0  0  0  0  0  0  0  0  0  0
    5.3364   -1.4714    5.7597 H   0  0  0  0  0  0  0  0  0  0  0  0
    4.4316   -1.6333    9.0643 H   0  0  0  0  0  0  0  0  0  0  0  0
    5.6501   -0.8223    8.1323 H   0  0  0  0  0  0  0  0  0  0  0  0
    5.2054   -2.4930    7.7698 H   0  0  0  0  0  0  0  0  0  0  0  0
    3.0312   -3.8289    7.8595 H   0  0  0  0  0  0  0  0  0  0  0  0
    1.3511   -3.4840    8.2015 H   0  0  0  0  0  0  0  0  0  0  0  0
    2.5611   -2.6817    9.1182 H   0  0  0  0  0  0  0  0  0  0  0  0
    4.1349    0.9236    9.2738 H   0  0  0  0  0  0  0  0  0  0  0  0
    2.8513   -0.1610    9.7648 H   0  0  0  0  0  0  0  0  0  0  0  0
    2.4778    1.4942    9.3356 H   0  0  0  0  0  0  0  0  0  0  0  0
  1  2  1  0
  1 33  1  0
  1 34  1  0
  1 35  1  0
  2  3  2  0
  2  4  1  0
  4  5  1  0
  5 27  1  0
  5  6  1  0
  5 36  1  6
  6  7  1  0
  6 37  1  0
  6 38  1  0
  7 24  1  0
  7  8  1  6
  7  9  1  0
  8 39  1  0
  8 40  1  0
  8 41  1  0
  9 10  2  3
  9 42  1  0
 10 20  1  0
 10 11  1  0
 11 12  2  0
 12 16  1  0
 12 13  1  0
 13 14  1  0
 13 15  1  0
 13 16  1  0
 14 43  1  0
 14 44  1  0
 14 45  1  0
 15 46  1  0
 15 47  1  0
 15 48  1  0
 16 17  1  1
 16 18  1  0
 17 49  1  0
 17 50  1  0
 17 51  1  0
 18 19  2  0
 18 20  1  0
 20 21  1  0
 20 52  1  6
 21 31  1  0
 21 22  1  0
 21 53  1  1
 22 23  1  0
 22 54  1  0
 22 55  1  0
 23 24  1  0
 23 56  1  0
 23 57  1  0
 24 25  1  0
 24 58  1  1
 25 31  1  0
 25 26  1  1
 25 27  1  0
 26 59  1  0
 26 60  1  0
 26 61  1  0
 27 28  1  1
 27 29  1  0
 28 62  1  0
 28 63  1  0
 28 64  1  0
 29 30  2  0
 29 31  1  0
 31 32  1  1
 32 65  1  0
 32 66  1  0
 32 67  1  0
M  END
>  <i_m_ct_stereo_status>  (366) 
1

>  <s_m_source_file>  (366) 
/var/tmp/pbs.5076255.sched01/tmphrhi8tfx/132_dydaaau.sdf

>  <i_m_source_file_index>  (366) 
40

>  <i_lp_mmshare_version>  (366) 
48012

>  <i_f3d_flags>  (366) 
0

>  <s_epik_input>  (366) 
W0NIM11DKD1PKU9bQ0BIXShbQ0gyXTEpW0NAQF0oW0NIM10pKFtDQEBdMihbQ0gzXSlbQ0BIXTNbQ0BAXTE0W0NIM10pQyg9TylbQ0BdMihbQ0gzXSlbQ0BASF0oW0NIMl1bQ0gyXTMpW0NASF01Qyg9W0NIXVw0KS9OPUM2QyhbQ0gzXSkoQzU9TylDNihbQ0gzXSlbQ0gzXQ==

>  <s_epik_cmdline>  (366) 
J2VwaWtfcHl0aG9uJywgJy1waHQnLCAnMi4wJywgJy1waCcsICc3LjAnLCAnLXRuJywgJzgnLCAnLW1hJywgJzIwMCcsICctaW1hZScsICc8aW5maWxlLm1hZT4nLCAnLW9tYWUnLCAnPG91dGZpbGUubWFlPic=

>  <r_lp_tautomer_probability>  (366) 
1

>  <r_epik_Ionization_Penalty>  (366) 
1.04711e-10

>  <r_epik_Ionization_Penalty_Charging>  (366) 
0

>  <r_epik_Ionization_Penalty_Neutral>  (366) 
1.04711e-10

>  <r_epik_State_Penalty>  (366) 
-0

>  <r_epik_Charging_Adjusted_Penalty>  (366) 
0

>  <i_epik_Tot_Q>  (366) 
0

>  <i_epik_Tot_abs_Q>  (366) 
0

>  <s_epik_Chemistry_Notes>  (366) 
This compound has an ester and may undergo hydrolysis at high or low pH. This compound has an imine and may undergo hydrolysis.

>  <s_lp_Force_Field>  (366) 
OPLS3e

>  <r_lp_Energy>  (366) 
76.599

>  <b_lp_Chiralities_Consistent>  (366) 
1

>  <s_lp_Variant>  (366) 
117:0-3

>  <s_i_glide_gridfile>  (366) 
pfpi4k_grid

>  <i_i_glide_lignum>  (366) 
40

>  <i_i_glide_rotatable_bonds>  (366) 
2

>  <r_i_docking_score>  (366) 
-1.73645

>  <r_i_glide_ligand_efficiency>  (366) 
-0.054264

>  <r_i_glide_ligand_efficiency_sa>  (366) 
-0.172278

>  <r_i_glide_ligand_efficiency_ln>  (366) 
-0.388838

>  <r_i_glide_gscore>  (366) 
-1.73645

>  <r_i_glide_lipo>  (366) 
-0.15587

>  <r_i_glide_hbond>  (366) 
0

>  <r_i_glide_metal>  (366) 
-0

>  <r_i_glide_rewards>  (366) 
-0.425652

>  <r_i_glide_evdw>  (366) 
-18.3982

>  <r_i_glide_ecoul>  (366) 
-1.90442

>  <r_i_glide_erotb>  (366) 
0.104155

>  <r_i_glide_esite>  (366) 
-0.053509

>  <r_i_glide_emodel>  (366) 
-20.8719

>  <r_i_glide_energy>  (366) 
-20.3026

>  <r_i_glide_einternal>  (366) 
0.477988

>  <r_i_glide_intrahb_reward>  (366) 
-0

>  <i_i_glide_confnum>  (366) 
1

>  <i_i_glide_posenum>  (366) 
1

>  <r_i_glide_eff_state_penalty>  (366) 
0

>  <ligand_id>  (366) 
117

>  <original_smiles>  (366) 
CC(=O)OC1CC2(C)C=C3N=C4C(C)(C)C4(C)C(=O)C3C3CCC2C2(C)C1(C)C(=O)C32C

>  <smiles>  (366) 
[H]C1=C2N=C3C(C([H])([H])[H])(C(=O)C2([H])C2([H])C([H])([H])C([H])([H])C4([H])C1(C([H])([H])[H])C([H])([H])C([H])(OC(=O)C([H])([H])[H])C1(C([H])([H])[H])C(=O)C2(C([H])([H])[H])C41C([H])([H])[H])C3(C([H])([H])[H])C([H])([H])[H]

$$$$
117:2:2
     RDKit          3D

 67 72  0  0  1  0  0  0  0  0999 V2000
   -0.4191   -4.7950    6.2499 C   0  0  0  0  0  0  0  0  0  0  0  0
   -0.0377   -3.3219    6.2596 C   0  0  0  0  0  0  0  0  0  0  0  0
   -0.8951   -2.4436    6.3579 O   0  0  0  0  0  0  0  0  0  0  0  0
    1.2990   -3.1373    6.1874 O   0  0  0  0  0  0  0  0  0  0  0  0
    1.8908   -1.8342    6.2186 C   0  0  2  0  0  0  0  0  0  0  0  0
    3.1532   -1.8720    5.3609 C   0  0  0  0  0  0  0  0  0  0  0  0
    3.7783   -0.4685    5.1746 C   0  0  1  0  0  0  0  0  0  0  0  0
    5.0130   -0.6888    4.2612 C   0  0  0  0  0  0  0  0  0  0  0  0
    2.7929    0.4127    4.3775 C   0  0  0  0  0  0  0  0  0  0  0  0
    1.9697    1.4647    4.6293 C   0  0  0  0  0  0  0  0  0  0  0  0
    1.3090    1.8948    3.4503 N   0  0  0  0  0  0  0  0  0  0  0  0
    0.0405    2.3192    3.9214 C   0  0  0  0  0  0  0  0  0  0  0  0
   -1.3093    3.0131    3.9458 C   0  0  0  0  0  0  0  0  0  0  0  0
   -1.3641    4.4984    4.1166 C   0  0  0  0  0  0  0  0  0  0  0  0
   -2.3322    2.5389    2.9338 C   0  0  0  0  0  0  0  0  0  0  0  0
   -0.8791    2.1712    5.0845 C   0  0  1  0  0  0  0  0  0  0  0  0
   -1.4037    0.7668    5.2464 C   0  0  0  0  0  0  0  0  0  0  0  0
    0.1077    2.5391    6.1698 C   0  0  0  0  0  0  0  0  0  0  0  0
   -0.3043    3.0972    7.1848 O   0  0  0  0  0  0  0  0  0  0  0  0
    1.6508    2.2558    5.9696 C   0  0  1  0  0  0  0  0  0  0  0  0
    2.4763    2.1363    7.3121 C   0  0  2  0  0  0  0  0  0  0  0  0
    3.9505    2.5506    7.1814 C   0  0  0  0  0  0  0  0  0  0  0  0
    4.7988    1.5112    6.4617 C   0  0  0  0  0  0  0  0  0  0  0  0
    4.2886    0.0576    6.5485 C   0  0  1  0  0  0  0  0  0  0  0  0
    3.4173   -0.2637    7.7994 C   0  0  2  0  0  0  0  0  0  0  0  0
    4.4221   -0.6205    8.9055 C   0  0  0  0  0  0  0  0  0  0  0  0
    2.2344   -1.2969    7.6291 C   0  0  2  0  0  0  0  0  0  0  0  0
    2.1417   -2.4310    8.6823 C   0  0  0  0  0  0  0  0  0  0  0  0
    1.2620   -0.1519    7.9830 C   0  0  0  0  0  0  0  0  0  0  0  0
    0.0295   -0.0906    8.1154 O   0  0  0  0  0  0  0  0  0  0  0  0
    2.4126    0.8600    8.1978 C   0  0  2  0  0  0  0  0  0  0  0  0
    2.3567    1.3111    9.6721 C   0  0  0  0  0  0  0  0  0  0  0  0
    0.0219   -5.2996    7.1077 H   0  0  0  0  0  0  0  0  0  0  0  0
   -0.0649   -5.2815    5.3391 H   0  0  0  0  0  0  0  0  0  0  0  0
   -1.5010   -4.9107    6.3142 H   0  0  0  0  0  0  0  0  0  0  0  0
    1.1858   -1.1603    5.7244 H   0  0  0  0  0  0  0  0  0  0  0  0
    3.8657   -2.5445    5.8449 H   0  0  0  0  0  0  0  0  0  0  0  0
    2.9256   -2.3307    4.3984 H   0  0  0  0  0  0  0  0  0  0  0  0
    5.7611   -1.3381    4.7236 H   0  0  0  0  0  0  0  0  0  0  0  0
    5.5036    0.2503    4.0150 H   0  0  0  0  0  0  0  0  0  0  0  0
    4.7327   -1.1560    3.3157 H   0  0  0  0  0  0  0  0  0  0  0  0
    2.7821    0.0790    3.3387 H   0  0  0  0  0  0  0  0  0  0  0  0
   -2.3148    4.6890    4.6108 H   0  0  0  0  0  0  0  0  0  0  0  0
   -1.3554    5.0036    3.1442 H   0  0  0  0  0  0  0  0  0  0  0  0
   -0.5546    4.8854    4.7451 H   0  0  0  0  0  0  0  0  0  0  0  0
   -3.3122    2.4738    3.4296 H   0  0  0  0  0  0  0  0  0  0  0  0
   -2.0299    1.5808    2.5287 H   0  0  0  0  0  0  0  0  0  0  0  0
   -2.4078    3.2593    2.0966 H   0  0  0  0  0  0  0  0  0  0  0  0
   -2.2662    0.8060    5.9102 H   0  0  0  0  0  0  0  0  0  0  0  0
   -0.6373    0.1139    5.6558 H   0  0  0  0  0  0  0  0  0  0  0  0
   -1.7176    0.3453    4.2850 H   0  0  0  0  0  0  0  0  0  0  0  0
    1.9710    3.2472    5.6382 H   0  0  0  0  0  0  0  0  0  0  0  0
    2.0613    2.9601    7.8991 H   0  0  0  0  0  0  0  0  0  0  0  0
    4.0638    3.5401    6.7324 H   0  0  0  0  0  0  0  0  0  0  0  0
    4.3504    2.6412    8.1860 H   0  0  0  0  0  0  0  0  0  0  0  0
    4.8309    1.8215    5.4201 H   0  0  0  0  0  0  0  0  0  0  0  0
    5.8260    1.5643    6.8131 H   0  0  0  0  0  0  0  0  0  0  0  0
    5.2043   -0.5183    6.6858 H   0  0  0  0  0  0  0  0  0  0  0  0
    3.9411   -0.7811    9.8689 H   0  0  0  0  0  0  0  0  0  0  0  0
    5.1537    0.1724    9.0679 H   0  0  0  0  0  0  0  0  0  0  0  0
    4.9606   -1.5432    8.6883 H   0  0  0  0  0  0  0  0  0  0  0  0
    2.9597   -3.1398    8.5375 H   0  0  0  0  0  0  0  0  0  0  0  0
    1.2168   -3.0045    8.6358 H   0  0  0  0  0  0  0  0  0  0  0  0
    2.1950   -2.0616    9.7074 H   0  0  0  0  0  0  0  0  0  0  0  0
    3.3155    1.7273    9.9859 H   0  0  0  0  0  0  0  0  0  0  0  0
    2.1288    0.4923   10.3528 H   0  0  0  0  0  0  0  0  0  0  0  0
    1.6060    2.0864    9.8487 H   0  0  0  0  0  0  0  0  0  0  0  0
  1  2  1  0
  1 33  1  0
  1 34  1  0
  1 35  1  0
  2  3  2  0
  2  4  1  0
  4  5  1  0
  5 27  1  0
  5  6  1  0
  5 36  1  6
  6  7  1  0
  6 37  1  0
  6 38  1  0
  7 24  1  0
  7  8  1  6
  7  9  1  0
  8 39  1  0
  8 40  1  0
  8 41  1  0
  9 10  2  3
  9 42  1  0
 10 20  1  0
 10 11  1  0
 11 12  2  0
 12 16  1  0
 12 13  1  0
 13 14  1  0
 13 15  1  0
 13 16  1  0
 14 43  1  0
 14 44  1  0
 14 45  1  0
 15 46  1  0
 15 47  1  0
 15 48  1  0
 16 17  1  1
 16 18  1  0
 17 49  1  0
 17 50  1  0
 17 51  1  0
 18 19  2  0
 18 20  1  0
 20 21  1  0
 20 52  1  6
 21 31  1  0
 21 22  1  0
 21 53  1  1
 22 23  1  0
 22 54  1  0
 22 55  1  0
 23 24  1  0
 23 56  1  0
 23 57  1  0
 24 25  1  0
 24 58  1  1
 25 31  1  0
 25 26  1  1
 25 27  1  0
 26 59  1  0
 26 60  1  0
 26 61  1  0
 27 28  1  1
 27 29  1  0
 28 62  1  0
 28 63  1  0
 28 64  1  0
 29 30  2  0
 29 31  1  0
 31 32  1  1
 32 65  1  0
 32 66  1  0
 32 67  1  0
M  END
>  <i_m_ct_stereo_status>  (367) 
1

>  <s_m_source_file>  (367) 
/var/tmp/pbs.5076255.sched01/tmphrhi8tfx/132_dydaaau.sdf

>  <i_m_source_file_index>  (367) 
40

>  <i_lp_mmshare_version>  (367) 
48012

>  <i_f3d_flags>  (367) 
0

>  <s_epik_input>  (367) 
W0NIM11DKD1PKU9bQ0BIXShbQ0gyXTEpW0NAQF0oW0NIM10pKFtDQEBdMihbQ0gzXSlbQ0BIXTNbQ0BAXTE0W0NIM10pQyg9TylbQ0BdMihbQ0gzXSlbQ0BASF0oW0NIMl1bQ0gyXTMpW0NASF01Qyg9W0NIXVw0KS9OPUM2QyhbQ0gzXSkoQzU9TylDNihbQ0gzXSlbQ0gzXQ==

>  <s_epik_cmdline>  (367) 
J2VwaWtfcHl0aG9uJywgJy1waHQnLCAnMi4wJywgJy1waCcsICc3LjAnLCAnLXRuJywgJzgnLCAnLW1hJywgJzIwMCcsICctaW1hZScsICc8aW5maWxlLm1hZT4nLCAnLW9tYWUnLCAnPG91dGZpbGUubWFlPic=

>  <r_lp_tautomer_probability>  (367) 
1

>  <r_epik_Ionization_Penalty>  (367) 
1.04711e-10

>  <r_epik_Ionization_Penalty_Charging>  (367) 
0

>  <r_epik_Ionization_Penalty_Neutral>  (367) 
1.04711e-10

>  <r_epik_State_Penalty>  (367) 
-0

>  <r_epik_Charging_Adjusted_Penalty>  (367) 
0

>  <i_epik_Tot_Q>  (367) 
0

>  <i_epik_Tot_abs_Q>  (367) 
0

>  <s_epik_Chemistry_Notes>  (367) 
This compound has an ester and may undergo hydrolysis at high or low pH. This compound has an imine and may undergo hydrolysis.

>  <s_lp_Force_Field>  (367) 
OPLS3e

>  <r_lp_Energy>  (367) 
76.599

>  <b_lp_Chiralities_Consistent>  (367) 
1

>  <s_lp_Variant>  (367) 
117:0-3

>  <s_i_glide_gridfile>  (367) 
pfpi4k_grid

>  <i_i_glide_lignum>  (367) 
40

>  <i_i_glide_rotatable_bonds>  (367) 
2

>  <r_i_docking_score>  (367) 
-1.62682

>  <r_i_glide_ligand_efficiency>  (367) 
-0.0508382

>  <r_i_glide_ligand_efficiency_sa>  (367) 
-0.161401

>  <r_i_glide_ligand_efficiency_ln>  (367) 
-0.36429

>  <r_i_glide_gscore>  (367) 
-1.62682

>  <r_i_glide_lipo>  (367) 
-0.0811196

>  <r_i_glide_hbond>  (367) 
0

>  <r_i_glide_metal>  (367) 
-0

>  <r_i_glide_rewards>  (367) 
-0.425652

>  <r_i_glide_evdw>  (367) 
-16.9163

>  <r_i_glide_ecoul>  (367) 
-2.1573

>  <r_i_glide_erotb>  (367) 
0.104155

>  <r_i_glide_esite>  (367) 
-0.0547976

>  <r_i_glide_emodel>  (367) 
-19.609

>  <r_i_glide_energy>  (367) 
-19.0736

>  <r_i_glide_einternal>  (367) 
0.0805411

>  <r_i_glide_intrahb_reward>  (367) 
-0

>  <i_i_glide_confnum>  (367) 
3

>  <i_i_glide_posenum>  (367) 
9

>  <r_i_glide_eff_state_penalty>  (367) 
0

>  <ligand_id>  (367) 
117

>  <original_smiles>  (367) 
CC(=O)OC1CC2(C)C=C3N=C4C(C)(C)C4(C)C(=O)C3C3CCC2C2(C)C1(C)C(=O)C32C

>  <smiles>  (367) 
[H]C1=C2N=C3C(C([H])([H])[H])(C(=O)C2([H])C2([H])C([H])([H])C([H])([H])C4([H])C1(C([H])([H])[H])C([H])([H])C([H])(OC(=O)C([H])([H])[H])C1(C([H])([H])[H])C(=O)C2(C([H])([H])[H])C41C([H])([H])[H])C3(C([H])([H])[H])C([H])([H])[H]

$$$$
117:3:0
     RDKit          3D

 67 72  0  0  1  0  0  0  0  0999 V2000
    8.9783   -4.5069    0.7449 C   0  0  0  0  0  0  0  0  0  0  0  0
    9.2978   -3.0164    0.6294 C   0  0  0  0  0  0  0  0  0  0  0  0
   10.4241   -2.6135    0.8761 O   0  0  0  0  0  0  0  0  0  0  0  0
    8.2338   -2.1714    0.3867 O   0  0  0  0  0  0  0  0  0  0  0  0
    6.8939   -2.6164    0.1785 C   0  0  2  0  0  0  0  0  0  0  0  0
    6.6811   -2.6471   -1.3217 C   0  0  0  0  0  0  0  0  0  0  0  0
    5.3328   -3.2603   -1.6733 C   0  0  1  0  0  0  0  0  0  0  0  0
    5.2846   -3.2476   -3.2266 C   0  0  0  0  0  0  0  0  0  0  0  0
    5.2920   -4.7071   -1.1774 C   0  0  0  0  0  0  0  0  0  0  0  0
    5.0572   -5.2008    0.0573 C   0  0  0  0  0  0  0  0  0  0  0  0
    6.1058   -5.9463    0.6301 N   0  0  0  0  0  0  0  0  0  0  0  0
    5.5758   -6.8132    1.6142 C   0  0  0  0  0  0  0  0  0  0  0  0
    5.4201   -8.0240    2.4766 C   0  0  0  0  0  0  0  0  0  0  0  0
    5.0595   -9.3615    1.8535 C   0  0  0  0  0  0  0  0  0  0  0  0
    6.4696   -8.1695    3.5589 C   0  0  0  0  0  0  0  0  0  0  0  0
    4.3958   -6.9630    2.5283 C   0  0  1  0  0  0  0  0  0  0  0  0
    4.3024   -6.0968    3.7452 C   0  0  0  0  0  0  0  0  0  0  0  0
    3.3494   -6.6078    1.4999 C   0  0  0  0  0  0  0  0  0  0  0  0
    2.3074   -7.2510    1.4028 O   0  0  0  0  0  0  0  0  0  0  0  0
    3.6182   -5.3852    0.5657 C   0  0  1  0  0  0  0  0  0  0  0  0
    2.9368   -4.0574    0.9868 C   0  0  2  0  0  0  0  0  0  0  0  0
    2.0872   -3.5842   -0.2011 C   0  0  0  0  0  0  0  0  0  0  0  0
    2.8034   -2.9978   -1.4153 C   0  0  0  0  0  0  0  0  0  0  0  0
    4.1815   -2.3800   -1.1341 C   0  0  1  0  0  0  0  0  0  0  0  0
    4.3245   -1.8686    0.3317 C   0  0  2  0  0  0  0  0  0  0  0  0
    3.7257   -0.4738    0.3101 C   0  0  0  0  0  0  0  0  0  0  0  0
    5.7547   -1.9339    0.9682 C   0  0  2  0  0  0  0  0  0  0  0  0
    6.2557   -0.6689    1.6514 C   0  0  0  0  0  0  0  0  0  0  0  0
    5.1633   -2.9105    1.9996 C   0  0  0  0  0  0  0  0  0  0  0  0
    5.6640   -3.5783    2.9123 O   0  0  0  0  0  0  0  0  0  0  0  0
    3.7344   -2.7860    1.4601 C   0  0  2  0  0  0  0  0  0  0  0  0
    2.9009   -2.1331    2.5705 C   0  0  0  0  0  0  0  0  0  0  0  0
    8.5568   -4.8707   -0.1880 H   0  0  0  0  0  0  0  0  0  0  0  0
    8.3129   -4.6515    1.5903 H   0  0  0  0  0  0  0  0  0  0  0  0
    9.8170   -5.1540    0.9898 H   0  0  0  0  0  0  0  0  0  0  0  0
    6.8340   -3.6438    0.4967 H   0  0  0  0  0  0  0  0  0  0  0  0
    6.7464   -1.6410   -1.7308 H   0  0  0  0  0  0  0  0  0  0  0  0
    7.4881   -3.2225   -1.7752 H   0  0  0  0  0  0  0  0  0  0  0  0
    5.4039   -2.2342   -3.6188 H   0  0  0  0  0  0  0  0  0  0  0  0
    4.3634   -3.6522   -3.6519 H   0  0  0  0  0  0  0  0  0  0  0  0
    6.0986   -3.8351   -3.6466 H   0  0  0  0  0  0  0  0  0  0  0  0
    4.4755   -4.9812   -1.7921 H   0  0  0  0  0  0  0  0  0  0  0  0
    4.5280   -9.9431    2.6138 H   0  0  0  0  0  0  0  0  0  0  0  0
    5.9504   -9.9224    1.5709 H   0  0  0  0  0  0  0  0  0  0  0  0
    4.3956   -9.2490    0.9963 H   0  0  0  0  0  0  0  0  0  0  0  0
    6.0034   -8.5763    4.4633 H   0  0  0  0  0  0  0  0  0  0  0  0
    6.9301   -7.2068    3.8129 H   0  0  0  0  0  0  0  0  0  0  0  0
    7.2718   -8.8506    3.2502 H   0  0  0  0  0  0  0  0  0  0  0  0
    3.7058   -5.2082    3.5563 H   0  0  0  0  0  0  0  0  0  0  0  0
    5.2955   -5.7934    4.0830 H   0  0  0  0  0  0  0  0  0  0  0  0
    3.8374   -6.6816    4.5331 H   0  0  0  0  0  0  0  0  0  0  0  0
    3.0821   -5.7285   -0.3108 H   0  0  0  0  0  0  0  0  0  0  0  0
    2.2268   -4.3515    1.7719 H   0  0  0  0  0  0  0  0  0  0  0  0
    1.4435   -4.3951   -0.5625 H   0  0  0  0  0  0  0  0  0  0  0  0
    1.4898   -2.7872    0.2131 H   0  0  0  0  0  0  0  0  0  0  0  0
    2.8280   -3.7828   -2.1518 H   0  0  0  0  0  0  0  0  0  0  0  0
    2.2023   -2.2379   -1.9016 H   0  0  0  0  0  0  0  0  0  0  0  0
    4.2197   -1.4991   -1.7830 H   0  0  0  0  0  0  0  0  0  0  0  0
    3.7232    0.0039    1.2851 H   0  0  0  0  0  0  0  0  0  0  0  0
    2.6886   -0.4983   -0.0115 H   0  0  0  0  0  0  0  0  0  0  0  0
    4.3130    0.1571   -0.3494 H   0  0  0  0  0  0  0  0  0  0  0  0
    6.4578    0.0630    0.8700 H   0  0  0  0  0  0  0  0  0  0  0  0
    7.1740   -0.8323    2.2063 H   0  0  0  0  0  0  0  0  0  0  0  0
    5.5505   -0.2496    2.3690 H   0  0  0  0  0  0  0  0  0  0  0  0
    2.0144   -1.6721    2.1468 H   0  0  0  0  0  0  0  0  0  0  0  0
    3.4531   -1.3551    3.0944 H   0  0  0  0  0  0  0  0  0  0  0  0
    2.5728   -2.8530    3.3203 H   0  0  0  0  0  0  0  0  0  0  0  0
  1  2  1  0
  1 33  1  0
  1 34  1  0
  1 35  1  0
  2  3  2  0
  2  4  1  0
  4  5  1  0
  5 27  1  0
  5  6  1  0
  5 36  1  1
  6  7  1  0
  6 37  1  0
  6 38  1  0
  7 24  1  0
  7  8  1  6
  7  9  1  0
  8 39  1  0
  8 40  1  0
  8 41  1  0
  9 10  2  3
  9 42  1  0
 10 20  1  0
 10 11  1  0
 11 12  2  0
 12 16  1  0
 12 13  1  0
 13 14  1  0
 13 15  1  0
 13 16  1  0
 14 43  1  0
 14 44  1  0
 14 45  1  0
 15 46  1  0
 15 47  1  0
 15 48  1  0
 16 17  1  1
 16 18  1  0
 17 49  1  0
 17 50  1  0
 17 51  1  0
 18 19  2  0
 18 20  1  0
 20 21  1  0
 20 52  1  6
 21 31  1  0
 21 22  1  0
 21 53  1  1
 22 23  1  0
 22 54  1  0
 22 55  1  0
 23 24  1  0
 23 56  1  0
 23 57  1  0
 24 25  1  0
 24 58  1  6
 25 31  1  0
 25 26  1  6
 25 27  1  0
 26 59  1  0
 26 60  1  0
 26 61  1  0
 27 28  1  1
 27 29  1  0
 28 62  1  0
 28 63  1  0
 28 64  1  0
 29 30  2  0
 29 31  1  0
 31 32  1  1
 32 65  1  0
 32 66  1  0
 32 67  1  0
M  END
>  <i_m_ct_stereo_status>  (368) 
1

>  <s_m_source_file>  (368) 
/var/tmp/pbs.5076255.sched01/tmphrhi8tfx/132_dydaaau.sdf

>  <i_m_source_file_index>  (368) 
41

>  <i_lp_mmshare_version>  (368) 
48012

>  <i_f3d_flags>  (368) 
0

>  <s_epik_input>  (368) 
W0NIM11DKD1PKU9bQ0BIXShbQ0gyXTEpW0NAQF0oW0NIM10pKFtDQEBdMihbQ0gzXSlbQ0BIXTNbQ0BAXTE0W0NIM10pQyg9TylbQ0BdMihbQ0gzXSlbQ0BASF0oW0NIMl1bQ0gyXTMpW0NASF01Qyg9W0NIXVw0KS9OPUM2QyhbQ0gzXSkoQzU9TylDNihbQ0gzXSlbQ0gzXQ==

>  <s_epik_cmdline>  (368) 
J2VwaWtfcHl0aG9uJywgJy1waHQnLCAnMi4wJywgJy1waCcsICc3LjAnLCAnLXRuJywgJzgnLCAnLW1hJywgJzIwMCcsICctaW1hZScsICc8aW5maWxlLm1hZT4nLCAnLW9tYWUnLCAnPG91dGZpbGUubWFlPic=

>  <r_lp_tautomer_probability>  (368) 
1

>  <r_epik_Ionization_Penalty>  (368) 
1.04711e-10

>  <r_epik_Ionization_Penalty_Charging>  (368) 
0

>  <r_epik_Ionization_Penalty_Neutral>  (368) 
1.04711e-10

>  <r_epik_State_Penalty>  (368) 
-0

>  <r_epik_Charging_Adjusted_Penalty>  (368) 
0

>  <i_epik_Tot_Q>  (368) 
0

>  <i_epik_Tot_abs_Q>  (368) 
0

>  <s_epik_Chemistry_Notes>  (368) 
This compound has an ester and may undergo hydrolysis at high or low pH. This compound has an imine and may undergo hydrolysis.

>  <s_lp_Force_Field>  (368) 
OPLS3e

>  <r_lp_Energy>  (368) 
114.598

>  <b_lp_Chiralities_Consistent>  (368) 
1

>  <s_lp_Variant>  (368) 
117:0-4

>  <s_i_glide_gridfile>  (368) 
pfpi4k_grid

>  <i_i_glide_lignum>  (368) 
41

>  <i_i_glide_rotatable_bonds>  (368) 
2

>  <r_i_docking_score>  (368) 
-2.38201

>  <r_i_glide_ligand_efficiency>  (368) 
-0.0744377

>  <r_i_glide_ligand_efficiency_sa>  (368) 
-0.236325

>  <r_i_glide_ligand_efficiency_ln>  (368) 
-0.533396

>  <r_i_glide_gscore>  (368) 
-2.38201

>  <r_i_glide_lipo>  (368) 
-0.575849

>  <r_i_glide_hbond>  (368) 
-0.0556417

>  <r_i_glide_metal>  (368) 
-0

>  <r_i_glide_rewards>  (368) 
-0.668942

>  <r_i_glide_evdw>  (368) 
-13.4081

>  <r_i_glide_ecoul>  (368) 
-3.33026

>  <r_i_glide_erotb>  (368) 
0.104155

>  <r_i_glide_esite>  (368) 
-0.0157869

>  <r_i_glide_emodel>  (368) 
-11.984

>  <r_i_glide_energy>  (368) 
-16.7383

>  <r_i_glide_einternal>  (368) 
5.27358

>  <r_i_glide_intrahb_reward>  (368) 
-0

>  <i_i_glide_confnum>  (368) 
3

>  <i_i_glide_posenum>  (368) 
18

>  <r_i_glide_eff_state_penalty>  (368) 
0

>  <ligand_id>  (368) 
117

>  <original_smiles>  (368) 
CC(=O)OC1CC2(C)C=C3N=C4C(C)(C)C4(C)C(=O)C3C3CCC2C2(C)C1(C)C(=O)C32C

>  <smiles>  (368) 
[H]C1=C2N=C3C(C([H])([H])[H])(C(=O)C2([H])C2([H])C([H])([H])C([H])([H])C4([H])C1(C([H])([H])[H])C([H])([H])C([H])(OC(=O)C([H])([H])[H])C1(C([H])([H])[H])C(=O)C2(C([H])([H])[H])C41C([H])([H])[H])C3(C([H])([H])[H])C([H])([H])[H]

$$$$
117:3:1
     RDKit          3D

 67 72  0  0  1  0  0  0  0  0999 V2000
   10.4798   -2.2006    1.1444 C   0  0  0  0  0  0  0  0  0  0  0  0
    9.2625   -2.8396    0.4817 C   0  0  0  0  0  0  0  0  0  0  0  0
    9.4127   -3.9259   -0.0828 O   0  0  0  0  0  0  0  0  0  0  0  0
    8.1195   -2.1106    0.5925 O   0  0  0  0  0  0  0  0  0  0  0  0
    6.8424   -2.7313    0.4368 C   0  0  2  0  0  0  0  0  0  0  0  0
    6.6316   -2.8735   -1.0696 C   0  0  0  0  0  0  0  0  0  0  0  0
    5.3038   -3.5111   -1.4275 C   0  0  1  0  0  0  0  0  0  0  0  0
    5.3257   -3.5949   -2.9794 C   0  0  0  0  0  0  0  0  0  0  0  0
    5.2472   -4.9249   -0.8050 C   0  0  0  0  0  0  0  0  0  0  0  0
    4.9492   -5.3040    0.4561 C   0  0  0  0  0  0  0  0  0  0  0  0
    5.9514   -6.0105    1.1464 N   0  0  0  0  0  0  0  0  0  0  0  0
    5.3156   -6.7440    2.1756 C   0  0  0  0  0  0  0  0  0  0  0  0
    5.0641   -7.8624    3.1613 C   0  0  0  0  0  0  0  0  0  0  0  0
    4.7262   -9.2337    2.6232 C   0  0  0  0  0  0  0  0  0  0  0  0
    6.0579   -7.9030    4.3047 C   0  0  0  0  0  0  0  0  0  0  0  0
    4.0761   -6.7797    3.0167 C   0  0  1  0  0  0  0  0  0  0  0  0
    3.9191   -5.7973    4.1466 C   0  0  0  0  0  0  0  0  0  0  0  0
    3.1006   -6.5101    1.8971 C   0  0  0  0  0  0  0  0  0  0  0  0
    2.0592   -7.1343    1.7831 O   0  0  0  0  0  0  0  0  0  0  0  0
    3.4613   -5.3738    0.8769 C   0  0  1  0  0  0  0  0  0  0  0  0
    2.7820   -3.9961    1.1228 C   0  0  2  0  0  0  0  0  0  0  0  0
    2.0003   -3.5813   -0.1346 C   0  0  0  0  0  0  0  0  0  0  0  0
    2.7860   -3.1098   -1.3477 C   0  0  0  0  0  0  0  0  0  0  0  0
    4.1696   -2.5416   -1.0286 C   0  0  1  0  0  0  0  0  0  0  0  0
    4.2549   -1.9217    0.3896 C   0  0  2  0  0  0  0  0  0  0  0  0
    3.6856   -0.5110    0.2025 C   0  0  0  0  0  0  0  0  0  0  0  0
    5.6504   -1.9744    1.1096 C   0  0  2  0  0  0  0  0  0  0  0  0
    6.1288   -0.6589    1.7207 C   0  0  0  0  0  0  0  0  0  0  0  0
    4.9631   -2.8306    2.1903 C   0  0  0  0  0  0  0  0  0  0  0  0
    5.3655   -3.3340    3.2536 O   0  0  0  0  0  0  0  0  0  0  0  0
    3.5740   -2.7273    1.5545 C   0  0  2  0  0  0  0  0  0  0  0  0
    2.6729   -1.9500    2.5345 C   0  0  0  0  0  0  0  0  0  0  0  0
   10.3964   -2.2556    2.2222 H   0  0  0  0  0  0  0  0  0  0  0  0
   10.6092   -1.1550    0.8847 H   0  0  0  0  0  0  0  0  0  0  0  0
   11.4056   -2.7203    0.8858 H   0  0  0  0  0  0  0  0  0  0  0  0
    6.9279   -3.7183    0.9029 H   0  0  0  0  0  0  0  0  0  0  0  0
    6.7271   -1.8825   -1.5172 H   0  0  0  0  0  0  0  0  0  0  0  0
    7.3963   -3.4849   -1.5413 H   0  0  0  0  0  0  0  0  0  0  0  0
    5.5167   -2.6270   -3.4491 H   0  0  0  0  0  0  0  0  0  0  0  0
    4.4324   -4.0226   -3.4290 H   0  0  0  0  0  0  0  0  0  0  0  0
    6.1401   -4.2330   -3.2677 H   0  0  0  0  0  0  0  0  0  0  0  0
    4.3936   -5.1862   -1.3773 H   0  0  0  0  0  0  0  0  0  0  0  0
    4.1416   -9.7239    3.3942 H   0  0  0  0  0  0  0  0  0  0  0  0
    5.6250   -9.8200    2.4501 H   0  0  0  0  0  0  0  0  0  0  0  0
    4.1262   -9.1836    1.7179 H   0  0  0  0  0  0  0  0  0  0  0  0
    5.5275   -8.2183    5.1999 H   0  0  0  0  0  0  0  0  0  0  0  0
    6.5127   -6.9224    4.4871 H   0  0  0  0  0  0  0  0  0  0  0  0
    6.8560   -8.6171    4.0966 H   0  0  0  0  0  0  0  0  0  0  0  0
    3.3421   -4.9147    3.8424 H   0  0  0  0  0  0  0  0  0  0  0  0
    4.8972   -5.4773    4.5261 H   0  0  0  0  0  0  0  0  0  0  0  0
    3.3895   -6.3033    4.9622 H   0  0  0  0  0  0  0  0  0  0  0  0
    2.9811   -5.7909   -0.0054 H   0  0  0  0  0  0  0  0  0  0  0  0
    2.0252   -4.2196    1.8702 H   0  0  0  0  0  0  0  0  0  0  0  0
    1.4052   -4.4161   -0.5102 H   0  0  0  0  0  0  0  0  0  0  0  0
    1.3969   -2.6955    0.1418 H   0  0  0  0  0  0  0  0  0  0  0  0
    2.8345   -3.9374   -2.0460 H   0  0  0  0  0  0  0  0  0  0  0  0
    2.2149   -2.3521   -1.8922 H   0  0  0  0  0  0  0  0  0  0  0  0
    4.2740   -1.7282   -1.7532 H   0  0  0  0  0  0  0  0  0  0  0  0
    3.6046    0.0456    1.1312 H   0  0  0  0  0  0  0  0  0  0  0  0
    2.6727   -0.5667   -0.1891 H   0  0  0  0  0  0  0  0  0  0  0  0
    4.3046    0.0924   -0.4668 H   0  0  0  0  0  0  0  0  0  0  0  0
    6.3652    0.0086    0.8967 H   0  0  0  0  0  0  0  0  0  0  0  0
    7.0026   -0.7640    2.3655 H   0  0  0  0  0  0  0  0  0  0  0  0
    5.3708   -0.1661    2.3261 H   0  0  0  0  0  0  0  0  0  0  0  0
    1.8158   -1.5116    2.0229 H   0  0  0  0  0  0  0  0  0  0  0  0
    3.1977   -1.1250    3.0217 H   0  0  0  0  0  0  0  0  0  0  0  0
    2.2732   -2.5846    3.3282 H   0  0  0  0  0  0  0  0  0  0  0  0
  1  2  1  0
  1 33  1  0
  1 34  1  0
  1 35  1  0
  2  3  2  0
  2  4  1  0
  4  5  1  0
  5 27  1  0
  5  6  1  0
  5 36  1  1
  6  7  1  0
  6 37  1  0
  6 38  1  0
  7 24  1  0
  7  8  1  6
  7  9  1  0
  8 39  1  0
  8 40  1  0
  8 41  1  0
  9 10  2  3
  9 42  1  0
 10 20  1  0
 10 11  1  0
 11 12  2  0
 12 16  1  0
 12 13  1  0
 13 14  1  0
 13 15  1  0
 13 16  1  0
 14 43  1  0
 14 44  1  0
 14 45  1  0
 15 46  1  0
 15 47  1  0
 15 48  1  0
 16 17  1  1
 16 18  1  0
 17 49  1  0
 17 50  1  0
 17 51  1  0
 18 19  2  0
 18 20  1  0
 20 21  1  0
 20 52  1  6
 21 31  1  0
 21 22  1  0
 21 53  1  1
 22 23  1  0
 22 54  1  0
 22 55  1  0
 23 24  1  0
 23 56  1  0
 23 57  1  0
 24 25  1  0
 24 58  1  6
 25 31  1  0
 25 26  1  6
 25 27  1  0
 26 59  1  0
 26 60  1  0
 26 61  1  0
 27 28  1  1
 27 29  1  0
 28 62  1  0
 28 63  1  0
 28 64  1  0
 29 30  2  0
 29 31  1  0
 31 32  1  1
 32 65  1  0
 32 66  1  0
 32 67  1  0
M  END
>  <i_m_ct_stereo_status>  (369) 
1

>  <s_m_source_file>  (369) 
/var/tmp/pbs.5076255.sched01/tmphrhi8tfx/132_dydaaau.sdf

>  <i_m_source_file_index>  (369) 
41

>  <i_lp_mmshare_version>  (369) 
48012

>  <i_f3d_flags>  (369) 
0

>  <s_epik_input>  (369) 
W0NIM11DKD1PKU9bQ0BIXShbQ0gyXTEpW0NAQF0oW0NIM10pKFtDQEBdMihbQ0gzXSlbQ0BIXTNbQ0BAXTE0W0NIM10pQyg9TylbQ0BdMihbQ0gzXSlbQ0BASF0oW0NIMl1bQ0gyXTMpW0NASF01Qyg9W0NIXVw0KS9OPUM2QyhbQ0gzXSkoQzU9TylDNihbQ0gzXSlbQ0gzXQ==

>  <s_epik_cmdline>  (369) 
J2VwaWtfcHl0aG9uJywgJy1waHQnLCAnMi4wJywgJy1waCcsICc3LjAnLCAnLXRuJywgJzgnLCAnLW1hJywgJzIwMCcsICctaW1hZScsICc8aW5maWxlLm1hZT4nLCAnLW9tYWUnLCAnPG91dGZpbGUubWFlPic=

>  <r_lp_tautomer_probability>  (369) 
1

>  <r_epik_Ionization_Penalty>  (369) 
1.04711e-10

>  <r_epik_Ionization_Penalty_Charging>  (369) 
0

>  <r_epik_Ionization_Penalty_Neutral>  (369) 
1.04711e-10

>  <r_epik_State_Penalty>  (369) 
-0

>  <r_epik_Charging_Adjusted_Penalty>  (369) 
0

>  <i_epik_Tot_Q>  (369) 
0

>  <i_epik_Tot_abs_Q>  (369) 
0

>  <s_epik_Chemistry_Notes>  (369) 
This compound has an ester and may undergo hydrolysis at high or low pH. This compound has an imine and may undergo hydrolysis.

>  <s_lp_Force_Field>  (369) 
OPLS3e

>  <r_lp_Energy>  (369) 
114.598

>  <b_lp_Chiralities_Consistent>  (369) 
1

>  <s_lp_Variant>  (369) 
117:0-4

>  <s_i_glide_gridfile>  (369) 
pfpi4k_grid

>  <i_i_glide_lignum>  (369) 
41

>  <i_i_glide_rotatable_bonds>  (369) 
2

>  <r_i_docking_score>  (369) 
-2.13494

>  <r_i_glide_ligand_efficiency>  (369) 
-0.066717

>  <r_i_glide_ligand_efficiency_sa>  (369) 
-0.211813

>  <r_i_glide_ligand_efficiency_ln>  (369) 
-0.478072

>  <r_i_glide_gscore>  (369) 
-2.13494

>  <r_i_glide_lipo>  (369) 
-0.556137

>  <r_i_glide_hbond>  (369) 
-0.127574

>  <r_i_glide_metal>  (369) 
-0

>  <r_i_glide_rewards>  (369) 
-0.553369

>  <r_i_glide_evdw>  (369) 
-7.78497

>  <r_i_glide_ecoul>  (369) 
-3.91525

>  <r_i_glide_erotb>  (369) 
0.104155

>  <r_i_glide_esite>  (369) 
-0.0254836

>  <r_i_glide_emodel>  (369) 
-7.06981

>  <r_i_glide_energy>  (369) 
-11.7002

>  <r_i_glide_einternal>  (369) 
2.08558

>  <r_i_glide_intrahb_reward>  (369) 
-0

>  <i_i_glide_confnum>  (369) 
2

>  <i_i_glide_posenum>  (369) 
19

>  <r_i_glide_eff_state_penalty>  (369) 
0

>  <ligand_id>  (369) 
117

>  <original_smiles>  (369) 
CC(=O)OC1CC2(C)C=C3N=C4C(C)(C)C4(C)C(=O)C3C3CCC2C2(C)C1(C)C(=O)C32C

>  <smiles>  (369) 
[H]C1=C2N=C3C(C([H])([H])[H])(C(=O)C2([H])C2([H])C([H])([H])C([H])([H])C4([H])C1(C([H])([H])[H])C([H])([H])C([H])(OC(=O)C([H])([H])[H])C1(C([H])([H])[H])C(=O)C2(C([H])([H])[H])C41C([H])([H])[H])C3(C([H])([H])[H])C([H])([H])[H]

$$$$
117:3:2
     RDKit          3D

 67 72  0  0  1  0  0  0  0  0999 V2000
   -0.9755   -0.6948    4.4087 C   0  0  0  0  0  0  0  0  0  0  0  0
    0.0588   -1.7823    4.2358 C   0  0  0  0  0  0  0  0  0  0  0  0
    0.2824   -2.5841    5.1467 O   0  0  0  0  0  0  0  0  0  0  0  0
    0.6398   -1.7299    3.0037 O   0  0  0  0  0  0  0  0  0  0  0  0
    1.7629   -2.4855    2.5685 C   0  0  2  0  0  0  0  0  0  0  0  0
    1.7036   -4.0050    2.8576 C   0  0  0  0  0  0  0  0  0  0  0  0
    2.9017   -4.8116    2.3574 C   0  0  1  0  0  0  0  0  0  0  0  0
    2.6445   -6.2496    2.8765 C   0  0  0  0  0  0  0  0  0  0  0  0
    2.9595   -4.8624    0.8099 C   0  0  0  0  0  0  0  0  0  0  0  0
    3.3520   -3.8424    0.0259 C   0  0  0  0  0  0  0  0  0  0  0  0
    2.4232   -3.2965   -0.8502 N   0  0  0  0  0  0  0  0  0  0  0  0
    3.1006   -2.6357   -1.9055 C   0  0  0  0  0  0  0  0  0  0  0  0
    3.4093   -2.1574   -3.2991 C   0  0  0  0  0  0  0  0  0  0  0  0
    3.5545   -3.2014   -4.3340 C   0  0  0  0  0  0  0  0  0  0  0  0
    2.6439   -0.9490   -3.8203 C   0  0  0  0  0  0  0  0  0  0  0  0
    4.4285   -2.0394   -2.2528 C   0  0  1  0  0  0  0  0  0  0  0  0
    4.8545   -0.6811   -1.8141 C   0  0  0  0  0  0  0  0  0  0  0  0
    5.2756   -3.0932   -1.6683 C   0  0  0  0  0  0  0  0  0  0  0  0
    6.2860   -3.4339   -2.2663 O   0  0  0  0  0  0  0  0  0  0  0  0
    4.8892   -3.6359   -0.2494 C   0  0  1  0  0  0  0  0  0  0  0  0
    5.6985   -2.9662    0.8920 C   0  0  2  0  0  0  0  0  0  0  0  0
    6.4014   -4.0700    1.6904 C   0  0  0  0  0  0  0  0  0  0  0  0
    5.4973   -4.9321    2.5987 C   0  0  0  0  0  0  0  0  0  0  0  0
    4.1835   -4.2417    3.0640 C   0  0  1  0  0  0  0  0  0  0  0  0
    4.3532   -2.6901    3.1700 C   0  0  2  0  0  0  0  0  0  0  0  0
    4.9951   -2.4411    4.5530 C   0  0  0  0  0  0  0  0  0  0  0  0
    3.0893   -1.7987    2.9552 C   0  0  2  0  0  0  0  0  0  0  0  0
    2.8592   -0.6269    3.9459 C   0  0  0  0  0  0  0  0  0  0  0  0
    3.7567   -1.2487    1.6749 C   0  0  0  0  0  0  0  0  0  0  0  0
    3.4291   -0.3755    0.8875 O   0  0  0  0  0  0  0  0  0  0  0  0
    5.0637   -1.9980    1.9529 C   0  0  2  0  0  0  0  0  0  0  0  0
    6.0759   -0.8819    2.2521 C   0  0  0  0  0  0  0  0  0  0  0  0
   -1.8455   -0.7963    3.7487 H   0  0  0  0  0  0  0  0  0  0  0  0
   -0.4940    0.2616    4.2122 H   0  0  0  0  0  0  0  0  0  0  0  0
   -1.3068   -0.7004    5.4416 H   0  0  0  0  0  0  0  0  0  0  0  0
    1.6562   -2.4236    1.4831 H   0  0  0  0  0  0  0  0  0  0  0  0
    1.6773   -4.1699    3.9287 H   0  0  0  0  0  0  0  0  0  0  0  0
    0.7807   -4.4411    2.4840 H   0  0  0  0  0  0  0  0  0  0  0  0
    2.5058   -6.2820    3.9599 H   0  0  0  0  0  0  0  0  0  0  0  0
    3.4502   -6.9414    2.6336 H   0  0  0  0  0  0  0  0  0  0  0  0
    1.7344   -6.6569    2.4417 H   0  0  0  0  0  0  0  0  0  0  0  0
    3.6902   -5.6553    0.7424 H   0  0  0  0  0  0  0  0  0  0  0  0
    4.1927   -2.7242   -5.0637 H   0  0  0  0  0  0  0  0  0  0  0  0
    2.5989   -3.4061   -4.7961 H   0  0  0  0  0  0  0  0  0  0  0  0
    4.0288   -4.1276   -4.0016 H   0  0  0  0  0  0  0  0  0  0  0  0
    3.3366   -0.3221   -4.3741 H   0  0  0  0  0  0  0  0  0  0  0  0
    2.2460   -0.3669   -2.9788 H   0  0  0  0  0  0  0  0  0  0  0  0
    1.8098   -1.2902   -4.4564 H   0  0  0  0  0  0  0  0  0  0  0  0
    5.4316   -0.7024   -0.8850 H   0  0  0  0  0  0  0  0  0  0  0  0
    3.9532   -0.1213   -1.6888 H   0  0  0  0  0  0  0  0  0  0  0  0
    5.4127   -0.2145   -2.6336 H   0  0  0  0  0  0  0  0  0  0  0  0
    5.2523   -4.6406   -0.3229 H   0  0  0  0  0  0  0  0  0  0  0  0
    6.5189   -2.4443    0.3984 H   0  0  0  0  0  0  0  0  0  0  0  0
    7.0716   -4.6873    1.0953 H   0  0  0  0  0  0  0  0  0  0  0  0
    7.0326   -3.5490    2.3262 H   0  0  0  0  0  0  0  0  0  0  0  0
    5.2747   -5.8830    2.1049 H   0  0  0  0  0  0  0  0  0  0  0  0
    6.0678   -5.2003    3.4897 H   0  0  0  0  0  0  0  0  0  0  0  0
    4.0499   -4.5857    4.0950 H   0  0  0  0  0  0  0  0  0  0  0  0
    5.2398   -1.3935    4.7195 H   0  0  0  0  0  0  0  0  0  0  0  0
    5.9239   -2.9925    4.6673 H   0  0  0  0  0  0  0  0  0  0  0  0
    4.3285   -2.7217    5.3750 H   0  0  0  0  0  0  0  0  0  0  0  0
    2.5712   -1.0372    4.9155 H   0  0  0  0  0  0  0  0  0  0  0  0
    2.0682    0.0598    3.6295 H   0  0  0  0  0  0  0  0  0  0  0  0
    3.7201    0.0102    4.1376 H   0  0  0  0  0  0  0  0  0  0  0  0
    6.9063   -1.2626    2.8131 H   0  0  0  0  0  0  0  0  0  0  0  0
    5.7046   -0.0748    2.8886 H   0  0  0  0  0  0  0  0  0  0  0  0
    6.4980   -0.4579    1.3467 H   0  0  0  0  0  0  0  0  0  0  0  0
  1  2  1  0
  1 33  1  0
  1 34  1  0
  1 35  1  0
  2  3  2  0
  2  4  1  0
  4  5  1  0
  5 27  1  0
  5  6  1  0
  5 36  1  6
  6  7  1  0
  6 37  1  0
  6 38  1  0
  7 24  1  0
  7  8  1  1
  7  9  1  0
  8 39  1  0
  8 40  1  0
  8 41  1  0
  9 10  2  3
  9 42  1  0
 10 20  1  0
 10 11  1  0
 11 12  2  0
 12 16  1  0
 12 13  1  0
 13 14  1  0
 13 15  1  0
 13 16  1  0
 14 43  1  0
 14 44  1  0
 14 45  1  0
 15 46  1  0
 15 47  1  0
 15 48  1  0
 16 17  1  1
 16 18  1  0
 17 49  1  0
 17 50  1  0
 17 51  1  0
 18 19  2  0
 18 20  1  0
 20 21  1  0
 20 52  1  6
 21 31  1  0
 21 22  1  0
 21 53  1  6
 22 23  1  0
 22 54  1  0
 22 55  1  0
 23 24  1  0
 23 56  1  0
 23 57  1  0
 24 25  1  0
 24 58  1  1
 25 31  1  0
 25 26  1  1
 25 27  1  0
 26 59  1  0
 26 60  1  0
 26 61  1  0
 27 28  1  1
 27 29  1  0
 28 62  1  0
 28 63  1  0
 28 64  1  0
 29 30  2  0
 29 31  1  0
 31 32  1  1
 32 65  1  0
 32 66  1  0
 32 67  1  0
M  END
>  <i_m_ct_stereo_status>  (370) 
1

>  <s_m_source_file>  (370) 
/var/tmp/pbs.5076255.sched01/tmphrhi8tfx/132_dydaaau.sdf

>  <i_m_source_file_index>  (370) 
41

>  <i_lp_mmshare_version>  (370) 
48012

>  <i_f3d_flags>  (370) 
0

>  <s_epik_input>  (370) 
W0NIM11DKD1PKU9bQ0BIXShbQ0gyXTEpW0NAQF0oW0NIM10pKFtDQEBdMihbQ0gzXSlbQ0BIXTNbQ0BAXTE0W0NIM10pQyg9TylbQ0BdMihbQ0gzXSlbQ0BASF0oW0NIMl1bQ0gyXTMpW0NASF01Qyg9W0NIXVw0KS9OPUM2QyhbQ0gzXSkoQzU9TylDNihbQ0gzXSlbQ0gzXQ==

>  <s_epik_cmdline>  (370) 
J2VwaWtfcHl0aG9uJywgJy1waHQnLCAnMi4wJywgJy1waCcsICc3LjAnLCAnLXRuJywgJzgnLCAnLW1hJywgJzIwMCcsICctaW1hZScsICc8aW5maWxlLm1hZT4nLCAnLW9tYWUnLCAnPG91dGZpbGUubWFlPic=

>  <r_lp_tautomer_probability>  (370) 
1

>  <r_epik_Ionization_Penalty>  (370) 
1.04711e-10

>  <r_epik_Ionization_Penalty_Charging>  (370) 
0

>  <r_epik_Ionization_Penalty_Neutral>  (370) 
1.04711e-10

>  <r_epik_State_Penalty>  (370) 
-0

>  <r_epik_Charging_Adjusted_Penalty>  (370) 
0

>  <i_epik_Tot_Q>  (370) 
0

>  <i_epik_Tot_abs_Q>  (370) 
0

>  <s_epik_Chemistry_Notes>  (370) 
This compound has an ester and may undergo hydrolysis at high or low pH. This compound has an imine and may undergo hydrolysis.

>  <s_lp_Force_Field>  (370) 
OPLS3e

>  <r_lp_Energy>  (370) 
114.598

>  <b_lp_Chiralities_Consistent>  (370) 
1

>  <s_lp_Variant>  (370) 
117:0-4

>  <s_i_glide_gridfile>  (370) 
pfpi4k_grid

>  <i_i_glide_lignum>  (370) 
41

>  <i_i_glide_rotatable_bonds>  (370) 
2

>  <r_i_docking_score>  (370) 
-1.31673

>  <r_i_glide_ligand_efficiency>  (370) 
-0.0411479

>  <r_i_glide_ligand_efficiency_sa>  (370) 
-0.130637

>  <r_i_glide_ligand_efficiency_ln>  (370) 
-0.294853

>  <r_i_glide_gscore>  (370) 
-1.31673

>  <r_i_glide_lipo>  (370) 
-0.611511

>  <r_i_glide_hbond>  (370) 
0

>  <r_i_glide_metal>  (370) 
-0

>  <r_i_glide_rewards>  (370) 
-0.523695

>  <r_i_glide_evdw>  (370) 
-12.6478

>  <r_i_glide_ecoul>  (370) 
2.6379

>  <r_i_glide_erotb>  (370) 
0.104155

>  <r_i_glide_esite>  (370) 
-0.0489787

>  <r_i_glide_emodel>  (370) 
-4.68486

>  <r_i_glide_energy>  (370) 
-10.0099

>  <r_i_glide_einternal>  (370) 
4.74368

>  <r_i_glide_intrahb_reward>  (370) 
-0

>  <i_i_glide_confnum>  (370) 
3

>  <i_i_glide_posenum>  (370) 
15

>  <r_i_glide_eff_state_penalty>  (370) 
0

>  <ligand_id>  (370) 
117

>  <original_smiles>  (370) 
CC(=O)OC1CC2(C)C=C3N=C4C(C)(C)C4(C)C(=O)C3C3CCC2C2(C)C1(C)C(=O)C32C

>  <smiles>  (370) 
[H]C1=C2N=C3C(C([H])([H])[H])(C(=O)C2([H])C2([H])C([H])([H])C([H])([H])C4([H])C1(C([H])([H])[H])C([H])([H])C([H])(OC(=O)C([H])([H])[H])C1(C([H])([H])[H])C(=O)C2(C([H])([H])[H])C41C([H])([H])[H])C3(C([H])([H])[H])C([H])([H])[H]

$$$$
