0:0:0
     RDKit          3D

 37 39  0  0  1  0  0  0  0  0999 V2000
   -0.1612   -5.5591    5.4357 C   0  0  0  0  0  0  0  0  0  0  0  0
   -0.4174   -6.6388    4.7011 N   0  0  0  0  0  0  0  0  0  0  0  0
    0.4042   -6.8713    3.6576 C   0  0  0  0  0  0  0  0  0  0  0  0
    1.4572   -5.9967    3.3160 C   0  0  0  0  0  0  0  0  0  0  0  0
    2.2305   -6.3089    2.2169 O   0  0  0  0  0  0  0  0  0  0  0  0
    3.2428   -5.4174    1.7680 C   0  0  2  0  0  0  0  0  0  0  0  0
    2.6108   -4.2041    1.0718 C   0  0  0  0  0  0  0  0  0  0  0  0
    3.6493   -3.3344    0.3698 C   0  0  0  0  0  0  0  0  0  0  0  0
    4.4343   -4.1246   -0.6133 N   0  0  1  0  0  0  0  0  0  0  0  0
    5.3998   -3.2773   -1.3580 C   0  0  0  0  0  0  0  0  0  0  0  0
    4.6994   -2.3225   -2.2839 C   0  0  0  0  0  0  0  0  0  0  0  0
    4.0841   -2.6175   -3.5335 C   0  0  0  0  0  0  0  0  0  0  0  0
    3.5718   -1.4394   -3.9962 C   0  0  0  0  0  0  0  0  0  0  0  0
    3.8240   -0.4280   -3.1285 O   0  0  0  0  0  0  0  0  0  0  0  0
    4.4931   -0.9850   -2.0894 C   0  0  0  0  0  0  0  0  0  0  0  0
    5.1007   -5.2752    0.0465 C   0  0  0  0  0  0  0  0  0  0  0  0
    4.0885   -6.1954    0.7476 C   0  0  0  0  0  0  0  0  0  0  0  0
    1.6207   -4.8782    4.1766 C   0  0  0  0  0  0  0  0  0  0  0  0
    0.8010   -4.6605    5.2273 N   0  0  0  0  0  0  0  0  0  0  0  0
   -0.8207   -5.3807    6.2733 H   0  0  0  0  0  0  0  0  0  0  0  0
    0.2023   -7.7509    3.0655 H   0  0  0  0  0  0  0  0  0  0  0  0
    3.8846   -5.1074    2.5910 H   0  0  0  0  0  0  0  0  0  0  0  0
    1.8813   -4.5499    0.3396 H   0  0  0  0  0  0  0  0  0  0  0  0
    2.0574   -3.5892    1.7808 H   0  0  0  0  0  0  0  0  0  0  0  0
    3.1288   -2.5052   -0.1057 H   0  0  0  0  0  0  0  0  0  0  0  0
    4.3201   -2.9087    1.1158 H   0  0  0  0  0  0  0  0  0  0  0  0
    6.0161   -2.7144   -0.6515 H   0  0  0  0  0  0  0  0  0  0  0  0
    6.0790   -3.8748   -1.9678 H   0  0  0  0  0  0  0  0  0  0  0  0
    4.0149   -3.5743   -4.0325 H   0  0  0  0  0  0  0  0  0  0  0  0
    3.0106   -1.1507   -4.8698 H   0  0  0  0  0  0  0  0  0  0  0  0
    4.7384   -0.2928   -1.2968 H   0  0  0  0  0  0  0  0  0  0  0  0
    5.6397   -5.8570   -0.6973 H   0  0  0  0  0  0  0  0  0  0  0  0
    5.8339   -4.9107    0.7708 H   0  0  0  0  0  0  0  0  0  0  0  0
    4.6093   -7.0228    1.2330 H   0  0  0  0  0  0  0  0  0  0  0  0
    3.4389   -6.6505    0.0001 H   0  0  0  0  0  0  0  0  0  0  0  0
    2.3921   -4.1388    4.0267 H   0  0  0  0  0  0  0  0  0  0  0  0
    3.7921   -4.5110   -1.2978 H   0  0  0  0  0  0  0  0  0  0  0  0
  1 19  2  0
  1  2  1  0
  1 20  1  0
  2  3  2  0
  3  4  1  0
  3 21  1  0
  4  5  1  0
  4 18  2  0
  5  6  1  0
  6 17  1  0
  6  7  1  0
  6 22  1  1
  7  8  1  0
  7 23  1  0
  7 24  1  0
  8  9  1  0
  8 25  1  0
  8 26  1  0
  9 10  1  0
  9 16  1  0
  9 37  1  6
 10 11  1  0
 10 27  1  0
 10 28  1  0
 11 15  2  0
 11 12  1  0
 12 13  2  0
 12 29  1  0
 13 14  1  0
 13 30  1  0
 14 15  1  0
 15 31  1  0
 16 17  1  0
 16 32  1  0
 16 33  1  0
 17 34  1  0
 17 35  1  0
 18 19  1  0
 18 36  1  0
M  CHG  1   9   1
M  END
>  <i_m_ct_stereo_status>  (1) 
1

>  <s_m_source_file>  (1) 
/var/tmp/pbs.5076255.sched01/tmpbmel7479/053vx75p8.sdf

>  <i_m_source_file_index>  (1) 
1

>  <i_lp_mmshare_version>  (1) 
48012

>  <i_f3d_flags>  (1) 
0

>  <s_epik_input>  (1) 
W2NIXTFuW2NIXW5bY0hdYzFPW0NIXTJbQ0gyXVtDSDJdTihbQ0gyXVtDSDJdMilbQ0gyXWMzW2NIXVtjSF1vW2NIXTM=

>  <s_epik_cmdline>  (1) 
J2VwaWtfcHl0aG9uJywgJy1waHQnLCAnMi4wJywgJy1waCcsICc3LjAnLCAnLXRuJywgJzgnLCAnLW1hJywgJzIwMCcsICctaW1hZScsICc8aW5maWxlLm1hZT4nLCAnLW9tYWUnLCAnPG91dGZpbGUubWFlPic=

>  <r_lp_tautomer_probability>  (1) 
1

>  <r_epik_Ionization_Penalty>  (1) 
0.0617173

>  <r_epik_Ionization_Penalty_Charging>  (1) 
0.0617167

>  <r_epik_Ionization_Penalty_Neutral>  (1) 
6.46664e-07

>  <r_epik_State_Penalty>  (1) 
0.0535882

>  <r_epik_Charging_Adjusted_Penalty>  (1) 
0.115305

>  <i_epik_Tot_Q>  (1) 
1

>  <i_epik_Tot_abs_Q>  (1) 
1

>  <s_lp_Force_Field>  (1) 
OPLS3e

>  <r_lp_Energy>  (1) 
33.0534

>  <b_lp_Chiralities_Consistent>  (1) 
1

>  <s_lp_Variant>  (1) 
0:0-1

>  <s_i_glide_gridfile>  (1) 
pfpi4k_grid

>  <i_i_glide_lignum>  (1) 
1

>  <i_i_glide_rotatable_bonds>  (1) 
4

>  <r_i_docking_score>  (1) 
-2.95949

>  <r_i_glide_ligand_efficiency>  (1) 
-0.155763

>  <r_i_glide_ligand_efficiency_sa>  (1) 
-0.415638

>  <r_i_glide_ligand_efficiency_ln>  (1) 
-0.750295

>  <r_i_glide_gscore>  (1) 
-2.95949

>  <r_i_glide_lipo>  (1) 
-0.559758

>  <r_i_glide_hbond>  (1) 
0

>  <r_i_glide_metal>  (1) 
-0

>  <r_i_glide_rewards>  (1) 
-1.63424

>  <r_i_glide_evdw>  (1) 
-24.3273

>  <r_i_glide_ecoul>  (1) 
-3.86683

>  <r_i_glide_erotb>  (1) 
1.04485

>  <r_i_glide_esite>  (1) 
-0.013956

>  <r_i_glide_emodel>  (1) 
-34.1038

>  <r_i_glide_energy>  (1) 
-28.1941

>  <r_i_glide_einternal>  (1) 
1.10965

>  <r_i_glide_intrahb_reward>  (1) 
-0

>  <i_i_glide_confnum>  (1) 
5

>  <i_i_glide_posenum>  (1) 
4

>  <r_i_glide_eff_state_penalty>  (1) 
0

>  <ligand_id>  (1) 
0

>  <original_smiles>  (1) 
c1ncc(OC2CCN(Cc3ccoc3)CC2)cn1

>  <smiles>  (1) 
[H]c1nc([H])c(OC2([H])C([H])([H])C([H])([H])[N+]([H])(C([H])([H])c3c([H])oc([H])c3[H])C([H])([H])C2([H])[H])c([H])n1

$$$$
0:0:1
     RDKit          3D

 37 39  0  0  1  0  0  0  0  0999 V2000
    3.0396   -1.4222   -3.8488 C   0  0  0  0  0  0  0  0  0  0  0  0
    3.9601   -0.5529   -3.4445 N   0  0  0  0  0  0  0  0  0  0  0  0
    4.6155   -0.8597   -2.3130 C   0  0  0  0  0  0  0  0  0  0  0  0
    4.3703   -2.0449   -1.5905 C   0  0  0  0  0  0  0  0  0  0  0  0
    5.1340   -2.2569   -0.4539 O   0  0  0  0  0  0  0  0  0  0  0  0
    4.9106   -3.3801    0.3894 C   0  0  2  0  0  0  0  0  0  0  0  0
    5.2244   -4.7110   -0.3264 C   0  0  0  0  0  0  0  0  0  0  0  0
    4.8817   -5.9046    0.5671 C   0  0  0  0  0  0  0  0  0  0  0  0
    3.4864   -5.8183    1.0654 N   0  0  1  0  0  0  0  0  0  0  0  0
    3.0996   -7.0489    1.7861 C   0  0  0  0  0  0  0  0  0  0  0  0
    1.6318   -7.0577    2.1395 C   0  0  0  0  0  0  0  0  0  0  0  0
    1.0583   -7.0369    3.4436 C   0  0  0  0  0  0  0  0  0  0  0  0
   -0.2950   -7.0599    3.2711 C   0  0  0  0  0  0  0  0  0  0  0  0
   -0.6094   -7.0537    1.9493 O   0  0  0  0  0  0  0  0  0  0  0  0
    0.5724   -7.0712    1.2790 C   0  0  0  0  0  0  0  0  0  0  0  0
    3.2715   -4.5854    1.8792 C   0  0  0  0  0  0  0  0  0  0  0  0
    3.5244   -3.3252    1.0553 C   0  0  0  0  0  0  0  0  0  0  0  0
    3.3516   -2.8791   -2.1275 C   0  0  0  0  0  0  0  0  0  0  0  0
    2.7131   -2.5660   -3.2622 N   0  0  0  0  0  0  0  0  0  0  0  0
    2.4806   -1.1645   -4.7266 H   0  0  0  0  0  0  0  0  0  0  0  0
    5.3659   -0.1656   -1.9730 H   0  0  0  0  0  0  0  0  0  0  0  0
    5.6443   -3.2748    1.1968 H   0  0  0  0  0  0  0  0  0  0  0  0
    4.6911   -4.8356   -1.2612 H   0  0  0  0  0  0  0  0  0  0  0  0
    6.2920   -4.7233   -0.5790 H   0  0  0  0  0  0  0  0  0  0  0  0
    4.9990   -6.8108   -0.0226 H   0  0  0  0  0  0  0  0  0  0  0  0
    5.5687   -5.9789    1.4146 H   0  0  0  0  0  0  0  0  0  0  0  0
    3.3244   -7.9388    1.1923 H   0  0  0  0  0  0  0  0  0  0  0  0
    3.6867   -7.1180    2.7088 H   0  0  0  0  0  0  0  0  0  0  0  0
    1.5708   -7.0258    4.3953 H   0  0  0  0  0  0  0  0  0  0  0  0
   -1.1345   -7.0742    3.9472 H   0  0  0  0  0  0  0  0  0  0  0  0
    0.4818   -7.1012    0.2051 H   0  0  0  0  0  0  0  0  0  0  0  0
    2.2471   -4.5233    2.2483 H   0  0  0  0  0  0  0  0  0  0  0  0
    3.9214   -4.6094    2.7562 H   0  0  0  0  0  0  0  0  0  0  0  0
    3.4458   -2.4362    1.6849 H   0  0  0  0  0  0  0  0  0  0  0  0
    2.7186   -3.2301    0.3311 H   0  0  0  0  0  0  0  0  0  0  0  0
    3.0375   -3.8088   -1.6675 H   0  0  0  0  0  0  0  0  0  0  0  0
    2.8840   -5.7517    0.2490 H   0  0  0  0  0  0  0  0  0  0  0  0
  1 19  2  0
  1  2  1  0
  1 20  1  0
  2  3  2  0
  3  4  1  0
  3 21  1  0
  4  5  1  0
  4 18  2  0
  5  6  1  0
  6 17  1  0
  6  7  1  0
  6 22  1  1
  7  8  1  0
  7 23  1  0
  7 24  1  0
  8  9  1  0
  8 25  1  0
  8 26  1  0
  9 10  1  0
  9 16  1  0
  9 37  1  6
 10 11  1  0
 10 27  1  0
 10 28  1  0
 11 15  2  0
 11 12  1  0
 12 13  2  0
 12 29  1  0
 13 14  1  0
 13 30  1  0
 14 15  1  0
 15 31  1  0
 16 17  1  0
 16 32  1  0
 16 33  1  0
 17 34  1  0
 17 35  1  0
 18 19  1  0
 18 36  1  0
M  CHG  1   9   1
M  END
>  <i_m_ct_stereo_status>  (2) 
1

>  <s_m_source_file>  (2) 
/var/tmp/pbs.5076255.sched01/tmpbmel7479/053vx75p8.sdf

>  <i_m_source_file_index>  (2) 
1

>  <i_lp_mmshare_version>  (2) 
48012

>  <i_f3d_flags>  (2) 
0

>  <s_epik_input>  (2) 
W2NIXTFuW2NIXW5bY0hdYzFPW0NIXTJbQ0gyXVtDSDJdTihbQ0gyXVtDSDJdMilbQ0gyXWMzW2NIXVtjSF1vW2NIXTM=

>  <s_epik_cmdline>  (2) 
J2VwaWtfcHl0aG9uJywgJy1waHQnLCAnMi4wJywgJy1waCcsICc3LjAnLCAnLXRuJywgJzgnLCAnLW1hJywgJzIwMCcsICctaW1hZScsICc8aW5maWxlLm1hZT4nLCAnLW9tYWUnLCAnPG91dGZpbGUubWFlPic=

>  <r_lp_tautomer_probability>  (2) 
1

>  <r_epik_Ionization_Penalty>  (2) 
0.0617173

>  <r_epik_Ionization_Penalty_Charging>  (2) 
0.0617167

>  <r_epik_Ionization_Penalty_Neutral>  (2) 
6.46664e-07

>  <r_epik_State_Penalty>  (2) 
0.0535882

>  <r_epik_Charging_Adjusted_Penalty>  (2) 
0.115305

>  <i_epik_Tot_Q>  (2) 
1

>  <i_epik_Tot_abs_Q>  (2) 
1

>  <s_lp_Force_Field>  (2) 
OPLS3e

>  <r_lp_Energy>  (2) 
33.0534

>  <b_lp_Chiralities_Consistent>  (2) 
1

>  <s_lp_Variant>  (2) 
0:0-1

>  <s_i_glide_gridfile>  (2) 
pfpi4k_grid

>  <i_i_glide_lignum>  (2) 
1

>  <i_i_glide_rotatable_bonds>  (2) 
4

>  <r_i_docking_score>  (2) 
-2.83066

>  <r_i_glide_ligand_efficiency>  (2) 
-0.148982

>  <r_i_glide_ligand_efficiency_sa>  (2) 
-0.397544

>  <r_i_glide_ligand_efficiency_ln>  (2) 
-0.717632

>  <r_i_glide_gscore>  (2) 
-2.83066

>  <r_i_glide_lipo>  (2) 
-0.218568

>  <r_i_glide_hbond>  (2) 
-0.1325

>  <r_i_glide_metal>  (2) 
-0

>  <r_i_glide_rewards>  (2) 
-1.81454

>  <r_i_glide_evdw>  (2) 
-27.222

>  <r_i_glide_ecoul>  (2) 
-2.32535

>  <r_i_glide_erotb>  (2) 
1.04485

>  <r_i_glide_esite>  (2) 
0

>  <r_i_glide_emodel>  (2) 
-33.836

>  <r_i_glide_energy>  (2) 
-29.5474

>  <r_i_glide_einternal>  (2) 
3.46141

>  <r_i_glide_intrahb_reward>  (2) 
-0

>  <i_i_glide_confnum>  (2) 
4

>  <i_i_glide_posenum>  (2) 
3

>  <r_i_glide_eff_state_penalty>  (2) 
0

>  <ligand_id>  (2) 
0

>  <original_smiles>  (2) 
c1ncc(OC2CCN(Cc3ccoc3)CC2)cn1

>  <smiles>  (2) 
[H]c1nc([H])c(OC2([H])C([H])([H])C([H])([H])[N+]([H])(C([H])([H])c3c([H])oc([H])c3[H])C([H])([H])C2([H])[H])c([H])n1

$$$$
0:0:2
     RDKit          3D

 37 39  0  0  1  0  0  0  0  0999 V2000
    7.1530   -5.0196    1.6452 C   0  0  0  0  0  0  0  0  0  0  0  0
    8.1260   -5.8321    1.2251 N   0  0  0  0  0  0  0  0  0  0  0  0
    7.8490   -7.1485    1.2716 C   0  0  0  0  0  0  0  0  0  0  0  0
    6.6158   -7.6614    1.6974 C   0  0  0  0  0  0  0  0  0  0  0  0
    6.4221   -9.0294    1.6368 O   0  0  0  0  0  0  0  0  0  0  0  0
    5.2749   -9.6490    2.1872 C   0  0  2  0  0  0  0  0  0  0  0  0
    3.9690   -9.3075    1.4404 C   0  0  0  0  0  0  0  0  0  0  0  0
    2.7621   -9.9021    2.1587 C   0  0  0  0  0  0  0  0  0  0  0  0
    2.7398   -9.5858    3.6166 N   0  0  1  0  0  0  0  0  0  0  0  0
    1.4892  -10.0457    4.2830 C   0  0  0  0  0  0  0  0  0  0  0  0
    0.3165   -9.1969    3.8701 C   0  0  0  0  0  0  0  0  0  0  0  0
   -0.5773   -9.4457    2.7898 C   0  0  0  0  0  0  0  0  0  0  0  0
   -1.4869   -8.4320    2.7903 C   0  0  0  0  0  0  0  0  0  0  0  0
   -1.2227   -7.5462    3.7943 O   0  0  0  0  0  0  0  0  0  0  0  0
   -0.1247   -8.0343    4.4419 C   0  0  0  0  0  0  0  0  0  0  0  0
    3.9523  -10.1043    4.3043 C   0  0  0  0  0  0  0  0  0  0  0  0
    5.2280   -9.4895    3.7163 C   0  0  0  0  0  0  0  0  0  0  0  0
    5.6872   -6.6819    2.1598 C   0  0  0  0  0  0  0  0  0  0  0  0
    5.9748   -5.3782    2.1180 N   0  0  0  0  0  0  0  0  0  0  0  0
    7.3750   -3.9532    1.6415 H   0  0  0  0  0  0  0  0  0  0  0  0
    8.6131   -7.8300    0.9199 H   0  0  0  0  0  0  0  0  0  0  0  0
    5.4308  -10.7230    2.0270 H   0  0  0  0  0  0  0  0  0  0  0  0
    3.7657   -8.2392    1.3236 H   0  0  0  0  0  0  0  0  0  0  0  0
    4.0168   -9.7007    0.4192 H   0  0  0  0  0  0  0  0  0  0  0  0
    1.8853   -9.5114    1.6548 H   0  0  0  0  0  0  0  0  0  0  0  0
    2.7375  -10.9871    2.0580 H   0  0  0  0  0  0  0  0  0  0  0  0
    1.2823  -11.0894    4.0264 H   0  0  0  0  0  0  0  0  0  0  0  0
    1.5521   -9.9998    5.3745 H   0  0  0  0  0  0  0  0  0  0  0  0
   -0.5575  -10.2720    2.0945 H   0  0  0  0  0  0  0  0  0  0  0  0
   -2.3307   -8.2049    2.1667 H   0  0  0  0  0  0  0  0  0  0  0  0
    0.1979   -7.4394    5.2801 H   0  0  0  0  0  0  0  0  0  0  0  0
    3.9265   -9.8570    5.3686 H   0  0  0  0  0  0  0  0  0  0  0  0
    3.9851  -11.1932    4.2331 H   0  0  0  0  0  0  0  0  0  0  0  0
    6.1093   -9.9481    4.1720 H   0  0  0  0  0  0  0  0  0  0  0  0
    5.2734   -8.4476    4.0329 H   0  0  0  0  0  0  0  0  0  0  0  0
    4.7306   -6.9163    2.5769 H   0  0  0  0  0  0  0  0  0  0  0  0
    2.7598   -8.5848    3.7181 H   0  0  0  0  0  0  0  0  0  0  0  0
  1 19  2  0
  1  2  1  0
  1 20  1  0
  2  3  2  0
  3  4  1  0
  3 21  1  0
  4  5  1  0
  4 18  2  0
  5  6  1  0
  6 17  1  0
  6  7  1  0
  6 22  1  1
  7  8  1  0
  7 23  1  0
  7 24  1  0
  8  9  1  0
  8 25  1  0
  8 26  1  0
  9 10  1  0
  9 16  1  0
  9 37  1  6
 10 11  1  0
 10 27  1  0
 10 28  1  0
 11 15  2  0
 11 12  1  0
 12 13  2  0
 12 29  1  0
 13 14  1  0
 13 30  1  0
 14 15  1  0
 15 31  1  0
 16 17  1  0
 16 32  1  0
 16 33  1  0
 17 34  1  0
 17 35  1  0
 18 19  1  0
 18 36  1  0
M  CHG  1   9   1
M  END
>  <i_m_ct_stereo_status>  (3) 
1

>  <s_m_source_file>  (3) 
/var/tmp/pbs.5076255.sched01/tmpbmel7479/053vx75p8.sdf

>  <i_m_source_file_index>  (3) 
1

>  <i_lp_mmshare_version>  (3) 
48012

>  <i_f3d_flags>  (3) 
0

>  <s_epik_input>  (3) 
W2NIXTFuW2NIXW5bY0hdYzFPW0NIXTJbQ0gyXVtDSDJdTihbQ0gyXVtDSDJdMilbQ0gyXWMzW2NIXVtjSF1vW2NIXTM=

>  <s_epik_cmdline>  (3) 
J2VwaWtfcHl0aG9uJywgJy1waHQnLCAnMi4wJywgJy1waCcsICc3LjAnLCAnLXRuJywgJzgnLCAnLW1hJywgJzIwMCcsICctaW1hZScsICc8aW5maWxlLm1hZT4nLCAnLW9tYWUnLCAnPG91dGZpbGUubWFlPic=

>  <r_lp_tautomer_probability>  (3) 
1

>  <r_epik_Ionization_Penalty>  (3) 
0.0617173

>  <r_epik_Ionization_Penalty_Charging>  (3) 
0.0617167

>  <r_epik_Ionization_Penalty_Neutral>  (3) 
6.46664e-07

>  <r_epik_State_Penalty>  (3) 
0.0535882

>  <r_epik_Charging_Adjusted_Penalty>  (3) 
0.115305

>  <i_epik_Tot_Q>  (3) 
1

>  <i_epik_Tot_abs_Q>  (3) 
1

>  <s_lp_Force_Field>  (3) 
OPLS3e

>  <r_lp_Energy>  (3) 
33.0534

>  <b_lp_Chiralities_Consistent>  (3) 
1

>  <s_lp_Variant>  (3) 
0:0-1

>  <s_i_glide_gridfile>  (3) 
pfpi4k_grid

>  <i_i_glide_lignum>  (3) 
1

>  <i_i_glide_rotatable_bonds>  (3) 
4

>  <r_i_docking_score>  (3) 
-2.58753

>  <r_i_glide_ligand_efficiency>  (3) 
-0.136186

>  <r_i_glide_ligand_efficiency_sa>  (3) 
-0.363399

>  <r_i_glide_ligand_efficiency_ln>  (3) 
-0.655995

>  <r_i_glide_gscore>  (3) 
-2.58753

>  <r_i_glide_lipo>  (3) 
-0.122839

>  <r_i_glide_hbond>  (3) 
0

>  <r_i_glide_metal>  (3) 
-0

>  <r_i_glide_rewards>  (3) 
-1.75067

>  <r_i_glide_evdw>  (3) 
-23.095

>  <r_i_glide_ecoul>  (3) 
-3.97241

>  <r_i_glide_erotb>  (3) 
1.04485

>  <r_i_glide_esite>  (3) 
-0.0082598

>  <r_i_glide_emodel>  (3) 
-30.6967

>  <r_i_glide_energy>  (3) 
-27.0674

>  <r_i_glide_einternal>  (3) 
3.48039

>  <r_i_glide_intrahb_reward>  (3) 
-0

>  <i_i_glide_confnum>  (3) 
4

>  <i_i_glide_posenum>  (3) 
32

>  <r_i_glide_eff_state_penalty>  (3) 
0

>  <ligand_id>  (3) 
0

>  <original_smiles>  (3) 
c1ncc(OC2CCN(Cc3ccoc3)CC2)cn1

>  <smiles>  (3) 
[H]c1nc([H])c(OC2([H])C([H])([H])C([H])([H])[N+]([H])(C([H])([H])c3c([H])oc([H])c3[H])C([H])([H])C2([H])[H])c([H])n1

$$$$
0:1:0
     RDKit          3D

 36 38  0  0  1  0  0  0  0  0999 V2000
    8.4505   -3.0300   -0.3846 C   0  0  0  0  0  0  0  0  0  0  0  0
    7.4603   -2.2579   -0.8306 N   0  0  0  0  0  0  0  0  0  0  0  0
    6.2182   -2.5940   -0.4298 C   0  0  0  0  0  0  0  0  0  0  0  0
    5.9692   -3.6841    0.4285 C   0  0  0  0  0  0  0  0  0  0  0  0
    4.6648   -3.9290    0.7976 O   0  0  0  0  0  0  0  0  0  0  0  0
    4.3339   -5.1116    1.5104 C   0  0  0  0  0  0  0  0  0  0  0  0
    4.3610   -6.3361    0.5801 C   0  0  0  0  0  0  0  0  0  0  0  0
    3.7852   -7.5712    1.2889 C   0  0  0  0  0  0  0  0  0  0  0  0
    2.4046   -7.3119    1.7052 N   0  0  0  0  0  0  0  0  0  0  0  0
    1.8383   -8.5253    2.2995 C   0  0  0  0  0  0  0  0  0  0  0  0
    0.3672   -8.4125    2.6095 C   0  0  0  0  0  0  0  0  0  0  0  0
   -0.3570   -9.0535    3.6530 C   0  0  0  0  0  0  0  0  0  0  0  0
   -1.6532   -8.6477    3.5322 C   0  0  0  0  0  0  0  0  0  0  0  0
   -1.8012   -7.8005    2.4822 O   0  0  0  0  0  0  0  0  0  0  0  0
   -0.5690   -7.6846    1.9291 C   0  0  0  0  0  0  0  0  0  0  0  0
    2.3888   -6.2186    2.6839 C   0  0  0  0  0  0  0  0  0  0  0  0
    2.9034   -4.9249    2.0385 C   0  0  0  0  0  0  0  0  0  0  0  0
    7.1114   -4.4147    0.8400 C   0  0  0  0  0  0  0  0  0  0  0  0
    8.3535   -4.0848    0.4214 N   0  0  0  0  0  0  0  0  0  0  0  0
    9.4348   -2.7569   -0.7074 H   0  0  0  0  0  0  0  0  0  0  0  0
    5.4131   -1.9752   -0.8027 H   0  0  0  0  0  0  0  0  0  0  0  0
    4.9934   -5.2524    2.3681 H   0  0  0  0  0  0  0  0  0  0  0  0
    3.7793   -6.1236   -0.3172 H   0  0  0  0  0  0  0  0  0  0  0  0
    5.3750   -6.5469    0.2441 H   0  0  0  0  0  0  0  0  0  0  0  0
    3.8066   -8.4147    0.6014 H   0  0  0  0  0  0  0  0  0  0  0  0
    4.3982   -7.8459    2.1486 H   0  0  0  0  0  0  0  0  0  0  0  0
    1.9622   -9.3703    1.6166 H   0  0  0  0  0  0  0  0  0  0  0  0
    2.3632   -8.7772    3.2230 H   0  0  0  0  0  0  0  0  0  0  0  0
    0.0058   -9.7421    4.4078 H   0  0  0  0  0  0  0  0  0  0  0  0
   -2.5553   -8.8915    4.0767 H   0  0  0  0  0  0  0  0  0  0  0  0
   -0.5190   -7.0548    1.0537 H   0  0  0  0  0  0  0  0  0  0  0  0
    1.3746   -6.0359    3.0357 H   0  0  0  0  0  0  0  0  0  0  0  0
    2.9834   -6.4788    3.5605 H   0  0  0  0  0  0  0  0  0  0  0  0
    2.8725   -4.1103    2.7642 H   0  0  0  0  0  0  0  0  0  0  0  0
    2.2412   -4.6363    1.2210 H   0  0  0  0  0  0  0  0  0  0  0  0
    7.0572   -5.2660    1.5062 H   0  0  0  0  0  0  0  0  0  0  0  0
  1 19  2  0
  1  2  1  0
  1 20  1  0
  2  3  2  0
  3  4  1  0
  3 21  1  0
  4  5  1  0
  4 18  2  0
  5  6  1  0
  6 17  1  0
  6  7  1  0
  6 22  1  0
  7  8  1  0
  7 23  1  0
  7 24  1  0
  8  9  1  0
  8 25  1  0
  8 26  1  0
  9 10  1  0
  9 16  1  0
 10 11  1  0
 10 27  1  0
 10 28  1  0
 11 15  2  0
 11 12  1  0
 12 13  2  0
 12 29  1  0
 13 14  1  0
 13 30  1  0
 14 15  1  0
 15 31  1  0
 16 17  1  0
 16 32  1  0
 16 33  1  0
 17 34  1  0
 17 35  1  0
 18 19  1  0
 18 36  1  0
M  END
>  <i_m_ct_stereo_status>  (4) 
1

>  <s_m_source_file>  (4) 
/var/tmp/pbs.5076255.sched01/tmpbmel7479/053vx75p8.sdf

>  <i_m_source_file_index>  (4) 
2

>  <i_lp_mmshare_version>  (4) 
48012

>  <i_f3d_flags>  (4) 
0

>  <s_epik_input>  (4) 
W2NIXTFuW2NIXW5bY0hdYzFPW0NIXTJbQ0gyXVtDSDJdTihbQ0gyXVtDSDJdMilbQ0gyXWMzW2NIXVtjSF1vW2NIXTM=

>  <s_epik_cmdline>  (4) 
J2VwaWtfcHl0aG9uJywgJy1waHQnLCAnMi4wJywgJy1waCcsICc3LjAnLCAnLXRuJywgJzgnLCAnLW1hJywgJzIwMCcsICctaW1hZScsICc8aW5maWxlLm1hZT4nLCAnLW9tYWUnLCAnPG91dGZpbGUubWFlPic=

>  <r_lp_tautomer_probability>  (4) 
1

>  <r_epik_Ionization_Penalty>  (4) 
1.37066

>  <r_epik_Ionization_Penalty_Charging>  (4) 
0

>  <r_epik_Ionization_Penalty_Neutral>  (4) 
1.37066

>  <r_epik_State_Penalty>  (4) 
1.45033

>  <r_epik_Charging_Adjusted_Penalty>  (4) 
1.45033

>  <i_epik_Tot_Q>  (4) 
0

>  <i_epik_Tot_abs_Q>  (4) 
0

>  <s_lp_Force_Field>  (4) 
OPLS3e

>  <r_lp_Energy>  (4) 
28.3167

>  <b_lp_Chiralities_Consistent>  (4) 
1

>  <s_lp_Variant>  (4) 
0:0-2

>  <s_i_glide_gridfile>  (4) 
pfpi4k_grid

>  <i_i_glide_lignum>  (4) 
2

>  <i_i_glide_rotatable_bonds>  (4) 
4

>  <r_i_docking_score>  (4) 
-3.01853

>  <r_i_glide_ligand_efficiency>  (4) 
-0.15887

>  <r_i_glide_ligand_efficiency_sa>  (4) 
-0.423929

>  <r_i_glide_ligand_efficiency_ln>  (4) 
-0.765263

>  <r_i_glide_gscore>  (4) 
-3.01853

>  <r_i_glide_lipo>  (4) 
-0.419692

>  <r_i_glide_hbond>  (4) 
-0.16

>  <r_i_glide_metal>  (4) 
-0

>  <r_i_glide_rewards>  (4) 
-1.64111

>  <r_i_glide_evdw>  (4) 
-24.8068

>  <r_i_glide_ecoul>  (4) 
-4.05633

>  <r_i_glide_erotb>  (4) 
1.05185

>  <r_i_glide_esite>  (4) 
-0.000792585

>  <r_i_glide_emodel>  (4) 
-34.7687

>  <r_i_glide_energy>  (4) 
-28.8632

>  <r_i_glide_einternal>  (4) 
0.112316

>  <r_i_glide_intrahb_reward>  (4) 
-0

>  <i_i_glide_confnum>  (4) 
5

>  <i_i_glide_posenum>  (4) 
37

>  <r_i_glide_eff_state_penalty>  (4) 
0

>  <ligand_id>  (4) 
0

>  <original_smiles>  (4) 
c1ncc(OC2CCN(Cc3ccoc3)CC2)cn1

>  <smiles>  (4) 
[H]c1nc([H])c(OC2([H])C([H])([H])C([H])([H])N(C([H])([H])c3c([H])oc([H])c3[H])C([H])([H])C2([H])[H])c([H])n1

$$$$
0:1:1
     RDKit          3D

 36 38  0  0  1  0  0  0  0  0999 V2000
    5.9231   -0.8252    0.4619 C   0  0  0  0  0  0  0  0  0  0  0  0
    6.2145   -1.4558   -0.6837 N   0  0  0  0  0  0  0  0  0  0  0  0
    5.8440   -2.7547   -0.7662 C   0  0  0  0  0  0  0  0  0  0  0  0
    5.2327   -3.4336    0.3013 C   0  0  0  0  0  0  0  0  0  0  0  0
    4.9021   -4.7609    0.1159 O   0  0  0  0  0  0  0  0  0  0  0  0
    4.3910   -5.5344    1.1866 C   0  0  0  0  0  0  0  0  0  0  0  0
    4.3689   -6.9974    0.7112 C   0  0  0  0  0  0  0  0  0  0  0  0
    3.6863   -7.9306    1.7409 C   0  0  0  0  0  0  0  0  0  0  0  0
    2.3208   -7.4731    2.0146 N   0  0  0  0  0  0  0  0  0  0  0  0
    1.6769   -8.3919    2.9655 C   0  0  0  0  0  0  0  0  0  0  0  0
    0.2188   -8.0867    3.1996 C   0  0  0  0  0  0  0  0  0  0  0  0
   -0.3394   -7.2143    4.1828 C   0  0  0  0  0  0  0  0  0  0  0  0
   -1.6876   -7.2421    3.9984 C   0  0  0  0  0  0  0  0  0  0  0  0
   -2.0238   -8.0513    2.9634 O   0  0  0  0  0  0  0  0  0  0  0  0
   -0.8546   -8.5705    2.5094 C   0  0  0  0  0  0  0  0  0  0  0  0
    2.3747   -6.1282    2.5791 C   0  0  0  0  0  0  0  0  0  0  0  0
    2.9418   -5.1494    1.5541 C   0  0  0  0  0  0  0  0  0  0  0  0
    5.0227   -2.6683    1.4728 C   0  0  0  0  0  0  0  0  0  0  0  0
    5.3566   -1.3608    1.5489 N   0  0  0  0  0  0  0  0  0  0  0  0
    6.2050    0.2061    0.5328 H   0  0  0  0  0  0  0  0  0  0  0  0
    6.0805   -3.2502   -1.6967 H   0  0  0  0  0  0  0  0  0  0  0  0
    5.0603   -5.4650    2.0496 H   0  0  0  0  0  0  0  0  0  0  0  0
    3.8221   -7.0362   -0.2302 H   0  0  0  0  0  0  0  0  0  0  0  0
    5.3812   -7.3580    0.5056 H   0  0  0  0  0  0  0  0  0  0  0  0
    3.6548   -8.9494    1.3471 H   0  0  0  0  0  0  0  0  0  0  0  0
    4.2716   -7.9641    2.6608 H   0  0  0  0  0  0  0  0  0  0  0  0
    1.7470   -9.4193    2.5861 H   0  0  0  0  0  0  0  0  0  0  0  0
    2.1908   -8.3657    3.9253 H   0  0  0  0  0  0  0  0  0  0  0  0
    0.1777   -6.6251    4.9263 H   0  0  0  0  0  0  0  0  0  0  0  0
   -2.5208   -6.7435    4.4827 H   0  0  0  0  0  0  0  0  0  0  0  0
   -0.9584   -9.2639    1.6795 H   0  0  0  0  0  0  0  0  0  0  0  0
    1.3844   -5.7666    2.8253 H   0  0  0  0  0  0  0  0  0  0  0  0
    2.9628   -6.1175    3.4965 H   0  0  0  0  0  0  0  0  0  0  0  0
    2.8548   -4.1554    1.9986 H   0  0  0  0  0  0  0  0  0  0  0  0
    2.3271   -5.1469    0.6531 H   0  0  0  0  0  0  0  0  0  0  0  0
    4.5970   -3.0611    2.3925 H   0  0  0  0  0  0  0  0  0  0  0  0
  1 19  2  0
  1  2  1  0
  1 20  1  0
  2  3  2  0
  3  4  1  0
  3 21  1  0
  4  5  1  0
  4 18  2  0
  5  6  1  0
  6 17  1  0
  6  7  1  0
  6 22  1  0
  7  8  1  0
  7 23  1  0
  7 24  1  0
  8  9  1  0
  8 25  1  0
  8 26  1  0
  9 10  1  0
  9 16  1  0
 10 11  1  0
 10 27  1  0
 10 28  1  0
 11 15  2  0
 11 12  1  0
 12 13  2  0
 12 29  1  0
 13 14  1  0
 13 30  1  0
 14 15  1  0
 15 31  1  0
 16 17  1  0
 16 32  1  0
 16 33  1  0
 17 34  1  0
 17 35  1  0
 18 19  1  0
 18 36  1  0
M  END
>  <i_m_ct_stereo_status>  (5) 
1

>  <s_m_source_file>  (5) 
/var/tmp/pbs.5076255.sched01/tmpbmel7479/053vx75p8.sdf

>  <i_m_source_file_index>  (5) 
2

>  <i_lp_mmshare_version>  (5) 
48012

>  <i_f3d_flags>  (5) 
0

>  <s_epik_input>  (5) 
W2NIXTFuW2NIXW5bY0hdYzFPW0NIXTJbQ0gyXVtDSDJdTihbQ0gyXVtDSDJdMilbQ0gyXWMzW2NIXVtjSF1vW2NIXTM=

>  <s_epik_cmdline>  (5) 
J2VwaWtfcHl0aG9uJywgJy1waHQnLCAnMi4wJywgJy1waCcsICc3LjAnLCAnLXRuJywgJzgnLCAnLW1hJywgJzIwMCcsICctaW1hZScsICc8aW5maWxlLm1hZT4nLCAnLW9tYWUnLCAnPG91dGZpbGUubWFlPic=

>  <r_lp_tautomer_probability>  (5) 
1

>  <r_epik_Ionization_Penalty>  (5) 
1.37066

>  <r_epik_Ionization_Penalty_Charging>  (5) 
0

>  <r_epik_Ionization_Penalty_Neutral>  (5) 
1.37066

>  <r_epik_State_Penalty>  (5) 
1.45033

>  <r_epik_Charging_Adjusted_Penalty>  (5) 
1.45033

>  <i_epik_Tot_Q>  (5) 
0

>  <i_epik_Tot_abs_Q>  (5) 
0

>  <s_lp_Force_Field>  (5) 
OPLS3e

>  <r_lp_Energy>  (5) 
28.3167

>  <b_lp_Chiralities_Consistent>  (5) 
1

>  <s_lp_Variant>  (5) 
0:0-2

>  <s_i_glide_gridfile>  (5) 
pfpi4k_grid

>  <i_i_glide_lignum>  (5) 
2

>  <i_i_glide_rotatable_bonds>  (5) 
4

>  <r_i_docking_score>  (5) 
-2.8205

>  <r_i_glide_ligand_efficiency>  (5) 
-0.148447

>  <r_i_glide_ligand_efficiency_sa>  (5) 
-0.396117

>  <r_i_glide_ligand_efficiency_ln>  (5) 
-0.715056

>  <r_i_glide_gscore>  (5) 
-2.8205

>  <r_i_glide_lipo>  (5) 
-0.253647

>  <r_i_glide_hbond>  (5) 
-0.112928

>  <r_i_glide_metal>  (5) 
-0

>  <r_i_glide_rewards>  (5) 
-1.80889

>  <r_i_glide_evdw>  (5) 
-23.1973

>  <r_i_glide_ecoul>  (5) 
-3.58017

>  <r_i_glide_erotb>  (5) 
1.05185

>  <r_i_glide_esite>  (5) 
0

>  <r_i_glide_emodel>  (5) 
-31.7686

>  <r_i_glide_energy>  (5) 
-26.7775

>  <r_i_glide_einternal>  (5) 
0.503926

>  <r_i_glide_intrahb_reward>  (5) 
-0

>  <i_i_glide_confnum>  (5) 
4

>  <i_i_glide_posenum>  (5) 
38

>  <r_i_glide_eff_state_penalty>  (5) 
0

>  <ligand_id>  (5) 
0

>  <original_smiles>  (5) 
c1ncc(OC2CCN(Cc3ccoc3)CC2)cn1

>  <smiles>  (5) 
[H]c1nc([H])c(OC2([H])C([H])([H])C([H])([H])N(C([H])([H])c3c([H])oc([H])c3[H])C([H])([H])C2([H])[H])c([H])n1

$$$$
0:1:2
     RDKit          3D

 36 38  0  0  1  0  0  0  0  0999 V2000
    3.0366   -1.4803   -3.6919 C   0  0  0  0  0  0  0  0  0  0  0  0
    3.9920   -0.6576   -3.2709 N   0  0  0  0  0  0  0  0  0  0  0  0
    4.6150   -0.9961   -2.1200 C   0  0  0  0  0  0  0  0  0  0  0  0
    4.3138   -2.1726   -1.4092 C   0  0  0  0  0  0  0  0  0  0  0  0
    5.0475   -2.4357   -0.2723 O   0  0  0  0  0  0  0  0  0  0  0  0
    4.7564   -3.5631    0.5513 C   0  0  0  0  0  0  0  0  0  0  0  0
    5.0113   -4.9086   -0.1621 C   0  0  0  0  0  0  0  0  0  0  0  0
    4.5598   -6.0837    0.7178 C   0  0  0  0  0  0  0  0  0  0  0  0
    3.1682   -5.9056    1.1351 N   0  0  0  0  0  0  0  0  0  0  0  0
    2.7398   -7.0951    1.8682 C   0  0  0  0  0  0  0  0  0  0  0  0
    1.2759   -7.0881    2.2408 C   0  0  0  0  0  0  0  0  0  0  0  0
    0.7144   -7.0814    3.5513 C   0  0  0  0  0  0  0  0  0  0  0  0
   -0.6402   -7.0717    3.3979 C   0  0  0  0  0  0  0  0  0  0  0  0
   -0.9753   -7.0564    2.0813 O   0  0  0  0  0  0  0  0  0  0  0  0
    0.2002   -7.0745    1.3976 C   0  0  0  0  0  0  0  0  0  0  0  0
    3.0395   -4.7232    1.9932 C   0  0  0  0  0  0  0  0  0  0  0  0
    3.3666   -3.4555    1.2039 C   0  0  0  0  0  0  0  0  0  0  0  0
    3.2633   -2.9624   -1.9685 C   0  0  0  0  0  0  0  0  0  0  0  0
    2.6544   -2.6174   -3.1144 N   0  0  0  0  0  0  0  0  0  0  0  0
    2.5156   -1.2072   -4.5956 H   0  0  0  0  0  0  0  0  0  0  0  0
    5.3811   -0.3231   -1.7714 H   0  0  0  0  0  0  0  0  0  0  0  0
    5.4765   -3.5025    1.3755 H   0  0  0  0  0  0  0  0  0  0  0  0
    4.4996   -4.9942   -1.1063 H   0  0  0  0  0  0  0  0  0  0  0  0
    6.0865   -4.9991   -0.3734 H   0  0  0  0  0  0  0  0  0  0  0  0
    4.6447   -6.9902    0.1257 H   0  0  0  0  0  0  0  0  0  0  0  0
    5.2068   -6.2051    1.5915 H   0  0  0  0  0  0  0  0  0  0  0  0
    2.9203   -7.9891    1.2669 H   0  0  0  0  0  0  0  0  0  0  0  0
    3.3335   -7.2012    2.7776 H   0  0  0  0  0  0  0  0  0  0  0  0
    1.2409   -7.0887    4.4972 H   0  0  0  0  0  0  0  0  0  0  0  0
   -1.4724   -7.0681    4.0874 H   0  0  0  0  0  0  0  0  0  0  0  0
    0.1045   -7.0858    0.3221 H   0  0  0  0  0  0  0  0  0  0  0  0
    2.0138   -4.6182    2.3504 H   0  0  0  0  0  0  0  0  0  0  0  0
    3.6787   -4.8186    2.8705 H   0  0  0  0  0  0  0  0  0  0  0  0
    3.3229   -2.5812    1.8539 H   0  0  0  0  0  0  0  0  0  0  0  0
    2.5711   -3.3086    0.4766 H   0  0  0  0  0  0  0  0  0  0  0  0
    2.9062   -3.8734   -1.5173 H   0  0  0  0  0  0  0  0  0  0  0  0
  1 19  2  0
  1  2  1  0
  1 20  1  0
  2  3  2  0
  3  4  1  0
  3 21  1  0
  4  5  1  0
  4 18  2  0
  5  6  1  0
  6 17  1  0
  6  7  1  0
  6 22  1  0
  7  8  1  0
  7 23  1  0
  7 24  1  0
  8  9  1  0
  8 25  1  0
  8 26  1  0
  9 10  1  0
  9 16  1  0
 10 11  1  0
 10 27  1  0
 10 28  1  0
 11 15  2  0
 11 12  1  0
 12 13  2  0
 12 29  1  0
 13 14  1  0
 13 30  1  0
 14 15  1  0
 15 31  1  0
 16 17  1  0
 16 32  1  0
 16 33  1  0
 17 34  1  0
 17 35  1  0
 18 19  1  0
 18 36  1  0
M  END
>  <i_m_ct_stereo_status>  (6) 
1

>  <s_m_source_file>  (6) 
/var/tmp/pbs.5076255.sched01/tmpbmel7479/053vx75p8.sdf

>  <i_m_source_file_index>  (6) 
2

>  <i_lp_mmshare_version>  (6) 
48012

>  <i_f3d_flags>  (6) 
0

>  <s_epik_input>  (6) 
W2NIXTFuW2NIXW5bY0hdYzFPW0NIXTJbQ0gyXVtDSDJdTihbQ0gyXVtDSDJdMilbQ0gyXWMzW2NIXVtjSF1vW2NIXTM=

>  <s_epik_cmdline>  (6) 
J2VwaWtfcHl0aG9uJywgJy1waHQnLCAnMi4wJywgJy1waCcsICc3LjAnLCAnLXRuJywgJzgnLCAnLW1hJywgJzIwMCcsICctaW1hZScsICc8aW5maWxlLm1hZT4nLCAnLW9tYWUnLCAnPG91dGZpbGUubWFlPic=

>  <r_lp_tautomer_probability>  (6) 
1

>  <r_epik_Ionization_Penalty>  (6) 
1.37066

>  <r_epik_Ionization_Penalty_Charging>  (6) 
0

>  <r_epik_Ionization_Penalty_Neutral>  (6) 
1.37066

>  <r_epik_State_Penalty>  (6) 
1.45033

>  <r_epik_Charging_Adjusted_Penalty>  (6) 
1.45033

>  <i_epik_Tot_Q>  (6) 
0

>  <i_epik_Tot_abs_Q>  (6) 
0

>  <s_lp_Force_Field>  (6) 
OPLS3e

>  <r_lp_Energy>  (6) 
28.3167

>  <b_lp_Chiralities_Consistent>  (6) 
1

>  <s_lp_Variant>  (6) 
0:0-2

>  <s_i_glide_gridfile>  (6) 
pfpi4k_grid

>  <i_i_glide_lignum>  (6) 
2

>  <i_i_glide_rotatable_bonds>  (6) 
4

>  <r_i_docking_score>  (6) 
-2.70656

>  <r_i_glide_ligand_efficiency>  (6) 
-0.142451

>  <r_i_glide_ligand_efficiency_sa>  (6) 
-0.380115

>  <r_i_glide_ligand_efficiency_ln>  (6) 
-0.686172

>  <r_i_glide_gscore>  (6) 
-2.70656

>  <r_i_glide_lipo>  (6) 
-0.156886

>  <r_i_glide_hbond>  (6) 
-0.16

>  <r_i_glide_metal>  (6) 
-0

>  <r_i_glide_rewards>  (6) 
-1.91094

>  <r_i_glide_evdw>  (6) 
-28.4769

>  <r_i_glide_ecoul>  (6) 
-0.711636

>  <r_i_glide_erotb>  (6) 
1.05185

>  <r_i_glide_esite>  (6) 
0

>  <r_i_glide_emodel>  (6) 
-32.6624

>  <r_i_glide_energy>  (6) 
-29.1886

>  <r_i_glide_einternal>  (6) 
3.49119

>  <r_i_glide_intrahb_reward>  (6) 
-0

>  <i_i_glide_confnum>  (6) 
5

>  <i_i_glide_posenum>  (6) 
1

>  <r_i_glide_eff_state_penalty>  (6) 
0

>  <ligand_id>  (6) 
0

>  <original_smiles>  (6) 
c1ncc(OC2CCN(Cc3ccoc3)CC2)cn1

>  <smiles>  (6) 
[H]c1nc([H])c(OC2([H])C([H])([H])C([H])([H])N(C([H])([H])c3c([H])oc([H])c3[H])C([H])([H])C2([H])[H])c([H])n1

$$$$
2:0:0
     RDKit          3D

 46 49  0  0  1  0  0  0  0  0999 V2000
    5.3547   -0.5665    0.6051 C   0  0  0  0  0  0  0  0  0  0  0  0
    4.9120   -2.0337    0.4090 C   0  0  2  0  0  0  0  0  0  0  0  0
    3.4935   -2.1672    1.0279 C   0  0  0  0  0  0  0  0  0  0  0  0
    3.0380   -3.5825    1.4111 C   0  0  0  0  0  0  0  0  0  0  0  0
    4.1109   -4.3082    2.2663 C   0  0  2  0  0  0  0  0  0  0  0  0
    5.4077   -4.4168    1.4310 C   0  0  1  0  0  0  0  0  0  0  0  0
    5.2083   -5.4582    0.3000 C   0  0  0  0  0  0  0  0  0  0  0  0
    4.8486   -6.8415    0.8683 C   0  0  0  0  0  0  0  0  0  0  0  0
    3.6897   -6.8440    1.8842 C   0  0  2  0  0  0  0  0  0  0  0  0
    2.2843   -6.8756    1.2809 C   0  0  0  0  0  0  0  0  0  0  0  0
    1.4206   -6.2795    2.3683 C   0  0  0  0  0  0  0  0  0  0  0  0
    0.1947   -6.2563    2.3307 O   0  0  0  0  0  0  0  0  0  0  0  0
    2.2719   -5.6906    3.4841 C   0  0  0  0  0  0  0  0  0  0  0  0
    3.7132   -5.6861    2.9186 C   0  0  2  0  0  0  0  0  0  0  0  0
    4.6898   -6.0299    4.0667 C   0  0  0  0  0  0  0  0  0  0  0  0
    5.9464   -3.0026    1.0326 C   0  0  1  0  0  0  0  0  0  0  0  0
    7.0954   -3.0603   -0.0005 C   0  0  0  0  0  0  0  0  0  0  0  0
    6.4403   -2.9064   -1.3858 C   0  0  0  0  0  0  0  0  0  0  0  0
    5.0580   -2.3482   -1.0793 C   0  0  0  0  0  0  0  0  0  0  0  0
    4.2078   -2.1305   -1.9401 O   0  0  0  0  0  0  0  0  0  0  0  0
    5.5004   -0.3303    1.6592 H   0  0  0  0  0  0  0  0  0  0  0  0
    4.6030    0.1254    0.2199 H   0  0  0  0  0  0  0  0  0  0  0  0
    6.2890   -0.3344    0.0930 H   0  0  0  0  0  0  0  0  0  0  0  0
    3.4520   -1.5657    1.9361 H   0  0  0  0  0  0  0  0  0  0  0  0
    2.7524   -1.7294    0.3611 H   0  0  0  0  0  0  0  0  0  0  0  0
    2.1053   -3.4782    1.9648 H   0  0  0  0  0  0  0  0  0  0  0  0
    2.7770   -4.1305    0.5102 H   0  0  0  0  0  0  0  0  0  0  0  0
    4.3111   -3.6318    3.0987 H   0  0  0  0  0  0  0  0  0  0  0  0
    6.1899   -4.8236    2.0705 H   0  0  0  0  0  0  0  0  0  0  0  0
    4.4495   -5.1461   -0.4160 H   0  0  0  0  0  0  0  0  0  0  0  0
    6.1232   -5.5732   -0.2767 H   0  0  0  0  0  0  0  0  0  0  0  0
    4.6178   -7.5237    0.0486 H   0  0  0  0  0  0  0  0  0  0  0  0
    5.7328   -7.2519    1.3572 H   0  0  0  0  0  0  0  0  0  0  0  0
    3.7704   -7.7877    2.4292 H   0  0  0  0  0  0  0  0  0  0  0  0
    2.2141   -6.2602    0.3874 H   0  0  0  0  0  0  0  0  0  0  0  0
    1.9621   -7.8855    1.0279 H   0  0  0  0  0  0  0  0  0  0  0  0
    1.9251   -4.7080    3.7934 H   0  0  0  0  0  0  0  0  0  0  0  0
    2.1859   -6.3540    4.3429 H   0  0  0  0  0  0  0  0  0  0  0  0
    4.3770   -6.9293    4.5986 H   0  0  0  0  0  0  0  0  0  0  0  0
    4.7450   -5.2254    4.8011 H   0  0  0  0  0  0  0  0  0  0  0  0
    5.7001   -6.2213    3.7055 H   0  0  0  0  0  0  0  0  0  0  0  0
    6.3265   -2.5530    1.9518 H   0  0  0  0  0  0  0  0  0  0  0  0
    7.7765   -2.2242    0.1708 H   0  0  0  0  0  0  0  0  0  0  0  0
    7.6964   -3.9663    0.0861 H   0  0  0  0  0  0  0  0  0  0  0  0
    7.0100   -2.2488   -2.0366 H   0  0  0  0  0  0  0  0  0  0  0  0
    6.3331   -3.8585   -1.8948 H   0  0  0  0  0  0  0  0  0  0  0  0
  2  1  1  6
  1 21  1  0
  1 22  1  0
  1 23  1  0
  2 16  1  0
  2 19  1  0
  2  3  1  0
  3  4  1  0
  3 24  1  0
  3 25  1  0
  4  5  1  0
  4 26  1  0
  4 27  1  0
  5 14  1  0
  5  6  1  0
  5 28  1  1
  6  7  1  0
  6 16  1  0
  6 29  1  1
  7  8  1  0
  7 30  1  0
  7 31  1  0
  8  9  1  0
  8 32  1  0
  8 33  1  0
  9 14  1  0
  9 10  1  0
  9 34  1  1
 10 11  1  0
 10 35  1  0
 10 36  1  0
 11 12  2  0
 11 13  1  0
 13 14  1  0
 13 37  1  0
 13 38  1  0
 14 15  1  1
 15 39  1  0
 15 40  1  0
 15 41  1  0
 16 17  1  0
 16 42  1  1
 17 18  1  0
 17 43  1  0
 17 44  1  0
 18 19  1  0
 18 45  1  0
 18 46  1  0
 19 20  2  0
M  END
>  <i_m_ct_stereo_status>  (7) 
1

>  <s_m_source_file>  (7) 
/var/tmp/pbs.5076255.sched01/tmpbmel7479/053vx75p8.sdf

>  <i_m_source_file_index>  (7) 
4

>  <i_lp_mmshare_version>  (7) 
48012

>  <i_f3d_flags>  (7) 
0

>  <s_epik_input>  (7) 
Tz1DMVtDSDJdW0NIMl1bQ0BASF0oW0NAQF0xMltDSDNdKVtDQEhdM1tDQEBIXShbQ0gyXVtDSDJdMilbQ0BdNChbQ0gzXSlbQ0BIXShbQ0gyXVtDSDJdMylbQ0gyXUMoPU8pW0NIMl00

>  <s_epik_cmdline>  (7) 
J2VwaWtfcHl0aG9uJywgJy1waHQnLCAnMi4wJywgJy1waCcsICc3LjAnLCAnLXRuJywgJzgnLCAnLW1hJywgJzIwMCcsICctaW1hZScsICc8aW5maWxlLm1hZT4nLCAnLW9tYWUnLCAnPG91dGZpbGUubWFlPic=

>  <r_lp_tautomer_probability>  (7) 
1

>  <r_epik_Ionization_Penalty>  (7) 
9.23539e-14

>  <r_epik_Ionization_Penalty_Charging>  (7) 
0

>  <r_epik_Ionization_Penalty_Neutral>  (7) 
9.23539e-14

>  <r_epik_State_Penalty>  (7) 
-0

>  <r_epik_Charging_Adjusted_Penalty>  (7) 
0

>  <i_epik_Tot_Q>  (7) 
0

>  <i_epik_Tot_abs_Q>  (7) 
0

>  <s_lp_Force_Field>  (7) 
OPLS3e

>  <r_lp_Energy>  (7) 
23.5196

>  <b_lp_Chiralities_Consistent>  (7) 
1

>  <s_lp_Variant>  (7) 
2:0-1

>  <s_i_glide_gridfile>  (7) 
pfpi4k_grid

>  <i_i_glide_lignum>  (7) 
4

>  <i_i_glide_rotatable_bonds>  (7) 
0

>  <r_i_docking_score>  (7) 
-3.83703

>  <r_i_glide_ligand_efficiency>  (7) 
-0.191851

>  <r_i_glide_ligand_efficiency_sa>  (7) 
-0.520765

>  <r_i_glide_ligand_efficiency_ln>  (7) 
-0.960281

>  <r_i_glide_gscore>  (7) 
-3.83703

>  <r_i_glide_lipo>  (7) 
-0.638558

>  <r_i_glide_hbond>  (7) 
-0.187125

>  <r_i_glide_metal>  (7) 
-0

>  <r_i_glide_rewards>  (7) 
-1.5382

>  <r_i_glide_evdw>  (7) 
-22.8495

>  <r_i_glide_ecoul>  (7) 
-1.83642

>  <r_i_glide_erotb>  (7) 
0

>  <r_i_glide_esite>  (7) 
-0.0552083

>  <r_i_glide_emodel>  (7) 
-30.9582

>  <r_i_glide_energy>  (7) 
-24.6859

>  <r_i_glide_einternal>  (7) 
0

>  <r_i_glide_intrahb_reward>  (7) 
-0

>  <i_i_glide_confnum>  (7) 
1

>  <i_i_glide_posenum>  (7) 
11

>  <r_i_glide_eff_state_penalty>  (7) 
0

>  <ligand_id>  (7) 
2

>  <original_smiles>  (7) 
CC12CCC3C(CCC4CC(=O)CC43C)C1CCC2=O

>  <smiles>  (7) 
[H]C([H])([H])C12C(=O)C([H])([H])C([H])([H])C1([H])C1([H])C([H])([H])C([H])([H])C3([H])C([H])([H])C(=O)C([H])([H])C3(C([H])([H])[H])C1([H])C([H])([H])C2([H])[H]

$$$$
2:0:1
     RDKit          3D

 46 49  0  0  1  0  0  0  0  0999 V2000
    3.4131   -1.3953   -2.5846 C   0  0  0  0  0  0  0  0  0  0  0  0
    3.8046   -2.7225   -1.8976 C   0  0  2  0  0  0  0  0  0  0  0  0
    2.5202   -3.4360   -1.4385 C   0  0  0  0  0  0  0  0  0  0  0  0
    2.6099   -4.4307   -0.2981 C   0  0  0  0  0  0  0  0  0  0  0  0
    3.4020   -3.8736    0.9047 C   0  0  2  0  0  0  0  0  0  0  0  0
    4.8209   -3.5469    0.3941 C   0  0  1  0  0  0  0  0  0  0  0  0
    5.6048   -4.8549    0.1042 C   0  0  0  0  0  0  0  0  0  0  0  0
    5.6936   -5.7381    1.3549 C   0  0  0  0  0  0  0  0  0  0  0  0
    4.3493   -6.0007    2.0507 C   0  0  2  0  0  0  0  0  0  0  0  0
    3.5069   -7.1435    1.4806 C   0  0  0  0  0  0  0  0  0  0  0  0
    2.1095   -6.7443    1.9143 C   0  0  0  0  0  0  0  0  0  0  0  0
    1.1067   -7.4290    1.7438 O   0  0  0  0  0  0  0  0  0  0  0  0
    2.0587   -5.3637    2.5332 C   0  0  0  0  0  0  0  0  0  0  0  0
    3.4311   -4.7577    2.2013 C   0  0  2  0  0  0  0  0  0  0  0  0
    3.8665   -3.8960    3.3996 C   0  0  0  0  0  0  0  0  0  0  0  0
    4.7725   -2.4617   -0.7218 C   0  0  1  0  0  0  0  0  0  0  0  0
    6.1401   -2.2600   -1.3898 C   0  0  0  0  0  0  0  0  0  0  0  0
    6.1539   -3.1464   -2.6325 C   0  0  0  0  0  0  0  0  0  0  0  0
    4.7007   -3.4221   -2.9178 C   0  0  0  0  0  0  0  0  0  0  0  0
    4.3362   -3.9052   -3.9972 O   0  0  0  0  0  0  0  0  0  0  0  0
    2.9885   -0.6975   -1.8743 H   0  0  0  0  0  0  0  0  0  0  0  0
    2.6799   -1.5595   -3.3758 H   0  0  0  0  0  0  0  0  0  0  0  0
    4.2731   -0.9049   -3.0453 H   0  0  0  0  0  0  0  0  0  0  0  0
    1.8229   -2.6710   -1.0729 H   0  0  0  0  0  0  0  0  0  0  0  0
    2.0537   -3.9356   -2.2704 H   0  0  0  0  0  0  0  0  0  0  0  0
    1.5924   -4.7017   -0.0212 H   0  0  0  0  0  0  0  0  0  0  0  0
    3.0576   -5.3336   -0.6889 H   0  0  0  0  0  0  0  0  0  0  0  0
    2.9090   -2.9432    1.1835 H   0  0  0  0  0  0  0  0  0  0  0  0
    5.3653   -3.0557    1.1948 H   0  0  0  0  0  0  0  0  0  0  0  0
    5.1590   -5.4342   -0.7030 H   0  0  0  0  0  0  0  0  0  0  0  0
    6.6254   -4.6338   -0.2013 H   0  0  0  0  0  0  0  0  0  0  0  0
    6.1508   -6.6897    1.0882 H   0  0  0  0  0  0  0  0  0  0  0  0
    6.3616   -5.2574    2.0742 H   0  0  0  0  0  0  0  0  0  0  0  0
    4.5965   -6.3549    3.0484 H   0  0  0  0  0  0  0  0  0  0  0  0
    3.5537   -7.1723    0.3965 H   0  0  0  0  0  0  0  0  0  0  0  0
    3.7899   -8.1272    1.8619 H   0  0  0  0  0  0  0  0  0  0  0  0
    1.2129   -4.7862    2.1664 H   0  0  0  0  0  0  0  0  0  0  0  0
    1.9216   -5.4931    3.6044 H   0  0  0  0  0  0  0  0  0  0  0  0
    3.7894   -4.4538    4.3326 H   0  0  0  0  0  0  0  0  0  0  0  0
    3.2410   -3.0071    3.4992 H   0  0  0  0  0  0  0  0  0  0  0  0
    4.9021   -3.5708    3.3066 H   0  0  0  0  0  0  0  0  0  0  0  0
    4.4860   -1.5280   -0.2340 H   0  0  0  0  0  0  0  0  0  0  0  0
    6.1668   -1.2243   -1.7154 H   0  0  0  0  0  0  0  0  0  0  0  0
    6.9895   -2.4406   -0.7250 H   0  0  0  0  0  0  0  0  0  0  0  0
    6.5903   -2.6628   -3.4983 H   0  0  0  0  0  0  0  0  0  0  0  0
    6.6565   -4.0887   -2.4815 H   0  0  0  0  0  0  0  0  0  0  0  0
  2  1  1  6
  1 21  1  0
  1 22  1  0
  1 23  1  0
  2 16  1  0
  2 19  1  0
  2  3  1  0
  3  4  1  0
  3 24  1  0
  3 25  1  0
  4  5  1  0
  4 26  1  0
  4 27  1  0
  5 14  1  0
  5  6  1  0
  5 28  1  1
  6  7  1  0
  6 16  1  0
  6 29  1  1
  7  8  1  0
  7 30  1  0
  7 31  1  0
  8  9  1  0
  8 32  1  0
  8 33  1  0
  9 14  1  0
  9 10  1  0
  9 34  1  1
 10 11  1  0
 10 35  1  0
 10 36  1  0
 11 12  2  0
 11 13  1  0
 13 14  1  0
 13 37  1  0
 13 38  1  0
 14 15  1  1
 15 39  1  0
 15 40  1  0
 15 41  1  0
 16 17  1  0
 16 42  1  1
 17 18  1  0
 17 43  1  0
 17 44  1  0
 18 19  1  0
 18 45  1  0
 18 46  1  0
 19 20  2  0
M  END
>  <i_m_ct_stereo_status>  (8) 
1

>  <s_m_source_file>  (8) 
/var/tmp/pbs.5076255.sched01/tmpbmel7479/053vx75p8.sdf

>  <i_m_source_file_index>  (8) 
4

>  <i_lp_mmshare_version>  (8) 
48012

>  <i_f3d_flags>  (8) 
0

>  <s_epik_input>  (8) 
Tz1DMVtDSDJdW0NIMl1bQ0BASF0oW0NAQF0xMltDSDNdKVtDQEhdM1tDQEBIXShbQ0gyXVtDSDJdMilbQ0BdNChbQ0gzXSlbQ0BIXShbQ0gyXVtDSDJdMylbQ0gyXUMoPU8pW0NIMl00

>  <s_epik_cmdline>  (8) 
J2VwaWtfcHl0aG9uJywgJy1waHQnLCAnMi4wJywgJy1waCcsICc3LjAnLCAnLXRuJywgJzgnLCAnLW1hJywgJzIwMCcsICctaW1hZScsICc8aW5maWxlLm1hZT4nLCAnLW9tYWUnLCAnPG91dGZpbGUubWFlPic=

>  <r_lp_tautomer_probability>  (8) 
1

>  <r_epik_Ionization_Penalty>  (8) 
9.23539e-14

>  <r_epik_Ionization_Penalty_Charging>  (8) 
0

>  <r_epik_Ionization_Penalty_Neutral>  (8) 
9.23539e-14

>  <r_epik_State_Penalty>  (8) 
-0

>  <r_epik_Charging_Adjusted_Penalty>  (8) 
0

>  <i_epik_Tot_Q>  (8) 
0

>  <i_epik_Tot_abs_Q>  (8) 
0

>  <s_lp_Force_Field>  (8) 
OPLS3e

>  <r_lp_Energy>  (8) 
23.5196

>  <b_lp_Chiralities_Consistent>  (8) 
1

>  <s_lp_Variant>  (8) 
2:0-1

>  <s_i_glide_gridfile>  (8) 
pfpi4k_grid

>  <i_i_glide_lignum>  (8) 
4

>  <i_i_glide_rotatable_bonds>  (8) 
0

>  <r_i_docking_score>  (8) 
-3.5164

>  <r_i_glide_ligand_efficiency>  (8) 
-0.17582

>  <r_i_glide_ligand_efficiency_sa>  (8) 
-0.477249

>  <r_i_glide_ligand_efficiency_ln>  (8) 
-0.88004

>  <r_i_glide_gscore>  (8) 
-3.5164

>  <r_i_glide_lipo>  (8) 
-0.592284

>  <r_i_glide_hbond>  (8) 
0

>  <r_i_glide_metal>  (8) 
-0

>  <r_i_glide_rewards>  (8) 
-1.68501

>  <r_i_glide_evdw>  (8) 
-21.6215

>  <r_i_glide_ecoul>  (8) 
-0.942291

>  <r_i_glide_erotb>  (8) 
0

>  <r_i_glide_esite>  (8) 
-0.0166962

>  <r_i_glide_emodel>  (8) 
-27.6525

>  <r_i_glide_energy>  (8) 
-22.5638

>  <r_i_glide_einternal>  (8) 
0

>  <r_i_glide_intrahb_reward>  (8) 
-0

>  <i_i_glide_confnum>  (8) 
1

>  <i_i_glide_posenum>  (8) 
1

>  <r_i_glide_eff_state_penalty>  (8) 
0

>  <ligand_id>  (8) 
2

>  <original_smiles>  (8) 
CC12CCC3C(CCC4CC(=O)CC43C)C1CCC2=O

>  <smiles>  (8) 
[H]C([H])([H])C12C(=O)C([H])([H])C([H])([H])C1([H])C1([H])C([H])([H])C([H])([H])C3([H])C([H])([H])C(=O)C([H])([H])C3(C([H])([H])[H])C1([H])C([H])([H])C2([H])[H]

$$$$
2:0:2
     RDKit          3D

 46 49  0  0  1  0  0  0  0  0999 V2000
    3.7822   -5.9074    3.4379 C   0  0  0  0  0  0  0  0  0  0  0  0
    3.6937   -4.6490    2.5478 C   0  0  2  0  0  0  0  0  0  0  0  0
    3.3223   -5.1184    1.1141 C   0  0  0  0  0  0  0  0  0  0  0  0
    3.6426   -4.1374   -0.0212 C   0  0  0  0  0  0  0  0  0  0  0  0
    5.1068   -3.6493    0.0421 C   0  0  2  0  0  0  0  0  0  0  0  0
    5.2986   -2.9030    1.3866 C   0  0  1  0  0  0  0  0  0  0  0  0
    4.5526   -1.5432    1.3281 C   0  0  0  0  0  0  0  0  0  0  0  0
    5.0606   -0.6734    0.1730 C   0  0  0  0  0  0  0  0  0  0  0  0
    5.1026   -1.3770   -1.2026 C   0  0  2  0  0  0  0  0  0  0  0  0
    3.7880   -1.4034   -1.9821 C   0  0  0  0  0  0  0  0  0  0  0  0
    3.9723   -2.5938   -2.9008 C   0  0  0  0  0  0  0  0  0  0  0  0
    3.2397   -2.8562   -3.8545 O   0  0  0  0  0  0  0  0  0  0  0  0
    5.2033   -3.4009   -2.5390 C   0  0  0  0  0  0  0  0  0  0  0  0
    5.6575   -2.8280   -1.1800 C   0  0  2  0  0  0  0  0  0  0  0  0
    7.2065   -2.8078   -1.1511 C   0  0  0  0  0  0  0  0  0  0  0  0
    5.0102   -3.8415    2.6039 C   0  0  1  0  0  0  0  0  0  0  0  0
    4.9461   -3.0747    3.9403 C   0  0  0  0  0  0  0  0  0  0  0  0
    3.4666   -2.7430    4.1845 C   0  0  0  0  0  0  0  0  0  0  0  0
    2.7334   -3.6767    3.2361 C   0  0  0  0  0  0  0  0  0  0  0  0
    1.5046   -3.7050    3.1143 O   0  0  0  0  0  0  0  0  0  0  0  0
    4.6189   -6.5430    3.1389 H   0  0  0  0  0  0  0  0  0  0  0  0
    2.8783   -6.5099    3.3629 H   0  0  0  0  0  0  0  0  0  0  0  0
    3.9201   -5.6708    4.4904 H   0  0  0  0  0  0  0  0  0  0  0  0
    3.8570   -6.0596    0.9040 H   0  0  0  0  0  0  0  0  0  0  0  0
    2.2665   -5.3517    1.0725 H   0  0  0  0  0  0  0  0  0  0  0  0
    3.4610   -4.6510   -0.9647 H   0  0  0  0  0  0  0  0  0  0  0  0
    2.9151   -3.3206   -0.0148 H   0  0  0  0  0  0  0  0  0  0  0  0
    5.7105   -4.5592    0.0835 H   0  0  0  0  0  0  0  0  0  0  0  0
    6.3513   -2.6507    1.4886 H   0  0  0  0  0  0  0  0  0  0  0  0
    3.4750   -1.6714    1.2312 H   0  0  0  0  0  0  0  0  0  0  0  0
    4.7034   -0.9767    2.2497 H   0  0  0  0  0  0  0  0  0  0  0  0
    4.4415    0.2169    0.0977 H   0  0  0  0  0  0  0  0  0  0  0  0
    6.0675   -0.3253    0.4194 H   0  0  0  0  0  0  0  0  0  0  0  0
    5.7643   -0.7778   -1.8216 H   0  0  0  0  0  0  0  0  0  0  0  0
    2.9334   -1.5609   -1.3311 H   0  0  0  0  0  0  0  0  0  0  0  0
    3.6209   -0.4822   -2.5489 H   0  0  0  0  0  0  0  0  0  0  0  0
    5.0047   -4.4760   -2.5225 H   0  0  0  0  0  0  0  0  0  0  0  0
    5.9445   -3.2188   -3.3168 H   0  0  0  0  0  0  0  0  0  0  0  0
    7.6188   -2.3423   -2.0467 H   0  0  0  0  0  0  0  0  0  0  0  0
    7.6178   -3.8174   -1.1081 H   0  0  0  0  0  0  0  0  0  0  0  0
    7.5995   -2.2594   -0.2968 H   0  0  0  0  0  0  0  0  0  0  0  0
    5.8490   -4.5461    2.6438 H   0  0  0  0  0  0  0  0  0  0  0  0
    5.3047   -3.7198    4.7425 H   0  0  0  0  0  0  0  0  0  0  0  0
    5.5868   -2.1848    3.9561 H   0  0  0  0  0  0  0  0  0  0  0  0
    3.1760   -2.9215    5.2218 H   0  0  0  0  0  0  0  0  0  0  0  0
    3.2317   -1.7116    3.9329 H   0  0  0  0  0  0  0  0  0  0  0  0
  2  1  1  1
  1 21  1  0
  1 22  1  0
  1 23  1  0
  2 16  1  0
  2 19  1  0
  2  3  1  0
  3  4  1  0
  3 24  1  0
  3 25  1  0
  4  5  1  0
  4 26  1  0
  4 27  1  0
  5 14  1  0
  5  6  1  0
  5 28  1  1
  6  7  1  0
  6 16  1  0
  6 29  1  1
  7  8  1  0
  7 30  1  0
  7 31  1  0
  8  9  1  0
  8 32  1  0
  8 33  1  0
  9 14  1  0
  9 10  1  0
  9 34  1  6
 10 11  1  0
 10 35  1  0
 10 36  1  0
 11 12  2  0
 11 13  1  0
 13 14  1  0
 13 37  1  0
 13 38  1  0
 14 15  1  6
 15 39  1  0
 15 40  1  0
 15 41  1  0
 16 17  1  0
 16 42  1  1
 17 18  1  0
 17 43  1  0
 17 44  1  0
 18 19  1  0
 18 45  1  0
 18 46  1  0
 19 20  2  0
M  END
>  <i_m_ct_stereo_status>  (9) 
1

>  <s_m_source_file>  (9) 
/var/tmp/pbs.5076255.sched01/tmpbmel7479/053vx75p8.sdf

>  <i_m_source_file_index>  (9) 
4

>  <i_lp_mmshare_version>  (9) 
48012

>  <i_f3d_flags>  (9) 
0

>  <s_epik_input>  (9) 
Tz1DMVtDSDJdW0NIMl1bQ0BASF0oW0NAQF0xMltDSDNdKVtDQEhdM1tDQEBIXShbQ0gyXVtDSDJdMilbQ0BdNChbQ0gzXSlbQ0BIXShbQ0gyXVtDSDJdMylbQ0gyXUMoPU8pW0NIMl00

>  <s_epik_cmdline>  (9) 
J2VwaWtfcHl0aG9uJywgJy1waHQnLCAnMi4wJywgJy1waCcsICc3LjAnLCAnLXRuJywgJzgnLCAnLW1hJywgJzIwMCcsICctaW1hZScsICc8aW5maWxlLm1hZT4nLCAnLW9tYWUnLCAnPG91dGZpbGUubWFlPic=

>  <r_lp_tautomer_probability>  (9) 
1

>  <r_epik_Ionization_Penalty>  (9) 
9.23539e-14

>  <r_epik_Ionization_Penalty_Charging>  (9) 
0

>  <r_epik_Ionization_Penalty_Neutral>  (9) 
9.23539e-14

>  <r_epik_State_Penalty>  (9) 
-0

>  <r_epik_Charging_Adjusted_Penalty>  (9) 
0

>  <i_epik_Tot_Q>  (9) 
0

>  <i_epik_Tot_abs_Q>  (9) 
0

>  <s_lp_Force_Field>  (9) 
OPLS3e

>  <r_lp_Energy>  (9) 
23.5196

>  <b_lp_Chiralities_Consistent>  (9) 
1

>  <s_lp_Variant>  (9) 
2:0-1

>  <s_i_glide_gridfile>  (9) 
pfpi4k_grid

>  <i_i_glide_lignum>  (9) 
4

>  <i_i_glide_rotatable_bonds>  (9) 
0

>  <r_i_docking_score>  (9) 
-3.28982

>  <r_i_glide_ligand_efficiency>  (9) 
-0.164491

>  <r_i_glide_ligand_efficiency_sa>  (9) 
-0.446497

>  <r_i_glide_ligand_efficiency_ln>  (9) 
-0.823333

>  <r_i_glide_gscore>  (9) 
-3.28982

>  <r_i_glide_lipo>  (9) 
-0.475226

>  <r_i_glide_hbond>  (9) 
0

>  <r_i_glide_metal>  (9) 
-0

>  <r_i_glide_rewards>  (9) 
-1.65066

>  <r_i_glide_evdw>  (9) 
-26.2465

>  <r_i_glide_ecoul>  (9) 
0.989923

>  <r_i_glide_erotb>  (9) 
0

>  <r_i_glide_esite>  (9) 
-9.34277e-05

>  <r_i_glide_emodel>  (9) 
-30.5896

>  <r_i_glide_energy>  (9) 
-25.2566

>  <r_i_glide_einternal>  (9) 
0

>  <r_i_glide_intrahb_reward>  (9) 
-0

>  <i_i_glide_confnum>  (9) 
1

>  <i_i_glide_posenum>  (9) 
2

>  <r_i_glide_eff_state_penalty>  (9) 
0

>  <ligand_id>  (9) 
2

>  <original_smiles>  (9) 
CC12CCC3C(CCC4CC(=O)CC43C)C1CCC2=O

>  <smiles>  (9) 
[H]C([H])([H])C12C(=O)C([H])([H])C([H])([H])C1([H])C1([H])C([H])([H])C([H])([H])C3([H])C([H])([H])C(=O)C([H])([H])C3(C([H])([H])[H])C1([H])C([H])([H])C2([H])[H]

$$$$
3:0:0
     RDKit          3D

 68 73  0  0  1  0  0  0  0  0999 V2000
   -1.4902   -9.1769    2.3123 C   0  0  0  0  0  0  0  0  0  0  0  0
   -0.1601   -8.7879    2.9833 C   0  0  2  0  0  0  0  0  0  0  0  0
   -0.0628   -9.4131    4.3965 C   0  0  0  0  0  0  0  0  0  0  0  0
    1.1634   -8.9937    5.1270 N   0  0  0  0  0  0  0  0  0  0  0  0
    1.2488   -7.5038    5.1919 C   0  0  2  0  0  0  0  0  0  0  0  0
    1.3350   -6.8904    3.7995 C   0  0  1  0  0  0  0  0  0  0  0  0
    0.0280   -7.2480    3.0337 C   0  0  0  0  0  0  0  0  0  0  0  0
    1.6219   -5.5286    4.1028 O   0  0  0  0  0  0  0  0  0  0  0  0
    2.4981   -5.4589    5.2486 C   0  0  2  0  0  0  0  0  0  0  0  0
    2.0667   -4.3015    6.1746 C   0  0  0  0  0  0  0  0  0  0  0  0
    3.0306   -3.3798    5.4316 C   0  0  1  0  0  0  0  0  0  0  0  0
    3.7470   -2.2392    6.1887 C   0  0  1  0  0  0  0  0  0  0  0  0
    2.7222   -1.3242    6.8902 C   0  0  0  0  0  0  0  0  0  0  0  0
    3.3627   -0.3170    7.8227 C   0  0  0  0  0  0  0  0  0  0  0  0
    4.6298   -0.3263    8.2082 C   0  0  0  0  0  0  0  0  0  0  0  0
    5.1698    0.8022    9.0933 C   0  0  0  0  0  0  0  0  0  0  0  0
    6.0755    0.3196   10.2253 C   0  0  0  0  0  0  0  0  0  0  0  0
    6.2961    1.0636   11.1658 O   0  0  0  0  0  0  0  0  0  0  0  0
    6.6495   -1.0334   10.1214 C   0  0  0  0  0  0  0  0  0  0  0  0
    6.4627   -1.7948    9.0339 C   0  0  0  0  0  0  0  0  0  0  0  0
    5.6446   -1.4234    7.7857 C   0  0  2  0  0  0  0  0  0  0  0  0
    6.6161   -0.7752    6.7714 C   0  0  0  0  0  0  0  0  0  0  0  0
    4.8986   -2.6776    7.1547 C   0  0  1  0  0  0  0  0  0  0  0  0
    4.3404   -3.3336    8.1766 F   0  0  0  0  0  0  0  0  0  0  0  0
    5.8041   -3.6971    6.3770 C   0  0  1  0  0  0  0  0  0  0  0  0
    6.9039   -4.1657    7.1340 O   0  0  0  0  0  0  0  0  0  0  0  0
    5.0335   -4.9550    5.9058 C   0  0  0  0  0  0  0  0  0  0  0  0
    3.8243   -4.6344    4.9973 C   0  0  1  0  0  0  0  0  0  0  0  0
    4.3427   -4.5696    3.5546 C   0  0  0  0  0  0  0  0  0  0  0  0
    2.4798   -6.9017    5.8547 C   0  0  1  0  0  0  0  0  0  0  0  0
    2.3428   -6.9543    7.4025 C   0  0  0  0  0  0  0  0  0  0  0  0
   -2.3517   -8.7857    2.8569 H   0  0  0  0  0  0  0  0  0  0  0  0
   -1.5980  -10.2656    2.2297 H   0  0  0  0  0  0  0  0  0  0  0  0
   -1.5388   -8.7627    1.3110 H   0  0  0  0  0  0  0  0  0  0  0  0
    0.6442   -9.1978    2.3733 H   0  0  0  0  0  0  0  0  0  0  0  0
   -0.9369   -9.1239    4.9890 H   0  0  0  0  0  0  0  0  0  0  0  0
   -0.0548  -10.5084    4.3229 H   0  0  0  0  0  0  0  0  0  0  0  0
    1.0984   -9.3650    6.0647 H   0  0  0  0  0  0  0  0  0  0  0  0
    0.3468   -7.1349    5.6831 H   0  0  0  0  0  0  0  0  0  0  0  0
    2.1916   -7.3339    3.2576 H   0  0  0  0  0  0  0  0  0  0  0  0
    0.0711   -6.8387    2.0278 H   0  0  0  0  0  0  0  0  0  0  0  0
   -0.8245   -6.7865    3.5284 H   0  0  0  0  0  0  0  0  0  0  0  0
    1.0172   -4.0177    6.0970 H   0  0  0  0  0  0  0  0  0  0  0  0
    2.3832   -4.4096    7.2202 H   0  0  0  0  0  0  0  0  0  0  0  0
    2.4843   -2.9616    4.5607 H   0  0  0  0  0  0  0  0  0  0  0  0
    4.2381   -1.6130    5.4424 H   0  0  0  0  0  0  0  0  0  0  0  0
    2.1759   -0.7712    6.1342 H   0  0  0  0  0  0  0  0  0  0  0  0
    2.0022   -1.8978    7.4710 H   0  0  0  0  0  0  0  0  0  0  0  0
    2.6971    0.4728    8.1740 H   0  0  0  0  0  0  0  0  0  0  0  0
    5.7243    1.5202    8.4973 H   0  0  0  0  0  0  0  0  0  0  0  0
    4.3342    1.3443    9.5380 H   0  0  0  0  0  0  0  0  0  0  0  0
    7.2523   -1.3810   10.9466 H   0  0  0  0  0  0  0  0  0  0  0  0
    6.9432   -2.7654    9.0354 H   0  0  0  0  0  0  0  0  0  0  0  0
    7.1011    0.1100    7.1925 H   0  0  0  0  0  0  0  0  0  0  0  0
    6.0958   -0.4539    5.8698 H   0  0  0  0  0  0  0  0  0  0  0  0
    7.4134   -1.4616    6.4866 H   0  0  0  0  0  0  0  0  0  0  0  0
    6.2105   -3.1934    5.4963 H   0  0  0  0  0  0  0  0  0  0  0  0
    7.4174   -4.7532    6.5973 H   0  0  0  0  0  0  0  0  0  0  0  0
    5.7112   -5.6392    5.3906 H   0  0  0  0  0  0  0  0  0  0  0  0
    4.7040   -5.4866    6.7978 H   0  0  0  0  0  0  0  0  0  0  0  0
    5.1380   -3.8327    3.4640 H   0  0  0  0  0  0  0  0  0  0  0  0
    3.5551   -4.2562    2.8560 H   0  0  0  0  0  0  0  0  0  0  0  0
    4.7323   -5.5256    3.2062 H   0  0  0  0  0  0  0  0  0  0  0  0
    3.3649   -7.4475    5.5390 H   0  0  0  0  0  0  0  0  0  0  0  0
    1.4454   -6.3968    7.7175 H   0  0  0  0  0  0  0  0  0  0  0  0
    3.1928   -6.4735    7.8934 H   0  0  0  0  0  0  0  0  0  0  0  0
    2.2565   -7.9631    7.7754 H   0  0  0  0  0  0  0  0  0  0  0  0
    1.9728   -9.3609    4.6522 H   0  0  0  0  0  0  0  0  0  0  0  0
  1  2  1  0
  1 32  1  0
  1 33  1  0
  1 34  1  0
  2  7  1  0
  2  3  1  0
  2 35  1  6
  3  4  1  0
  3 36  1  0
  3 37  1  0
  4  5  1  0
  4 38  1  0
  4 68  1  0
  5 30  1  0
  5  6  1  0
  5 39  1  1
  6  7  1  0
  6  8  1  0
  6 40  1  6
  7 41  1  0
  7 42  1  0
  9  8  1  6
  9 28  1  0
  9 10  1  0
  9 30  1  0
 10 11  1  0
 10 43  1  0
 10 44  1  0
 11 28  1  0
 11 12  1  0
 11 45  1  6
 12 23  1  0
 12 13  1  0
 12 46  1  6
 13 14  1  0
 13 47  1  0
 13 48  1  0
 14 15  2  0
 14 49  1  0
 15 21  1  0
 15 16  1  0
 16 17  1  0
 16 50  1  0
 16 51  1  0
 17 18  2  0
 17 19  1  0
 19 20  2  0
 19 52  1  0
 20 21  1  0
 20 53  1  0
 21 22  1  6
 21 23  1  0
 22 54  1  0
 22 55  1  0
 22 56  1  0
 23 24  1  1
 23 25  1  0
 25 26  1  0
 25 27  1  0
 25 57  1  6
 26 58  1  0
 27 28  1  0
 27 59  1  0
 27 60  1  0
 28 29  1  6
 29 61  1  0
 29 62  1  0
 29 63  1  0
 30 31  1  0
 30 64  1  1
 31 65  1  0
 31 66  1  0
 31 67  1  0
M  CHG  1   4   1
M  END
>  <i_m_ct_stereo_status>  (10) 
1

>  <s_m_source_file>  (10) 
/var/tmp/pbs.5076255.sched01/tmpbmel7479/053vx75p8.sdf

>  <i_m_source_file_index>  (10) 
5

>  <i_lp_mmshare_version>  (10) 
48012

>  <i_f3d_flags>  (10) 
0

>  <s_epik_input>  (10) 
W0NIM11bQ0BASF0oW0NIMl0xKVtDSDJdW05IXVtDQEBIXShbQ0BASF0yW0NIM10pW0NAQEhdMU9bQ0BdMjNbQ0BAXTQoW0NIM10pW0NAQEhdKFtDSDJdMylbQ0BASF01W0NAQF0oRikoW0NAQEhdKFtPSF0pW0NIMl00KVtDQEBdNihbQ0gzXSlDKD1bQ0hdW0NIMl01KVtDSDJdQyg9TylbQ0hdPVtDSF02

>  <s_epik_cmdline>  (10) 
J2VwaWtfcHl0aG9uJywgJy1waHQnLCAnMi4wJywgJy1waCcsICc3LjAnLCAnLXRuJywgJzgnLCAnLW1hJywgJzIwMCcsICctaW1hZScsICc8aW5maWxlLm1hZT4nLCAnLW9tYWUnLCAnPG91dGZpbGUubWFlPic=

>  <r_lp_tautomer_probability>  (10) 
1

>  <r_epik_Ionization_Penalty>  (10) 
0.000251701

>  <r_epik_Ionization_Penalty_Charging>  (10) 
0.000251012

>  <r_epik_Ionization_Penalty_Neutral>  (10) 
6.88372e-07

>  <r_epik_State_Penalty>  (10) 
-0

>  <r_epik_Charging_Adjusted_Penalty>  (10) 
0.000251012

>  <i_epik_Tot_Q>  (10) 
1

>  <i_epik_Tot_abs_Q>  (10) 
1

>  <s_lp_Force_Field>  (10) 
OPLS3e

>  <r_lp_Energy>  (10) 
57.8986

>  <b_lp_Chiralities_Consistent>  (10) 
1

>  <s_lp_Variant>  (10) 
3:0-1

>  <s_i_glide_gridfile>  (10) 
pfpi4k_grid

>  <i_i_glide_lignum>  (10) 
5

>  <i_i_glide_rotatable_bonds>  (10) 
1

>  <r_i_docking_score>  (10) 
-2.31568

>  <r_i_glide_ligand_efficiency>  (10) 
-0.0746994

>  <r_i_glide_ligand_efficiency_sa>  (10) 
-0.234659

>  <r_i_glide_ligand_efficiency_ln>  (10) 
-0.522257

>  <r_i_glide_gscore>  (10) 
-2.31568

>  <r_i_glide_lipo>  (10) 
-0.33213

>  <r_i_glide_hbond>  (10) 
-0.188212

>  <r_i_glide_metal>  (10) 
-0

>  <r_i_glide_rewards>  (10) 
-0.47335

>  <r_i_glide_evdw>  (10) 
-13.8346

>  <r_i_glide_ecoul>  (10) 
-4.02093

>  <r_i_glide_erotb>  (10) 
0

>  <r_i_glide_esite>  (10) 
-0.0271189

>  <r_i_glide_emodel>  (10) 
-20.2377

>  <r_i_glide_energy>  (10) 
-17.8556

>  <r_i_glide_einternal>  (10) 
0.334426

>  <r_i_glide_intrahb_reward>  (10) 
-0

>  <i_i_glide_confnum>  (10) 
1

>  <i_i_glide_posenum>  (10) 
20

>  <r_i_glide_eff_state_penalty>  (10) 
0

>  <ligand_id>  (10) 
3

>  <original_smiles>  (10) 
CC1CNC2C(C1)OC1(CC3C4CC=C5CC(=O)C=CC5(C)C4(F)C(O)CC31C)C2C

>  <smiles>  (10) 
[H]OC1([H])C([H])([H])C2(C([H])([H])[H])C([H])(C([H])([H])C23OC2([H])C([H])([H])C([H])(C([H])([H])[H])C([H])([H])[N+]([H])([H])C2([H])C3([H])C([H])([H])[H])C2([H])C([H])([H])C([H])=C3C([H])([H])C(=O)C([H])=C([H])C3(C([H])([H])[H])C12F

$$$$
3:0:1
     RDKit          3D

 68 73  0  0  1  0  0  0  0  0999 V2000
   -1.4457   -9.4410    2.2393 C   0  0  0  0  0  0  0  0  0  0  0  0
   -0.0969   -8.9414    2.7871 C   0  0  2  0  0  0  0  0  0  0  0  0
    0.2693   -9.6855    4.0964 C   0  0  0  0  0  0  0  0  0  0  0  0
    1.5208   -9.1685    4.7120 N   0  0  0  0  0  0  0  0  0  0  0  0
    1.4246   -7.6945    4.9354 C   0  0  2  0  0  0  0  0  0  0  0  0
    1.2391   -6.9415    3.6236 C   0  0  1  0  0  0  0  0  0  0  0  0
   -0.1036   -7.4023    2.9902 C   0  0  0  0  0  0  0  0  0  0  0  0
    1.3888   -5.5884    4.0415 O   0  0  0  0  0  0  0  0  0  0  0  0
    2.3997   -5.5081    5.0711 C   0  0  2  0  0  0  0  0  0  0  0  0
    1.9564   -4.5206    6.1721 C   0  0  0  0  0  0  0  0  0  0  0  0
    2.6830   -3.4025    5.4276 C   0  0  1  0  0  0  0  0  0  0  0  0
    3.3471   -2.2521    6.2188 C   0  0  1  0  0  0  0  0  0  0  0  0
    2.3214   -1.5631    7.1418 C   0  0  0  0  0  0  0  0  0  0  0  0
    2.9510   -0.5706    8.0989 C   0  0  0  0  0  0  0  0  0  0  0  0
    4.2508   -0.4386    8.3247 C   0  0  0  0  0  0  0  0  0  0  0  0
    4.7614    0.6624    9.2627 C   0  0  0  0  0  0  0  0  0  0  0  0
    5.8803    0.2090   10.2044 C   0  0  0  0  0  0  0  0  0  0  0  0
    6.1622    0.8894   11.1767 O   0  0  0  0  0  0  0  0  0  0  0  0
    6.5911   -1.0377    9.8759 C   0  0  0  0  0  0  0  0  0  0  0  0
    6.3524   -1.7055    8.7402 C   0  0  0  0  0  0  0  0  0  0  0  0
    5.3275   -1.3338    7.6545 C   0  0  2  0  0  0  0  0  0  0  0  0
    6.0555   -0.4587    6.6073 C   0  0  0  0  0  0  0  0  0  0  0  0
    4.6688   -2.6147    6.9798 C   0  0  1  0  0  0  0  0  0  0  0  0
    4.3518   -3.4449    7.9794 F   0  0  0  0  0  0  0  0  0  0  0  0
    5.5815   -3.4172    5.9869 C   0  0  1  0  0  0  0  0  0  0  0  0
    6.8309   -3.8024    6.5239 O   0  0  0  0  0  0  0  0  0  0  0  0
    4.9180   -4.7168    5.4669 C   0  0  0  0  0  0  0  0  0  0  0  0
    3.5631   -4.4834    4.7565 C   0  0  1  0  0  0  0  0  0  0  0  0
    3.8642   -4.2056    3.2778 C   0  0  0  0  0  0  0  0  0  0  0  0
    2.6491   -6.9911    5.5050 C   0  0  1  0  0  0  0  0  0  0  0  0
    2.7362   -7.2135    7.0419 C   0  0  0  0  0  0  0  0  0  0  0  0
   -2.2660   -9.2582    2.9370 H   0  0  0  0  0  0  0  0  0  0  0  0
   -1.4043  -10.5090    2.0273 H   0  0  0  0  0  0  0  0  0  0  0  0
   -1.7012   -8.9426    1.3139 H   0  0  0  0  0  0  0  0  0  0  0  0
    0.6656   -9.1731    2.0444 H   0  0  0  0  0  0  0  0  0  0  0  0
   -0.5441   -9.5824    4.8201 H   0  0  0  0  0  0  0  0  0  0  0  0
    0.4033  -10.7575    3.8990 H   0  0  0  0  0  0  0  0  0  0  0  0
    1.6300   -9.6320    5.6036 H   0  0  0  0  0  0  0  0  0  0  0  0
    0.5599   -7.5069    5.5747 H   0  0  0  0  0  0  0  0  0  0  0  0
    2.0616   -7.2053    2.9325 H   0  0  0  0  0  0  0  0  0  0  0  0
   -0.2533   -6.9005    2.0384 H   0  0  0  0  0  0  0  0  0  0  0  0
   -0.9346   -7.1175    3.6333 H   0  0  0  0  0  0  0  0  0  0  0  0
    0.8782   -4.3813    6.2586 H   0  0  0  0  0  0  0  0  0  0  0  0
    2.4263   -4.6860    7.1517 H   0  0  0  0  0  0  0  0  0  0  0  0
    1.9728   -2.9830    4.6844 H   0  0  0  0  0  0  0  0  0  0  0  0
    3.6453   -1.4930    5.4939 H   0  0  0  0  0  0  0  0  0  0  0  0
    1.6090   -1.0226    6.5279 H   0  0  0  0  0  0  0  0  0  0  0  0
    1.7671   -2.2870    7.7364 H   0  0  0  0  0  0  0  0  0  0  0  0
    2.2436    0.0784    8.6185 H   0  0  0  0  0  0  0  0  0  0  0  0
    5.1287    1.5062    8.6869 H   0  0  0  0  0  0  0  0  0  0  0  0
    3.9324    1.0356    9.8658 H   0  0  0  0  0  0  0  0  0  0  0  0
    7.3428   -1.3746   10.5742 H   0  0  0  0  0  0  0  0  0  0  0  0
    6.9522   -2.5897    8.5690 H   0  0  0  0  0  0  0  0  0  0  0  0
    6.4785    0.4409    7.0626 H   0  0  0  0  0  0  0  0  0  0  0  0
    5.3791   -0.1286    5.8187 H   0  0  0  0  0  0  0  0  0  0  0  0
    6.8866   -0.9947    6.1473 H   0  0  0  0  0  0  0  0  0  0  0  0
    5.7964   -2.7783    5.1282 H   0  0  0  0  0  0  0  0  0  0  0  0
    6.6723   -4.3753    7.2629 H   0  0  0  0  0  0  0  0  0  0  0  0
    5.6029   -5.2382    4.7945 H   0  0  0  0  0  0  0  0  0  0  0  0
    4.7824   -5.3811    6.3202 H   0  0  0  0  0  0  0  0  0  0  0  0
    4.5392   -3.3584    3.1759 H   0  0  0  0  0  0  0  0  0  0  0  0
    2.9542   -3.9399    2.7224 H   0  0  0  0  0  0  0  0  0  0  0  0
    4.3211   -5.0582    2.7758 H   0  0  0  0  0  0  0  0  0  0  0  0
    3.5447   -7.3729    5.0210 H   0  0  0  0  0  0  0  0  0  0  0  0
    1.8273   -6.8225    7.5276 H   0  0  0  0  0  0  0  0  0  0  0  0
    3.5776   -6.6680    7.4763 H   0  0  0  0  0  0  0  0  0  0  0  0
    2.8313   -8.2569    7.3035 H   0  0  0  0  0  0  0  0  0  0  0  0
    2.2979   -9.3685    4.1020 H   0  0  0  0  0  0  0  0  0  0  0  0
  1  2  1  0
  1 32  1  0
  1 33  1  0
  1 34  1  0
  2  7  1  0
  2  3  1  0
  2 35  1  6
  3  4  1  0
  3 36  1  0
  3 37  1  0
  4  5  1  0
  4 38  1  0
  4 68  1  0
  5 30  1  0
  5  6  1  0
  5 39  1  1
  6  7  1  0
  6  8  1  0
  6 40  1  6
  7 41  1  0
  7 42  1  0
  9  8  1  6
  9 28  1  0
  9 10  1  0
  9 30  1  0
 10 11  1  0
 10 43  1  0
 10 44  1  0
 11 28  1  0
 11 12  1  0
 11 45  1  6
 12 23  1  0
 12 13  1  0
 12 46  1  6
 13 14  1  0
 13 47  1  0
 13 48  1  0
 14 15  2  0
 14 49  1  0
 15 21  1  0
 15 16  1  0
 16 17  1  0
 16 50  1  0
 16 51  1  0
 17 18  2  0
 17 19  1  0
 19 20  2  0
 19 52  1  0
 20 21  1  0
 20 53  1  0
 21 22  1  6
 21 23  1  0
 22 54  1  0
 22 55  1  0
 22 56  1  0
 23 24  1  1
 23 25  1  0
 25 26  1  0
 25 27  1  0
 25 57  1  6
 26 58  1  0
 27 28  1  0
 27 59  1  0
 27 60  1  0
 28 29  1  6
 29 61  1  0
 29 62  1  0
 29 63  1  0
 30 31  1  0
 30 64  1  6
 31 65  1  0
 31 66  1  0
 31 67  1  0
M  CHG  1   4   1
M  END
>  <i_m_ct_stereo_status>  (11) 
1

>  <s_m_source_file>  (11) 
/var/tmp/pbs.5076255.sched01/tmpbmel7479/053vx75p8.sdf

>  <i_m_source_file_index>  (11) 
5

>  <i_lp_mmshare_version>  (11) 
48012

>  <i_f3d_flags>  (11) 
0

>  <s_epik_input>  (11) 
W0NIM11bQ0BASF0oW0NIMl0xKVtDSDJdW05IXVtDQEBIXShbQ0BASF0yW0NIM10pW0NAQEhdMU9bQ0BdMjNbQ0BAXTQoW0NIM10pW0NAQEhdKFtDSDJdMylbQ0BASF01W0NAQF0oRikoW0NAQEhdKFtPSF0pW0NIMl00KVtDQEBdNihbQ0gzXSlDKD1bQ0hdW0NIMl01KVtDSDJdQyg9TylbQ0hdPVtDSF02

>  <s_epik_cmdline>  (11) 
J2VwaWtfcHl0aG9uJywgJy1waHQnLCAnMi4wJywgJy1waCcsICc3LjAnLCAnLXRuJywgJzgnLCAnLW1hJywgJzIwMCcsICctaW1hZScsICc8aW5maWxlLm1hZT4nLCAnLW9tYWUnLCAnPG91dGZpbGUubWFlPic=

>  <r_lp_tautomer_probability>  (11) 
1

>  <r_epik_Ionization_Penalty>  (11) 
0.000251701

>  <r_epik_Ionization_Penalty_Charging>  (11) 
0.000251012

>  <r_epik_Ionization_Penalty_Neutral>  (11) 
6.88372e-07

>  <r_epik_State_Penalty>  (11) 
-0

>  <r_epik_Charging_Adjusted_Penalty>  (11) 
0.000251012

>  <i_epik_Tot_Q>  (11) 
1

>  <i_epik_Tot_abs_Q>  (11) 
1

>  <s_lp_Force_Field>  (11) 
OPLS3e

>  <r_lp_Energy>  (11) 
57.8986

>  <b_lp_Chiralities_Consistent>  (11) 
1

>  <s_lp_Variant>  (11) 
3:0-1

>  <s_i_glide_gridfile>  (11) 
pfpi4k_grid

>  <i_i_glide_lignum>  (11) 
5

>  <i_i_glide_rotatable_bonds>  (11) 
1

>  <r_i_docking_score>  (11) 
-2.15102

>  <r_i_glide_ligand_efficiency>  (11) 
-0.0693877

>  <r_i_glide_ligand_efficiency_sa>  (11) 
-0.217973

>  <r_i_glide_ligand_efficiency_ln>  (11) 
-0.485121

>  <r_i_glide_gscore>  (11) 
-2.15102

>  <r_i_glide_lipo>  (11) 
-0.304157

>  <r_i_glide_hbond>  (11) 
-0.0672228

>  <r_i_glide_metal>  (11) 
-0

>  <r_i_glide_rewards>  (11) 
-0.47335

>  <r_i_glide_evdw>  (11) 
-13.7148

>  <r_i_glide_ecoul>  (11) 
-3.99577

>  <r_i_glide_erotb>  (11) 
0

>  <r_i_glide_esite>  (11) 
-0.0211842

>  <r_i_glide_emodel>  (11) 
-19.7629

>  <r_i_glide_energy>  (11) 
-17.7105

>  <r_i_glide_einternal>  (11) 
0.00326344

>  <r_i_glide_intrahb_reward>  (11) 
-0

>  <i_i_glide_confnum>  (11) 
1

>  <i_i_glide_posenum>  (11) 
34

>  <r_i_glide_eff_state_penalty>  (11) 
0

>  <ligand_id>  (11) 
3

>  <original_smiles>  (11) 
CC1CNC2C(C1)OC1(CC3C4CC=C5CC(=O)C=CC5(C)C4(F)C(O)CC31C)C2C

>  <smiles>  (11) 
[H]OC1([H])C([H])([H])C2(C([H])([H])[H])C([H])(C([H])([H])C23OC2([H])C([H])([H])C([H])(C([H])([H])[H])C([H])([H])[N+]([H])([H])C2([H])C3([H])C([H])([H])[H])C2([H])C([H])([H])C([H])=C3C([H])([H])C(=O)C([H])=C([H])C3(C([H])([H])[H])C12F

$$$$
3:0:2
     RDKit          3D

 68 73  0  0  1  0  0  0  0  0999 V2000
   -1.6041   -9.1846    2.0989 C   0  0  0  0  0  0  0  0  0  0  0  0
   -0.3737   -8.5722    2.7949 C   0  0  2  0  0  0  0  0  0  0  0  0
   -0.4970   -8.7180    4.3347 C   0  0  0  0  0  0  0  0  0  0  0  0
    0.6089   -8.0270    5.0587 N   0  0  0  0  0  0  0  0  0  0  0  0
    0.7024   -6.5969    4.6535 C   0  0  2  0  0  0  0  0  0  0  0  0
    1.0065   -6.4603    3.1702 C   0  0  1  0  0  0  0  0  0  0  0  0
   -0.1697   -7.0926    2.3781 C   0  0  0  0  0  0  0  0  0  0  0  0
    1.2543   -5.0526    3.0562 O   0  0  0  0  0  0  0  0  0  0  0  0
    1.9524   -4.5939    4.2442 C   0  0  2  0  0  0  0  0  0  0  0  0
    1.3984   -3.2209    4.6780 C   0  0  0  0  0  0  0  0  0  0  0  0
    2.4713   -2.5455    3.8269 C   0  0  1  0  0  0  0  0  0  0  0  0
    3.0794   -1.1976    4.2839 C   0  0  1  0  0  0  0  0  0  0  0  0
    1.9731   -0.1475    4.4951 C   0  0  0  0  0  0  0  0  0  0  0  0
    2.4714    1.1283    5.1408 C   0  0  0  0  0  0  0  0  0  0  0  0
    3.6748    1.2870    5.7000 C   0  0  0  0  0  0  0  0  0  0  0  0
    4.0862    2.6572    6.2490 C   0  0  0  0  0  0  0  0  0  0  0  0
    4.8128    2.5858    7.5905 C   0  0  0  0  0  0  0  0  0  0  0  0
    4.9168    3.6050    8.2721 O   0  0  0  0  0  0  0  0  0  0  0  0
    5.3732    1.3001    8.0108 C   0  0  0  0  0  0  0  0  0  0  0  0
    5.3366    0.2173    7.2071 C   0  0  0  0  0  0  0  0  0  0  0  0
    4.7150    0.1471    5.8027 C   0  0  2  0  0  0  0  0  0  0  0  0
    5.8367    0.4610    4.7916 C   0  0  0  0  0  0  0  0  0  0  0  0
    4.0600   -1.2709    5.4990 C   0  0  1  0  0  0  0  0  0  0  0  0
    3.3448   -1.5872    6.5834 F   0  0  0  0  0  0  0  0  0  0  0  0
    5.0625   -2.4498    5.2379 C   0  0  1  0  0  0  0  0  0  0  0  0
    6.0022   -2.6287    6.2800 O   0  0  0  0  0  0  0  0  0  0  0  0
    4.3582   -3.8173    5.0728 C   0  0  0  0  0  0  0  0  0  0  0  0
    3.3039   -3.8428    3.9371 C   0  0  1  0  0  0  0  0  0  0  0  0
    4.0402   -4.2182    2.6433 C   0  0  0  0  0  0  0  0  0  0  0  0
    1.8183   -5.7674    5.2620 C   0  0  1  0  0  0  0  0  0  0  0  0
    1.4539   -5.3268    6.7072 C   0  0  0  0  0  0  0  0  0  0  0  0
   -2.5290   -8.6784    2.3847 H   0  0  0  0  0  0  0  0  0  0  0  0
   -1.7015  -10.2527    2.3334 H   0  0  0  0  0  0  0  0  0  0  0  0
   -1.5060   -9.0666    1.0202 H   0  0  0  0  0  0  0  0  0  0  0  0
    0.5082   -9.1280    2.4683 H   0  0  0  0  0  0  0  0  0  0  0  0
   -1.4571   -8.3144    4.6736 H   0  0  0  0  0  0  0  0  0  0  0  0
   -0.4708   -9.7758    4.6038 H   0  0  0  0  0  0  0  0  0  0  0  0
    0.4063   -8.0862    6.0491 H   0  0  0  0  0  0  0  0  0  0  0  0
   -0.2607   -6.1222    4.8659 H   0  0  0  0  0  0  0  0  0  0  0  0
    1.9270   -7.0123    2.9333 H   0  0  0  0  0  0  0  0  0  0  0  0
    0.0185   -7.0233    1.3072 H   0  0  0  0  0  0  0  0  0  0  0  0
   -1.1003   -6.5677    2.5747 H   0  0  0  0  0  0  0  0  0  0  0  0
    0.3745   -3.0162    4.3647 H   0  0  0  0  0  0  0  0  0  0  0  0
    1.5522   -2.9828    5.7396 H   0  0  0  0  0  0  0  0  0  0  0  0
    2.0707   -2.4438    2.8043 H   0  0  0  0  0  0  0  0  0  0  0  0
    3.6852   -0.8260    3.4566 H   0  0  0  0  0  0  0  0  0  0  0  0
    1.5534    0.1185    3.5292 H   0  0  0  0  0  0  0  0  0  0  0  0
    1.1640   -0.5319    5.1142 H   0  0  0  0  0  0  0  0  0  0  0  0
    1.7782    1.9653    5.1170 H   0  0  0  0  0  0  0  0  0  0  0  0
    4.7309    3.1677    5.5386 H   0  0  0  0  0  0  0  0  0  0  0  0
    3.2018    3.2835    6.3675 H   0  0  0  0  0  0  0  0  0  0  0  0
    5.8426    1.2516    8.9801 H   0  0  0  0  0  0  0  0  0  0  0  0
    5.8027   -0.6753    7.5898 H   0  0  0  0  0  0  0  0  0  0  0  0
    6.2961    1.4221    5.0148 H   0  0  0  0  0  0  0  0  0  0  0  0
    5.4691    0.4929    3.7633 H   0  0  0  0  0  0  0  0  0  0  0  0
    6.6372   -0.2616    4.8540 H   0  0  0  0  0  0  0  0  0  0  0  0
    5.6200   -2.2410    4.3205 H   0  0  0  0  0  0  0  0  0  0  0  0
    6.5170   -3.4028    6.0969 H   0  0  0  0  0  0  0  0  0  0  0  0
    5.1015   -4.6025    4.9091 H   0  0  0  0  0  0  0  0  0  0  0  0
    3.8909   -4.0505    6.0283 H   0  0  0  0  0  0  0  0  0  0  0  0
    4.8504   -3.5193    2.4421 H   0  0  0  0  0  0  0  0  0  0  0  0
    3.3727   -4.1717    1.7754 H   0  0  0  0  0  0  0  0  0  0  0  0
    4.4673   -5.2214    2.6800 H   0  0  0  0  0  0  0  0  0  0  0  0
    2.7413   -6.3527    5.2794 H   0  0  0  0  0  0  0  0  0  0  0  0
    0.5261   -4.7367    6.6974 H   0  0  0  0  0  0  0  0  0  0  0  0
    2.2261   -4.6892    7.1430 H   0  0  0  0  0  0  0  0  0  0  0  0
    1.2995   -6.1730    7.3732 H   0  0  0  0  0  0  0  0  0  0  0  0
    1.4768   -8.5004    4.8473 H   0  0  0  0  0  0  0  0  0  0  0  0
  1  2  1  0
  1 32  1  0
  1 33  1  0
  1 34  1  0
  2  7  1  0
  2  3  1  0
  2 35  1  6
  3  4  1  0
  3 36  1  0
  3 37  1  0
  4  5  1  0
  4 38  1  0
  4 68  1  0
  5 30  1  0
  5  6  1  0
  5 39  1  6
  6  7  1  0
  6  8  1  0
  6 40  1  1
  7 41  1  0
  7 42  1  0
  9  8  1  6
  9 28  1  0
  9 10  1  0
  9 30  1  0
 10 11  1  0
 10 43  1  0
 10 44  1  0
 11 28  1  0
 11 12  1  0
 11 45  1  6
 12 23  1  0
 12 13  1  0
 12 46  1  6
 13 14  1  0
 13 47  1  0
 13 48  1  0
 14 15  2  0
 14 49  1  0
 15 21  1  0
 15 16  1  0
 16 17  1  0
 16 50  1  0
 16 51  1  0
 17 18  2  0
 17 19  1  0
 19 20  2  0
 19 52  1  0
 20 21  1  0
 20 53  1  0
 21 22  1  6
 21 23  1  0
 22 54  1  0
 22 55  1  0
 22 56  1  0
 23 24  1  1
 23 25  1  0
 25 26  1  0
 25 27  1  0
 25 57  1  6
 26 58  1  0
 27 28  1  0
 27 59  1  0
 27 60  1  0
 28 29  1  6
 29 61  1  0
 29 62  1  0
 29 63  1  0
 30 31  1  0
 30 64  1  1
 31 65  1  0
 31 66  1  0
 31 67  1  0
M  CHG  1   4   1
M  END
>  <i_m_ct_stereo_status>  (12) 
1

>  <s_m_source_file>  (12) 
/var/tmp/pbs.5076255.sched01/tmpbmel7479/053vx75p8.sdf

>  <i_m_source_file_index>  (12) 
5

>  <i_lp_mmshare_version>  (12) 
48012

>  <i_f3d_flags>  (12) 
0

>  <s_epik_input>  (12) 
W0NIM11bQ0BASF0oW0NIMl0xKVtDSDJdW05IXVtDQEBIXShbQ0BASF0yW0NIM10pW0NAQEhdMU9bQ0BdMjNbQ0BAXTQoW0NIM10pW0NAQEhdKFtDSDJdMylbQ0BASF01W0NAQF0oRikoW0NAQEhdKFtPSF0pW0NIMl00KVtDQEBdNihbQ0gzXSlDKD1bQ0hdW0NIMl01KVtDSDJdQyg9TylbQ0hdPVtDSF02

>  <s_epik_cmdline>  (12) 
J2VwaWtfcHl0aG9uJywgJy1waHQnLCAnMi4wJywgJy1waCcsICc3LjAnLCAnLXRuJywgJzgnLCAnLW1hJywgJzIwMCcsICctaW1hZScsICc8aW5maWxlLm1hZT4nLCAnLW9tYWUnLCAnPG91dGZpbGUubWFlPic=

>  <r_lp_tautomer_probability>  (12) 
1

>  <r_epik_Ionization_Penalty>  (12) 
0.000251701

>  <r_epik_Ionization_Penalty_Charging>  (12) 
0.000251012

>  <r_epik_Ionization_Penalty_Neutral>  (12) 
6.88372e-07

>  <r_epik_State_Penalty>  (12) 
-0

>  <r_epik_Charging_Adjusted_Penalty>  (12) 
0.000251012

>  <i_epik_Tot_Q>  (12) 
1

>  <i_epik_Tot_abs_Q>  (12) 
1

>  <s_lp_Force_Field>  (12) 
OPLS3e

>  <r_lp_Energy>  (12) 
57.8986

>  <b_lp_Chiralities_Consistent>  (12) 
1

>  <s_lp_Variant>  (12) 
3:0-1

>  <s_i_glide_gridfile>  (12) 
pfpi4k_grid

>  <i_i_glide_lignum>  (12) 
5

>  <i_i_glide_rotatable_bonds>  (12) 
1

>  <r_i_docking_score>  (12) 
-1.73731

>  <r_i_glide_ligand_efficiency>  (12) 
-0.0560424

>  <r_i_glide_ligand_efficiency_sa>  (12) 
-0.17605

>  <r_i_glide_ligand_efficiency_ln>  (12) 
-0.391817

>  <r_i_glide_gscore>  (12) 
-1.73731

>  <r_i_glide_lipo>  (12) 
-0.391342

>  <r_i_glide_hbond>  (12) 
0

>  <r_i_glide_metal>  (12) 
-0

>  <r_i_glide_rewards>  (12) 
-0.47335

>  <r_i_glide_evdw>  (12) 
-14.3837

>  <r_i_glide_ecoul>  (12) 
-0.868273

>  <r_i_glide_erotb>  (12) 
0

>  <r_i_glide_esite>  (12) 
-0.0231948

>  <r_i_glide_emodel>  (12) 
-16.6199

>  <r_i_glide_energy>  (12) 
-15.252

>  <r_i_glide_einternal>  (12) 
0.494295

>  <r_i_glide_intrahb_reward>  (12) 
-0

>  <i_i_glide_confnum>  (12) 
1

>  <i_i_glide_posenum>  (12) 
1

>  <r_i_glide_eff_state_penalty>  (12) 
0

>  <ligand_id>  (12) 
3

>  <original_smiles>  (12) 
CC1CNC2C(C1)OC1(CC3C4CC=C5CC(=O)C=CC5(C)C4(F)C(O)CC31C)C2C

>  <smiles>  (12) 
[H]OC1([H])C([H])([H])C2(C([H])([H])[H])C([H])(C([H])([H])C23OC2([H])C([H])([H])C([H])(C([H])([H])[H])C([H])([H])[N+]([H])([H])C2([H])C3([H])C([H])([H])[H])C2([H])C([H])([H])C([H])=C3C([H])([H])C(=O)C([H])=C([H])C3(C([H])([H])[H])C12F

$$$$
4:0:0
     RDKit          3D

 39 43  0  0  1  0  0  0  0  0999 V2000
    1.9162   -3.0268   -3.3843 C   0  0  0  0  0  0  0  0  0  0  0  0
    3.0668   -2.4800   -2.5747 C   0  0  0  0  0  0  0  0  0  0  0  0
    3.5998   -1.3091   -2.9580 N   0  0  0  0  0  0  0  0  0  0  0  0
    4.6133   -0.7876   -2.2248 C   0  0  0  0  0  0  0  0  0  0  0  0
    5.1104   -1.5169   -1.1191 C   0  0  0  0  0  0  0  0  0  0  0  0
    6.1351   -1.3198   -0.2077 N   0  0  0  0  0  0  0  0  0  0  0  0
    6.1553   -2.3412    0.6016 N   0  0  0  0  0  0  0  0  0  0  0  0
    5.1577   -3.2102    0.2603 N   0  0  0  0  0  0  0  0  0  0  0  0
    4.9728   -4.4555    1.0302 C   0  0  2  0  0  0  0  0  0  0  0  0
    4.7954   -4.1423    2.5401 C   0  0  0  0  0  0  0  0  0  0  0  0
    4.5817   -5.4529    3.3289 C   0  0  1  0  0  0  0  0  0  0  0  0
    3.3113   -6.1659    2.8223 C   0  0  0  0  0  0  0  0  0  0  0  0
    3.4958   -6.5191    1.3408 C   0  0  2  0  0  0  0  0  0  0  0  0
    4.7168   -7.4315    1.1410 C   0  0  0  0  0  0  0  0  0  0  0  0
    5.9783   -6.7011    1.6474 C   0  0  2  0  0  0  0  0  0  0  0  0
    5.8137   -6.3629    3.1427 C   0  0  0  0  0  0  0  0  0  0  0  0
    6.1941   -5.3933    0.8507 C   0  0  0  0  0  0  0  0  0  0  0  0
    3.7105   -5.2302    0.5528 C   0  0  0  0  0  0  0  0  0  0  0  0
    4.4661   -2.7339   -0.8476 C   0  0  0  0  0  0  0  0  0  0  0  0
    3.4253   -3.2484   -1.5502 N   0  0  0  0  0  0  0  0  0  0  0  0
    1.6309   -2.3689   -4.2025 H   0  0  0  0  0  0  0  0  0  0  0  0
    1.0552   -3.1613   -2.7253 H   0  0  0  0  0  0  0  0  0  0  0  0
    2.1991   -3.9985   -3.7913 H   0  0  0  0  0  0  0  0  0  0  0  0
    5.0164    0.1611   -2.5209 H   0  0  0  0  0  0  0  0  0  0  0  0
    5.6709   -3.6240    2.9408 H   0  0  0  0  0  0  0  0  0  0  0  0
    3.9467   -3.4723    2.6901 H   0  0  0  0  0  0  0  0  0  0  0  0
    4.4597   -5.2210    4.3850 H   0  0  0  0  0  0  0  0  0  0  0  0
    3.1093   -7.0699    3.3946 H   0  0  0  0  0  0  0  0  0  0  0  0
    2.4448   -5.5138    2.9417 H   0  0  0  0  0  0  0  0  0  0  0  0
    2.6009   -7.0122    0.9589 H   0  0  0  0  0  0  0  0  0  0  0  0
    4.5691   -8.3696    1.6738 H   0  0  0  0  0  0  0  0  0  0  0  0
    4.8233   -7.6869    0.0858 H   0  0  0  0  0  0  0  0  0  0  0  0
    6.8426   -7.3498    1.5146 H   0  0  0  0  0  0  0  0  0  0  0  0
    6.7087   -5.8591    3.5094 H   0  0  0  0  0  0  0  0  0  0  0  0
    5.7058   -7.2743    3.7298 H   0  0  0  0  0  0  0  0  0  0  0  0
    6.3328   -5.6224   -0.2055 H   0  0  0  0  0  0  0  0  0  0  0  0
    7.1149   -4.9077    1.1863 H   0  0  0  0  0  0  0  0  0  0  0  0
    2.8233   -4.6008    0.6443 H   0  0  0  0  0  0  0  0  0  0  0  0
    3.8191   -5.5206   -0.4910 H   0  0  0  0  0  0  0  0  0  0  0  0
  1  2  1  0
  1 21  1  0
  1 22  1  0
  1 23  1  0
  2 20  1  0
  2  3  2  0
  3  4  1  0
  4  5  2  0
  4 24  1  0
  5 19  1  0
  5  6  1  0
  6  7  2  0
  7  8  1  0
  9  8  1  6
  8 19  1  0
  9 17  1  0
  9 18  1  0
  9 10  1  0
 10 11  1  0
 10 25  1  0
 10 26  1  0
 11 16  1  0
 11 12  1  0
 11 27  1  1
 12 13  1  0
 12 28  1  0
 12 29  1  0
 13 14  1  0
 13 18  1  0
 13 30  1  6
 14 15  1  0
 14 31  1  0
 14 32  1  0
 15 16  1  0
 15 17  1  0
 15 33  1  1
 16 34  1  0
 16 35  1  0
 17 36  1  0
 17 37  1  0
 18 38  1  0
 18 39  1  0
 19 20  2  0
M  END
>  <i_m_ct_stereo_status>  (13) 
1

>  <s_m_source_file>  (13) 
/var/tmp/pbs.5076255.sched01/tmpbmel7479/053vx75p8.sdf

>  <i_m_source_file_index>  (13) 
6

>  <i_lp_mmshare_version>  (13) 
48012

>  <i_f3d_flags>  (13) 
0

>  <s_epik_input>  (13) 
W2NIXTFuYyhbQ0gzXSluYyhjMTIpbihubjIpQzM0W0NIMl1bQ0BIXTVbQ0gyXVtDQEBIXShbQ0gyXTQpW0NIMl1bQ0BIXShbQ0gyXTUpW0NIMl0z

>  <s_epik_cmdline>  (13) 
J2VwaWtfcHl0aG9uJywgJy1waHQnLCAnMi4wJywgJy1waCcsICc3LjAnLCAnLXRuJywgJzgnLCAnLW1hJywgJzIwMCcsICctaW1hZScsICc8aW5maWxlLm1hZT4nLCAnLW9tYWUnLCAnPG91dGZpbGUubWFlPic=

>  <r_lp_tautomer_probability>  (13) 
1

>  <r_epik_Ionization_Penalty>  (13) 
5.24424e-08

>  <r_epik_Ionization_Penalty_Charging>  (13) 
0

>  <r_epik_Ionization_Penalty_Neutral>  (13) 
5.24424e-08

>  <r_epik_State_Penalty>  (13) 
-0

>  <r_epik_Charging_Adjusted_Penalty>  (13) 
0

>  <i_epik_Tot_Q>  (13) 
0

>  <i_epik_Tot_abs_Q>  (13) 
0

>  <s_lp_Force_Field>  (13) 
OPLS3e

>  <r_lp_Energy>  (13) 
15.4869

>  <b_lp_Chiralities_Consistent>  (13) 
1

>  <s_lp_Variant>  (13) 
4:0-1

>  <s_i_glide_gridfile>  (13) 
pfpi4k_grid

>  <i_i_glide_lignum>  (13) 
6

>  <i_i_glide_rotatable_bonds>  (13) 
1

>  <r_i_docking_score>  (13) 
-3.27178

>  <r_i_glide_ligand_efficiency>  (13) 
-0.163589

>  <r_i_glide_ligand_efficiency_sa>  (13) 
-0.444049

>  <r_i_glide_ligand_efficiency_ln>  (13) 
-0.818818

>  <r_i_glide_gscore>  (13) 
-3.27178

>  <r_i_glide_lipo>  (13) 
-0.571598

>  <r_i_glide_hbond>  (13) 
0

>  <r_i_glide_metal>  (13) 
-0

>  <r_i_glide_rewards>  (13) 
-1.62015

>  <r_i_glide_evdw>  (13) 
-22.2481

>  <r_i_glide_ecoul>  (13) 
-0.886737

>  <r_i_glide_erotb>  (13) 
0.246278

>  <r_i_glide_esite>  (13) 
-0.080892

>  <r_i_glide_emodel>  (13) 
-26.766

>  <r_i_glide_energy>  (13) 
-23.1348

>  <r_i_glide_einternal>  (13) 
1.72805

>  <r_i_glide_intrahb_reward>  (13) 
-0

>  <i_i_glide_confnum>  (13) 
4

>  <i_i_glide_posenum>  (13) 
3

>  <r_i_glide_eff_state_penalty>  (13) 
0

>  <ligand_id>  (13) 
4

>  <original_smiles>  (13) 
Cc1ncc2nnn(C34CC5CC(CC(C5)C3)C4)c2n1

>  <smiles>  (13) 
[H]c1nc(C([H])([H])[H])nc2c1nnn2C12C([H])([H])C3([H])C([H])([H])C([H])(C([H])([H])C([H])(C3([H])[H])C1([H])[H])C2([H])[H]

$$$$
4:0:1
     RDKit          3D

 39 43  0  0  1  0  0  0  0  0999 V2000
    8.5492   -3.1227   -0.4436 C   0  0  0  0  0  0  0  0  0  0  0  0
    7.0383   -3.0523   -0.4824 C   0  0  0  0  0  0  0  0  0  0  0  0
    6.4992   -1.9934   -1.1128 N   0  0  0  0  0  0  0  0  0  0  0  0
    5.1482   -1.8778   -1.1775 C   0  0  0  0  0  0  0  0  0  0  0  0
    4.3606   -2.8889   -0.5854 C   0  0  0  0  0  0  0  0  0  0  0  0
    3.0007   -3.0863   -0.4646 N   0  0  0  0  0  0  0  0  0  0  0  0
    2.8177   -4.1930    0.1921 N   0  0  0  0  0  0  0  0  0  0  0  0
    4.0325   -4.7439    0.4973 N   0  0  0  0  0  0  0  0  0  0  0  0
    4.1163   -6.0051    1.2514 C   0  0  2  0  0  0  0  0  0  0  0  0
    4.7490   -5.7529    2.6495 C   0  0  0  0  0  0  0  0  0  0  0  0
    4.8646   -7.0832    3.4267 C   0  0  1  0  0  0  0  0  0  0  0  0
    3.4605   -7.6899    3.6194 C   0  0  0  0  0  0  0  0  0  0  0  0
    2.8371   -7.9758    2.2399 C   0  0  2  0  0  0  0  0  0  0  0  0
    3.7241   -8.9649    1.4590 C   0  0  0  0  0  0  0  0  0  0  0  0
    5.1195   -8.3452    1.2695 C   0  0  2  0  0  0  0  0  0  0  0  0
    5.7627   -8.0602    2.6411 C   0  0  0  0  0  0  0  0  0  0  0  0
    4.9988   -7.0252    0.4814 C   0  0  0  0  0  0  0  0  0  0  0  0
    2.7141   -6.6527    1.4604 C   0  0  0  0  0  0  0  0  0  0  0  0
    5.0595   -3.9387    0.0346 C   0  0  0  0  0  0  0  0  0  0  0  0
    6.4143   -4.0636    0.1260 N   0  0  0  0  0  0  0  0  0  0  0  0
    9.0135   -2.2713   -0.9439 H   0  0  0  0  0  0  0  0  0  0  0  0
    8.8872   -4.0363   -0.9346 H   0  0  0  0  0  0  0  0  0  0  0  0
    8.8881   -3.1434    0.5932 H   0  0  0  0  0  0  0  0  0  0  0  0
    4.7037   -1.0280   -1.6701 H   0  0  0  0  0  0  0  0  0  0  0  0
    5.7416   -5.3098    2.5549 H   0  0  0  0  0  0  0  0  0  0  0  0
    4.1480   -5.0412    3.2181 H   0  0  0  0  0  0  0  0  0  0  0  0
    5.3108   -6.8939    4.4016 H   0  0  0  0  0  0  0  0  0  0  0  0
    3.5107   -8.6052    4.2087 H   0  0  0  0  0  0  0  0  0  0  0  0
    2.8317   -6.9963    4.1782 H   0  0  0  0  0  0  0  0  0  0  0  0
    1.8468   -8.4084    2.3718 H   0  0  0  0  0  0  0  0  0  0  0  0
    3.7978   -9.9140    1.9899 H   0  0  0  0  0  0  0  0  0  0  0  0
    3.2825   -9.1952    0.4902 H   0  0  0  0  0  0  0  0  0  0  0  0
    5.7483   -9.0398    0.7145 H   0  0  0  0  0  0  0  0  0  0  0  0
    6.7563   -7.6299    2.5070 H   0  0  0  0  0  0  0  0  0  0  0  0
    5.8997   -8.9875    3.1972 H   0  0  0  0  0  0  0  0  0  0  0  0
    4.5908   -7.2097   -0.5140 H   0  0  0  0  0  0  0  0  0  0  0  0
    6.0021   -6.6289    0.3418 H   0  0  0  0  0  0  0  0  0  0  0  0
    2.0551   -5.9819    2.0125 H   0  0  0  0  0  0  0  0  0  0  0  0
    2.2391   -6.8330    0.4974 H   0  0  0  0  0  0  0  0  0  0  0  0
  1  2  1  0
  1 21  1  0
  1 22  1  0
  1 23  1  0
  2 20  1  0
  2  3  2  0
  3  4  1  0
  4  5  2  0
  4 24  1  0
  5 19  1  0
  5  6  1  0
  6  7  2  0
  7  8  1  0
  9  8  1  6
  8 19  1  0
  9 17  1  0
  9 18  1  0
  9 10  1  0
 10 11  1  0
 10 25  1  0
 10 26  1  0
 11 16  1  0
 11 12  1  0
 11 27  1  1
 12 13  1  0
 12 28  1  0
 12 29  1  0
 13 14  1  0
 13 18  1  0
 13 30  1  1
 14 15  1  0
 14 31  1  0
 14 32  1  0
 15 16  1  0
 15 17  1  0
 15 33  1  6
 16 34  1  0
 16 35  1  0
 17 36  1  0
 17 37  1  0
 18 38  1  0
 18 39  1  0
 19 20  2  0
M  END
>  <i_m_ct_stereo_status>  (14) 
1

>  <s_m_source_file>  (14) 
/var/tmp/pbs.5076255.sched01/tmpbmel7479/053vx75p8.sdf

>  <i_m_source_file_index>  (14) 
6

>  <i_lp_mmshare_version>  (14) 
48012

>  <i_f3d_flags>  (14) 
0

>  <s_epik_input>  (14) 
W2NIXTFuYyhbQ0gzXSluYyhjMTIpbihubjIpQzM0W0NIMl1bQ0BIXTVbQ0gyXVtDQEBIXShbQ0gyXTQpW0NIMl1bQ0BIXShbQ0gyXTUpW0NIMl0z

>  <s_epik_cmdline>  (14) 
J2VwaWtfcHl0aG9uJywgJy1waHQnLCAnMi4wJywgJy1waCcsICc3LjAnLCAnLXRuJywgJzgnLCAnLW1hJywgJzIwMCcsICctaW1hZScsICc8aW5maWxlLm1hZT4nLCAnLW9tYWUnLCAnPG91dGZpbGUubWFlPic=

>  <r_lp_tautomer_probability>  (14) 
1

>  <r_epik_Ionization_Penalty>  (14) 
5.24424e-08

>  <r_epik_Ionization_Penalty_Charging>  (14) 
0

>  <r_epik_Ionization_Penalty_Neutral>  (14) 
5.24424e-08

>  <r_epik_State_Penalty>  (14) 
-0

>  <r_epik_Charging_Adjusted_Penalty>  (14) 
0

>  <i_epik_Tot_Q>  (14) 
0

>  <i_epik_Tot_abs_Q>  (14) 
0

>  <s_lp_Force_Field>  (14) 
OPLS3e

>  <r_lp_Energy>  (14) 
15.4869

>  <b_lp_Chiralities_Consistent>  (14) 
1

>  <s_lp_Variant>  (14) 
4:0-1

>  <s_i_glide_gridfile>  (14) 
pfpi4k_grid

>  <i_i_glide_lignum>  (14) 
6

>  <i_i_glide_rotatable_bonds>  (14) 
1

>  <r_i_docking_score>  (14) 
-3.23047

>  <r_i_glide_ligand_efficiency>  (14) 
-0.161524

>  <r_i_glide_ligand_efficiency_sa>  (14) 
-0.438443

>  <r_i_glide_ligand_efficiency_ln>  (14) 
-0.808481

>  <r_i_glide_gscore>  (14) 
-3.23047

>  <r_i_glide_lipo>  (14) 
-0.207972

>  <r_i_glide_hbond>  (14) 
-0.16

>  <r_i_glide_metal>  (14) 
-0

>  <r_i_glide_rewards>  (14) 
-1.77993

>  <r_i_glide_evdw>  (14) 
-19.771

>  <r_i_glide_ecoul>  (14) 
-1.97211

>  <r_i_glide_erotb>  (14) 
0.246278

>  <r_i_glide_esite>  (14) 
-0.0444855

>  <r_i_glide_emodel>  (14) 
-26.471

>  <r_i_glide_energy>  (14) 
-21.7431

>  <r_i_glide_einternal>  (14) 
0.0884555

>  <r_i_glide_intrahb_reward>  (14) 
-0

>  <i_i_glide_confnum>  (14) 
4

>  <i_i_glide_posenum>  (14) 
38

>  <r_i_glide_eff_state_penalty>  (14) 
0

>  <ligand_id>  (14) 
4

>  <original_smiles>  (14) 
Cc1ncc2nnn(C34CC5CC(CC(C5)C3)C4)c2n1

>  <smiles>  (14) 
[H]c1nc(C([H])([H])[H])nc2c1nnn2C12C([H])([H])C3([H])C([H])([H])C([H])(C([H])([H])C([H])(C3([H])[H])C1([H])[H])C2([H])[H]

$$$$
4:0:2
     RDKit          3D

 39 43  0  0  1  0  0  0  0  0999 V2000
    1.8273    3.9535    2.8960 C   0  0  0  0  0  0  0  0  0  0  0  0
    0.9681    2.8190    3.4080 C   0  0  0  0  0  0  0  0  0  0  0  0
    0.8442    1.7411    2.6170 N   0  0  0  0  0  0  0  0  0  0  0  0
    0.0758    0.7014    3.0203 C   0  0  0  0  0  0  0  0  0  0  0  0
   -0.5338    0.7685    4.2938 C   0  0  0  0  0  0  0  0  0  0  0  0
   -1.3463   -0.0853    5.0211 N   0  0  0  0  0  0  0  0  0  0  0  0
   -1.6182    0.4958    6.1516 N   0  0  0  0  0  0  0  0  0  0  0  0
   -0.9680    1.7005    6.2116 N   0  0  0  0  0  0  0  0  0  0  0  0
   -1.1032    2.5696    7.3961 C   0  0  2  0  0  0  0  0  0  0  0  0
    0.2795    3.1741    7.7907 C   0  0  0  0  0  0  0  0  0  0  0  0
    0.1413    4.0949    9.0131 C   0  0  1  0  0  0  0  0  0  0  0  0
   -0.8287    5.2456    8.6727 C   0  0  0  0  0  0  0  0  0  0  0  0
   -2.2105    4.6553    8.3287 C   0  0  2  0  0  0  0  0  0  0  0  0
   -2.7463    3.8574    9.5324 C   0  0  0  0  0  0  0  0  0  0  0  0
   -1.7700    2.7087    9.8529 C   0  0  2  0  0  0  0  0  0  0  0  0
   -0.3829    3.2757   10.2043 C   0  0  0  0  0  0  0  0  0  0  0  0
   -1.6410    1.7850    8.6277 C   0  0  0  0  0  0  0  0  0  0  0  0
   -2.0881    3.7308    7.0939 C   0  0  0  0  0  0  0  0  0  0  0  0
   -0.2963    1.9458    5.0254 C   0  0  0  0  0  0  0  0  0  0  0  0
    0.4359    3.0189    4.6161 N   0  0  0  0  0  0  0  0  0  0  0  0
    2.2130    3.7584    1.8937 H   0  0  0  0  0  0  0  0  0  0  0  0
    2.6718    4.1208    3.5662 H   0  0  0  0  0  0  0  0  0  0  0  0
    1.2390    4.8721    2.8683 H   0  0  0  0  0  0  0  0  0  0  0  0
   -0.0408   -0.1488    2.3654 H   0  0  0  0  0  0  0  0  0  0  0  0
    0.9985    2.3764    7.9893 H   0  0  0  0  0  0  0  0  0  0  0  0
    0.7030    3.7828    6.9950 H   0  0  0  0  0  0  0  0  0  0  0  0
    1.1198    4.5086    9.2543 H   0  0  0  0  0  0  0  0  0  0  0  0
   -0.9045    5.9395    9.5093 H   0  0  0  0  0  0  0  0  0  0  0  0
   -0.4468    5.8241    7.8300 H   0  0  0  0  0  0  0  0  0  0  0  0
   -2.9030    5.4664    8.1147 H   0  0  0  0  0  0  0  0  0  0  0  0
   -2.8613    4.5070   10.4008 H   0  0  0  0  0  0  0  0  0  0  0  0
   -3.7390    3.4643    9.3127 H   0  0  0  0  0  0  0  0  0  0  0  0
   -2.1520    2.1407   10.7002 H   0  0  0  0  0  0  0  0  0  0  0  0
    0.3068    2.4586   10.4203 H   0  0  0  0  0  0  0  0  0  0  0  0
   -0.4337    3.8911   11.1018 H   0  0  0  0  0  0  0  0  0  0  0  0
   -2.6195    1.3625    8.4106 H   0  0  0  0  0  0  0  0  0  0  0  0
   -0.9810    0.9484    8.8648 H   0  0  0  0  0  0  0  0  0  0  0  0
   -1.7377    4.3007    6.2321 H   0  0  0  0  0  0  0  0  0  0  0  0
   -3.0705    3.3386    6.8237 H   0  0  0  0  0  0  0  0  0  0  0  0
  1  2  1  0
  1 21  1  0
  1 22  1  0
  1 23  1  0
  2 20  1  0
  2  3  2  0
  3  4  1  0
  4  5  2  0
  4 24  1  0
  5 19  1  0
  5  6  1  0
  6  7  2  0
  7  8  1  0
  9  8  1  6
  8 19  1  0
  9 17  1  0
  9 18  1  0
  9 10  1  0
 10 11  1  0
 10 25  1  0
 10 26  1  0
 11 16  1  0
 11 12  1  0
 11 27  1  1
 12 13  1  0
 12 28  1  0
 12 29  1  0
 13 14  1  0
 13 18  1  0
 13 30  1  6
 14 15  1  0
 14 31  1  0
 14 32  1  0
 15 16  1  0
 15 17  1  0
 15 33  1  1
 16 34  1  0
 16 35  1  0
 17 36  1  0
 17 37  1  0
 18 38  1  0
 18 39  1  0
 19 20  2  0
M  END
>  <i_m_ct_stereo_status>  (15) 
1

>  <s_m_source_file>  (15) 
/var/tmp/pbs.5076255.sched01/tmpbmel7479/053vx75p8.sdf

>  <i_m_source_file_index>  (15) 
6

>  <i_lp_mmshare_version>  (15) 
48012

>  <i_f3d_flags>  (15) 
0

>  <s_epik_input>  (15) 
W2NIXTFuYyhbQ0gzXSluYyhjMTIpbihubjIpQzM0W0NIMl1bQ0BIXTVbQ0gyXVtDQEBIXShbQ0gyXTQpW0NIMl1bQ0BIXShbQ0gyXTUpW0NIMl0z

>  <s_epik_cmdline>  (15) 
J2VwaWtfcHl0aG9uJywgJy1waHQnLCAnMi4wJywgJy1waCcsICc3LjAnLCAnLXRuJywgJzgnLCAnLW1hJywgJzIwMCcsICctaW1hZScsICc8aW5maWxlLm1hZT4nLCAnLW9tYWUnLCAnPG91dGZpbGUubWFlPic=

>  <r_lp_tautomer_probability>  (15) 
1

>  <r_epik_Ionization_Penalty>  (15) 
5.24424e-08

>  <r_epik_Ionization_Penalty_Charging>  (15) 
0

>  <r_epik_Ionization_Penalty_Neutral>  (15) 
5.24424e-08

>  <r_epik_State_Penalty>  (15) 
-0

>  <r_epik_Charging_Adjusted_Penalty>  (15) 
0

>  <i_epik_Tot_Q>  (15) 
0

>  <i_epik_Tot_abs_Q>  (15) 
0

>  <s_lp_Force_Field>  (15) 
OPLS3e

>  <r_lp_Energy>  (15) 
15.4869

>  <b_lp_Chiralities_Consistent>  (15) 
1

>  <s_lp_Variant>  (15) 
4:0-1

>  <s_i_glide_gridfile>  (15) 
pfpi4k_grid

>  <i_i_glide_lignum>  (15) 
6

>  <i_i_glide_rotatable_bonds>  (15) 
1

>  <r_i_docking_score>  (15) 
-2.79757

>  <r_i_glide_ligand_efficiency>  (15) 
-0.139879

>  <r_i_glide_ligand_efficiency_sa>  (15) 
-0.379689

>  <r_i_glide_ligand_efficiency_ln>  (15) 
-0.70014

>  <r_i_glide_gscore>  (15) 
-2.79757

>  <r_i_glide_lipo>  (15) 
-0.0720254

>  <r_i_glide_hbond>  (15) 
0

>  <r_i_glide_metal>  (15) 
-0

>  <r_i_glide_rewards>  (15) 
-1.57265

>  <r_i_glide_evdw>  (15) 
-18.2943

>  <r_i_glide_ecoul>  (15) 
-1.9205

>  <r_i_glide_erotb>  (15) 
0.246278

>  <r_i_glide_esite>  (15) 
-0.196385

>  <r_i_glide_emodel>  (15) 
-23.9987

>  <r_i_glide_energy>  (15) 
-20.2148

>  <r_i_glide_einternal>  (15) 
0.56191

>  <r_i_glide_intrahb_reward>  (15) 
-0

>  <i_i_glide_confnum>  (15) 
5

>  <i_i_glide_posenum>  (15) 
19

>  <r_i_glide_eff_state_penalty>  (15) 
0

>  <ligand_id>  (15) 
4

>  <original_smiles>  (15) 
Cc1ncc2nnn(C34CC5CC(CC(C5)C3)C4)c2n1

>  <smiles>  (15) 
[H]c1nc(C([H])([H])[H])nc2c1nnn2C12C([H])([H])C3([H])C([H])([H])C([H])(C([H])([H])C([H])(C3([H])[H])C1([H])[H])C2([H])[H]

$$$$
5:0:0
     RDKit          3D

 38 44  0  0  1  0  0  0  0  0999 V2000
    5.3104   -4.7585    1.1206 O   0  0  0  0  0  0  0  0  0  0  0  0
    4.2224   -4.5214    0.5902 C   0  0  0  0  0  0  0  0  0  0  0  0
    3.0383   -4.8567    1.1404 O   0  0  0  0  0  0  0  0  0  0  0  0
    3.0030   -5.5077    2.4052 C   0  0  0  0  0  0  0  0  0  0  0  0
    1.5651   -5.9622    2.7057 C   0  0  2  0  0  0  0  0  0  0  0  0
    1.3751   -6.4209    4.1849 C   0  0  1  0  0  0  0  0  0  0  0  0
    0.1720   -7.2328    4.4393 C   0  0  1  0  0  0  0  0  0  0  0  0
   -0.8982   -7.0579    3.4662 C   0  0  2  0  0  0  0  0  0  0  0  0
   -0.3625   -7.5178    2.0752 C   0  0  1  0  0  0  0  0  0  0  0  0
    1.1765   -7.2422    1.9269 C   0  0  2  0  0  0  0  0  0  0  0  0
    1.7993   -8.2821    2.9207 C   0  0  1  0  0  0  0  0  0  0  0  0
    1.3417   -7.8963    4.2813 C   0  0  2  0  0  0  0  0  0  0  0  0
   -0.4191   -8.3176    3.9924 C   0  0  2  0  0  0  0  0  0  0  0  0
   -0.4135   -8.9106    2.6769 C   0  0  2  0  0  0  0  0  0  0  0  0
    0.6696   -8.8731    3.6098 C   0  0  2  0  0  0  0  0  0  0  0  0
    4.0781   -3.8492   -0.7311 C   0  0  0  0  0  0  0  0  0  0  0  0
    5.2169   -3.6000   -1.5317 C   0  0  0  0  0  0  0  0  0  0  0  0
    5.0440   -2.9986   -2.7933 C   0  0  0  0  0  0  0  0  0  0  0  0
    3.8489   -2.6217   -3.2828 N   0  0  0  0  0  0  0  0  0  0  0  0
    2.7615   -2.8411   -2.5118 C   0  0  0  0  0  0  0  0  0  0  0  0
    2.8242   -3.4508   -1.2425 C   0  0  0  0  0  0  0  0  0  0  0  0
    3.6841   -6.3622    2.4182 H   0  0  0  0  0  0  0  0  0  0  0  0
    3.3393   -4.8143    3.1769 H   0  0  0  0  0  0  0  0  0  0  0  0
    0.8807   -5.1402    2.4870 H   0  0  0  0  0  0  0  0  0  0  0  0
    1.7724   -5.8527    5.0253 H   0  0  0  0  0  0  0  0  0  0  0  0
   -0.1470   -6.9893    5.5350 H   0  0  0  0  0  0  0  0  0  0  0  0
   -1.9606   -7.0560    3.7166 H   0  0  0  0  0  0  0  0  0  0  0  0
   -0.9872   -7.3482    1.2075 H   0  0  0  0  0  0  0  0  0  0  0  0
    1.5393   -7.3100    0.8960 H   0  0  0  0  0  0  0  0  0  0  0  0
    2.7115   -8.8573    2.7699 H   0  0  0  0  0  0  0  0  0  0  0  0
    1.9467   -8.2809    5.1771 H   0  0  0  0  0  0  0  0  0  0  0  0
   -1.1369   -8.8486    4.7319 H   0  0  0  0  0  0  0  0  0  0  0  0
   -1.2850   -9.5656    2.7001 H   0  0  0  0  0  0  0  0  0  0  0  0
    0.9115   -9.9283    4.0436 H   0  0  0  0  0  0  0  0  0  0  0  0
    6.2037   -3.8881   -1.2070 H   0  0  0  0  0  0  0  0  0  0  0  0
    5.8943   -2.8125   -3.4338 H   0  0  0  0  0  0  0  0  0  0  0  0
    1.8166   -2.5237   -2.9229 H   0  0  0  0  0  0  0  0  0  0  0  0
    1.9095   -3.5946   -0.6868 H   0  0  0  0  0  0  0  0  0  0  0  0
  1  2  2  0
  2  3  1  0
  2 16  1  0
  3  4  1  0
  4  5  1  0
  4 22  1  0
  4 23  1  0
  5 10  1  0
  5  6  1  0
  5 24  1  6
  6 12  1  0
  6  7  1  0
  6 25  1  1
  7 15  1  0
  7  8  1  0
  7 26  1  1
  8 13  1  0
  8  9  1  0
  8 27  1  6
  9 14  1  0
  9 10  1  0
  9 28  1  6
 10 11  1  0
 10 29  1  6
 11 15  1  0
 11 12  1  0
 11 30  1  1
 12 13  1  0
 12 31  1  1
 13 14  1  0
 13 32  1  1
 14 15  1  0
 14 33  1  6
 15 34  1  1
 16 21  1  0
 16 17  2  0
 17 18  1  0
 17 35  1  0
 18 19  2  0
 18 36  1  0
 19 20  1  0
 20 21  2  0
 20 37  1  0
 21 38  1  0
M  END
>  <i_m_ct_stereo_status>  (16) 
1

>  <s_m_source_file>  (16) 
/var/tmp/pbs.5076255.sched01/tmpbmel7479/053vx75p8.sdf

>  <i_m_source_file_index>  (16) 
7

>  <i_lp_mmshare_version>  (16) 
48012

>  <i_f3d_flags>  (16) 
2

>  <s_epik_input>  (16) 
W2NIXTFbY0hdbltjSF1bY0hdYzFDKD1PKU9bQ0gyXVtDQEhdMltDQEBIXShbQ0BASF0zW0NIXTRbQ0BASF01W0NAQEhdMjYpW0NAQEhdN1tDQEhdNltDQEBIXTRbQ0BASF0zW0NASF01Nw==

>  <s_epik_cmdline>  (16) 
J2VwaWtfcHl0aG9uJywgJy1waHQnLCAnMi4wJywgJy1waCcsICc3LjAnLCAnLXRuJywgJzgnLCAnLW1hJywgJzIwMCcsICctaW1hZScsICc8aW5maWxlLm1hZT4nLCAnLW9tYWUnLCAnPG91dGZpbGUubWFlPic=

>  <r_lp_tautomer_probability>  (16) 
1

>  <r_epik_Ionization_Penalty>  (16) 
7.10274e-05

>  <r_epik_Ionization_Penalty_Charging>  (16) 
0

>  <r_epik_Ionization_Penalty_Neutral>  (16) 
7.10274e-05

>  <r_epik_State_Penalty>  (16) 
-0

>  <r_epik_Charging_Adjusted_Penalty>  (16) 
0

>  <i_epik_Tot_Q>  (16) 
0

>  <i_epik_Tot_abs_Q>  (16) 
0

>  <s_epik_Chemistry_Notes>  (16) 
This compound has an ester and may undergo hydrolysis at high or low pH.

>  <s_lp_Force_Field>  (16) 
OPLS3e

>  <r_lp_Energy>  (16) 
493.617

>  <b_lp_Chiralities_Consistent>  (16) 
0

>  <s_lp_Variant>  (16) 
5:0-1

>  <s_i_glide_gridfile>  (16) 
pfpi4k_grid

>  <i_i_glide_lignum>  (16) 
7

>  <i_i_glide_rotatable_bonds>  (16) 
4

>  <r_i_docking_score>  (16) 
-2.94637

>  <r_i_glide_ligand_efficiency>  (16) 
-0.140304

>  <r_i_glide_ligand_efficiency_sa>  (16) 
-0.387087

>  <r_i_glide_ligand_efficiency_ln>  (16) 
-0.728485

>  <r_i_glide_gscore>  (16) 
-2.94637

>  <r_i_glide_lipo>  (16) 
-0.295498

>  <r_i_glide_hbond>  (16) 
0

>  <r_i_glide_metal>  (16) 
-0

>  <r_i_glide_rewards>  (16) 
-1.54779

>  <r_i_glide_evdw>  (16) 
-27.9527

>  <r_i_glide_ecoul>  (16) 
-1.11924

>  <r_i_glide_erotb>  (16) 
0.462437

>  <r_i_glide_esite>  (16) 
0

>  <r_i_glide_emodel>  (16) 
-33.8032

>  <r_i_glide_energy>  (16) 
-29.072

>  <r_i_glide_einternal>  (16) 
1.04756

>  <r_i_glide_intrahb_reward>  (16) 
-0

>  <i_i_glide_confnum>  (16) 
4

>  <i_i_glide_posenum>  (16) 
24

>  <r_i_glide_eff_state_penalty>  (16) 
0

>  <ligand_id>  (16) 
5

>  <original_smiles>  (16) 
O=C(OCC1C2C3C4C5C1C1C2C4C5C13)c1ccncc1

>  <smiles>  (16) 
[H]c1nc([H])c([H])c(C(=O)OC([H])([H])C2([H])C3([H])C4([H])C5([H])C6([H])C2([H])C2([H])C3([H])C5([H])C6([H])C24[H])c1[H]

$$$$
5:0:1
     RDKit          3D

 38 44  0  0  1  0  0  0  0  0999 V2000
   -0.9606    4.6128    4.9726 O   0  0  0  0  0  0  0  0  0  0  0  0
   -1.0246    3.4016    4.7387 C   0  0  0  0  0  0  0  0  0  0  0  0
   -1.9182    2.5674    5.3189 O   0  0  0  0  0  0  0  0  0  0  0  0
   -2.7736    3.0202    6.3641 C   0  0  0  0  0  0  0  0  0  0  0  0
   -2.2316    2.6200    7.7491 C   0  0  2  0  0  0  0  0  0  0  0  0
   -3.1519    3.1376    8.9056 C   0  0  1  0  0  0  0  0  0  0  0  0
   -2.5208    3.1763   10.2337 C   0  0  1  0  0  0  0  0  0  0  0  0
   -1.3958    2.2631   10.3911 C   0  0  2  0  0  0  0  0  0  0  0  0
   -0.2756    2.6876    9.4005 C   0  0  1  0  0  0  0  0  0  0  0  0
   -0.8834    3.3028    8.0898 C   0  0  2  0  0  0  0  0  0  0  0  0
   -1.4815    4.6666    8.5831 C   0  0  1  0  0  0  0  0  0  0  0  0
   -2.5651    4.3349    9.5426 C   0  0  2  0  0  0  0  0  0  0  0  0
   -1.4449    3.6481   10.8212 C   0  0  2  0  0  0  0  0  0  0  0  0
   -0.1254    3.9042   10.2935 C   0  0  2  0  0  0  0  0  0  0  0  0
   -1.3239    4.6406   10.0201 C   0  0  2  0  0  0  0  0  0  0  0  0
   -0.0993    2.6875    3.8285 C   0  0  0  0  0  0  0  0  0  0  0  0
   -0.4608    1.4654    3.2251 C   0  0  0  0  0  0  0  0  0  0  0  0
    0.4543    0.8435    2.3545 C   0  0  0  0  0  0  0  0  0  0  0  0
    1.6780    1.3441    2.0873 N   0  0  0  0  0  0  0  0  0  0  0  0
    2.0224    2.5117    2.6657 C   0  0  0  0  0  0  0  0  0  0  0  0
    1.1805    3.2179    3.5451 C   0  0  0  0  0  0  0  0  0  0  0  0
   -2.9493    4.0967    6.3128 H   0  0  0  0  0  0  0  0  0  0  0  0
   -3.7487    2.5549    6.2300 H   0  0  0  0  0  0  0  0  0  0  0  0
   -2.1323    1.5326    7.7964 H   0  0  0  0  0  0  0  0  0  0  0  0
   -4.2386    3.0471    8.8812 H   0  0  0  0  0  0  0  0  0  0  0  0
   -3.3782    2.9850   11.0015 H   0  0  0  0  0  0  0  0  0  0  0  0
   -1.1885    1.6976   11.2994 H   0  0  0  0  0  0  0  0  0  0  0  0
    0.5840    2.0161    9.3311 H   0  0  0  0  0  0  0  0  0  0  0  0
   -0.1472    3.3869    7.2886 H   0  0  0  0  0  0  0  0  0  0  0  0
   -1.4638    5.6156    8.0484 H   0  0  0  0  0  0  0  0  0  0  0  0
   -3.3548    5.1409    9.7458 H   0  0  0  0  0  0  0  0  0  0  0  0
   -1.5160    3.8039   11.9660 H   0  0  0  0  0  0  0  0  0  0  0  0
    0.5012    3.9612   11.1832 H   0  0  0  0  0  0  0  0  0  0  0  0
   -1.2991    5.7109   10.4795 H   0  0  0  0  0  0  0  0  0  0  0  0
   -1.4283    1.0138    3.3991 H   0  0  0  0  0  0  0  0  0  0  0  0
    0.2008   -0.0845    1.8676 H   0  0  0  0  0  0  0  0  0  0  0  0
    3.0052    2.8901    2.4237 H   0  0  0  0  0  0  0  0  0  0  0  0
    1.5105    4.1519    3.9767 H   0  0  0  0  0  0  0  0  0  0  0  0
  1  2  2  0
  2  3  1  0
  2 16  1  0
  3  4  1  0
  4  5  1  0
  4 22  1  0
  4 23  1  0
  5 10  1  0
  5  6  1  0
  5 24  1  6
  6 12  1  0
  6  7  1  0
  6 25  1  1
  7 15  1  0
  7  8  1  0
  7 26  1  1
  8 13  1  0
  8  9  1  0
  8 27  1  1
  9 14  1  0
  9 10  1  0
  9 28  1  6
 10 11  1  0
 10 29  1  6
 11 15  1  0
 11 12  1  0
 11 30  1  6
 12 13  1  0
 12 31  1  1
 13 14  1  0
 13 32  1  1
 14 15  1  0
 14 33  1  1
 15 34  1  1
 16 21  1  0
 16 17  2  0
 17 18  1  0
 17 35  1  0
 18 19  2  0
 18 36  1  0
 19 20  1  0
 20 21  2  0
 20 37  1  0
 21 38  1  0
M  END
>  <i_m_ct_stereo_status>  (17) 
1

>  <s_m_source_file>  (17) 
/var/tmp/pbs.5076255.sched01/tmpbmel7479/053vx75p8.sdf

>  <i_m_source_file_index>  (17) 
7

>  <i_lp_mmshare_version>  (17) 
48012

>  <i_f3d_flags>  (17) 
2

>  <s_epik_input>  (17) 
W2NIXTFbY0hdbltjSF1bY0hdYzFDKD1PKU9bQ0gyXVtDQEhdMltDQEBIXShbQ0BASF0zW0NIXTRbQ0BASF01W0NAQEhdMjYpW0NAQEhdN1tDQEhdNltDQEBIXTRbQ0BASF0zW0NASF01Nw==

>  <s_epik_cmdline>  (17) 
J2VwaWtfcHl0aG9uJywgJy1waHQnLCAnMi4wJywgJy1waCcsICc3LjAnLCAnLXRuJywgJzgnLCAnLW1hJywgJzIwMCcsICctaW1hZScsICc8aW5maWxlLm1hZT4nLCAnLW9tYWUnLCAnPG91dGZpbGUubWFlPic=

>  <r_lp_tautomer_probability>  (17) 
1

>  <r_epik_Ionization_Penalty>  (17) 
7.10274e-05

>  <r_epik_Ionization_Penalty_Charging>  (17) 
0

>  <r_epik_Ionization_Penalty_Neutral>  (17) 
7.10274e-05

>  <r_epik_State_Penalty>  (17) 
-0

>  <r_epik_Charging_Adjusted_Penalty>  (17) 
0

>  <i_epik_Tot_Q>  (17) 
0

>  <i_epik_Tot_abs_Q>  (17) 
0

>  <s_epik_Chemistry_Notes>  (17) 
This compound has an ester and may undergo hydrolysis at high or low pH.

>  <s_lp_Force_Field>  (17) 
OPLS3e

>  <r_lp_Energy>  (17) 
493.617

>  <b_lp_Chiralities_Consistent>  (17) 
0

>  <s_lp_Variant>  (17) 
5:0-1

>  <s_i_glide_gridfile>  (17) 
pfpi4k_grid

>  <i_i_glide_lignum>  (17) 
7

>  <i_i_glide_rotatable_bonds>  (17) 
4

>  <r_i_docking_score>  (17) 
-2.63915

>  <r_i_glide_ligand_efficiency>  (17) 
-0.125674

>  <r_i_glide_ligand_efficiency_sa>  (17) 
-0.346725

>  <r_i_glide_ligand_efficiency_ln>  (17) 
-0.652526

>  <r_i_glide_gscore>  (17) 
-2.63915

>  <r_i_glide_lipo>  (17) 
-0.217057

>  <r_i_glide_hbond>  (17) 
0

>  <r_i_glide_metal>  (17) 
-0

>  <r_i_glide_rewards>  (17) 
-1.50455

>  <r_i_glide_evdw>  (17) 
-23.9925

>  <r_i_glide_ecoul>  (17) 
-1.02223

>  <r_i_glide_erotb>  (17) 
0.462437

>  <r_i_glide_esite>  (17) 
-0.0270295

>  <r_i_glide_emodel>  (17) 
-28.863

>  <r_i_glide_energy>  (17) 
-25.0147

>  <r_i_glide_einternal>  (17) 
1.59259

>  <r_i_glide_intrahb_reward>  (17) 
-0

>  <i_i_glide_confnum>  (17) 
2

>  <i_i_glide_posenum>  (17) 
3

>  <r_i_glide_eff_state_penalty>  (17) 
0

>  <ligand_id>  (17) 
5

>  <original_smiles>  (17) 
O=C(OCC1C2C3C4C5C1C1C2C4C5C13)c1ccncc1

>  <smiles>  (17) 
[H]c1nc([H])c([H])c(C(=O)OC([H])([H])C2([H])C3([H])C4([H])C5([H])C6([H])C2([H])C2([H])C3([H])C5([H])C6([H])C24[H])c1[H]

$$$$
5:0:2
     RDKit          3D

 38 44  0  0  1  0  0  0  0  0999 V2000
   -0.1693   -4.9336    8.2500 O   0  0  0  0  0  0  0  0  0  0  0  0
    0.2971   -6.0416    7.9631 C   0  0  0  0  0  0  0  0  0  0  0  0
    0.7009   -6.3775    6.7286 O   0  0  0  0  0  0  0  0  0  0  0  0
    0.6269   -5.4637    5.6352 C   0  0  0  0  0  0  0  0  0  0  0  0
    0.3111   -6.1884    4.3086 C   0  0  2  0  0  0  0  0  0  0  0  0
   -0.9785   -7.0654    4.3913 C   0  0  1  0  0  0  0  0  0  0  0  0
   -1.1342   -8.0667    3.3262 C   0  0  1  0  0  0  0  0  0  0  0  0
   -0.4200   -7.7468    2.0933 C   0  0  2  0  0  0  0  0  0  0  0  0
    1.1105   -7.7204    2.3999 C   0  0  1  0  0  0  0  0  0  0  0  0
    1.3877   -7.2162    3.8726 C   0  0  2  0  0  0  0  0  0  0  0  0
    0.8544   -8.4062    4.7399 C   0  0  1  0  0  0  0  0  0  0  0  0
   -0.6109   -8.4934    4.5032 C   0  0  2  0  0  0  0  0  0  0  0  0
   -0.4571   -9.0385    2.7584 C   0  0  2  0  0  0  0  0  0  0  0  0
    0.9657   -9.2221    2.5854 C   0  0  2  0  0  0  0  0  0  0  0  0
    0.2227   -9.3094    3.8045 C   0  0  2  0  0  0  0  0  0  0  0  0
    0.4671   -7.1550    8.9453 C   0  0  0  0  0  0  0  0  0  0  0  0
    0.2182   -6.9245   10.3177 C   0  0  0  0  0  0  0  0  0  0  0  0
    0.3813   -7.9886   11.2295 C   0  0  0  0  0  0  0  0  0  0  0  0
    0.7613   -9.2293   10.8641 N   0  0  0  0  0  0  0  0  0  0  0  0
    1.0190   -9.4501    9.5586 C   0  0  0  0  0  0  0  0  0  0  0  0
    0.8687   -8.4580    8.5729 C   0  0  0  0  0  0  0  0  0  0  0  0
   -0.1372   -4.7008    5.7966 H   0  0  0  0  0  0  0  0  0  0  0  0
    1.5872   -4.9508    5.5584 H   0  0  0  0  0  0  0  0  0  0  0  0
    0.2144   -5.4269    3.5310 H   0  0  0  0  0  0  0  0  0  0  0  0
   -1.8856   -6.7216    4.8868 H   0  0  0  0  0  0  0  0  0  0  0  0
   -2.2844   -8.2039    3.1811 H   0  0  0  0  0  0  0  0  0  0  0  0
   -0.7956   -7.9620    1.0941 H   0  0  0  0  0  0  0  0  0  0  0  0
    1.7620   -7.4032    1.5785 H   0  0  0  0  0  0  0  0  0  0  0  0
    2.4256   -6.9325    4.0721 H   0  0  0  0  0  0  0  0  0  0  0  0
    1.3954   -8.8809    5.5557 H   0  0  0  0  0  0  0  0  0  0  0  0
   -1.2393   -9.0352    5.2955 H   0  0  0  0  0  0  0  0  0  0  0  0
   -1.0880   -9.8541    2.2265 H   0  0  0  0  0  0  0  0  0  0  0  0
    1.0338   -9.9764    1.8003 H   0  0  0  0  0  0  0  0  0  0  0  0
    0.1750  -10.4013    4.2186 H   0  0  0  0  0  0  0  0  0  0  0  0
   -0.0888   -5.9500   10.6710 H   0  0  0  0  0  0  0  0  0  0  0  0
    0.2048   -7.8421   12.2858 H   0  0  0  0  0  0  0  0  0  0  0  0
    1.3232  -10.4503    9.2908 H   0  0  0  0  0  0  0  0  0  0  0  0
    1.0727   -8.7339    7.5523 H   0  0  0  0  0  0  0  0  0  0  0  0
  1  2  2  0
  2  3  1  0
  2 16  1  0
  3  4  1  0
  4  5  1  0
  4 22  1  0
  4 23  1  0
  5 10  1  0
  5  6  1  0
  5 24  1  6
  6 12  1  0
  6  7  1  0
  6 25  1  1
  7 15  1  0
  7  8  1  0
  7 26  1  6
  8 13  1  0
  8  9  1  0
  8 27  1  6
  9 14  1  0
  9 10  1  0
  9 28  1  6
 10 11  1  0
 10 29  1  6
 11 15  1  0
 11 12  1  0
 11 30  1  1
 12 13  1  0
 12 31  1  1
 13 14  1  0
 13 32  1  6
 14 15  1  0
 14 33  1  6
 15 34  1  1
 16 21  1  0
 16 17  2  0
 17 18  1  0
 17 35  1  0
 18 19  2  0
 18 36  1  0
 19 20  1  0
 20 21  2  0
 20 37  1  0
 21 38  1  0
M  END
>  <i_m_ct_stereo_status>  (18) 
1

>  <s_m_source_file>  (18) 
/var/tmp/pbs.5076255.sched01/tmpbmel7479/053vx75p8.sdf

>  <i_m_source_file_index>  (18) 
7

>  <i_lp_mmshare_version>  (18) 
48012

>  <i_f3d_flags>  (18) 
2

>  <s_epik_input>  (18) 
W2NIXTFbY0hdbltjSF1bY0hdYzFDKD1PKU9bQ0gyXVtDQEhdMltDQEBIXShbQ0BASF0zW0NIXTRbQ0BASF01W0NAQEhdMjYpW0NAQEhdN1tDQEhdNltDQEBIXTRbQ0BASF0zW0NASF01Nw==

>  <s_epik_cmdline>  (18) 
J2VwaWtfcHl0aG9uJywgJy1waHQnLCAnMi4wJywgJy1waCcsICc3LjAnLCAnLXRuJywgJzgnLCAnLW1hJywgJzIwMCcsICctaW1hZScsICc8aW5maWxlLm1hZT4nLCAnLW9tYWUnLCAnPG91dGZpbGUubWFlPic=

>  <r_lp_tautomer_probability>  (18) 
1

>  <r_epik_Ionization_Penalty>  (18) 
7.10274e-05

>  <r_epik_Ionization_Penalty_Charging>  (18) 
0

>  <r_epik_Ionization_Penalty_Neutral>  (18) 
7.10274e-05

>  <r_epik_State_Penalty>  (18) 
-0

>  <r_epik_Charging_Adjusted_Penalty>  (18) 
0

>  <i_epik_Tot_Q>  (18) 
0

>  <i_epik_Tot_abs_Q>  (18) 
0

>  <s_epik_Chemistry_Notes>  (18) 
This compound has an ester and may undergo hydrolysis at high or low pH.

>  <s_lp_Force_Field>  (18) 
OPLS3e

>  <r_lp_Energy>  (18) 
493.617

>  <b_lp_Chiralities_Consistent>  (18) 
0

>  <s_lp_Variant>  (18) 
5:0-1

>  <s_i_glide_gridfile>  (18) 
pfpi4k_grid

>  <i_i_glide_lignum>  (18) 
7

>  <i_i_glide_rotatable_bonds>  (18) 
4

>  <r_i_docking_score>  (18) 
-2.54973

>  <r_i_glide_ligand_efficiency>  (18) 
-0.121416

>  <r_i_glide_ligand_efficiency_sa>  (18) 
-0.334977

>  <r_i_glide_ligand_efficiency_ln>  (18) 
-0.630416

>  <r_i_glide_gscore>  (18) 
-2.54973

>  <r_i_glide_lipo>  (18) 
-0.0188984

>  <r_i_glide_hbond>  (18) 
0

>  <r_i_glide_metal>  (18) 
-0

>  <r_i_glide_rewards>  (18) 
-1.50455

>  <r_i_glide_evdw>  (18) 
-23.0413

>  <r_i_glide_ecoul>  (18) 
-2.18797

>  <r_i_glide_erotb>  (18) 
0.462437

>  <r_i_glide_esite>  (18) 
-0.008464

>  <r_i_glide_emodel>  (18) 
-28.3595

>  <r_i_glide_energy>  (18) 
-25.2293

>  <r_i_glide_einternal>  (18) 
2.46219

>  <r_i_glide_intrahb_reward>  (18) 
-0

>  <i_i_glide_confnum>  (18) 
2

>  <i_i_glide_posenum>  (18) 
21

>  <r_i_glide_eff_state_penalty>  (18) 
0

>  <ligand_id>  (18) 
5

>  <original_smiles>  (18) 
O=C(OCC1C2C3C4C5C1C1C2C4C5C13)c1ccncc1

>  <smiles>  (18) 
[H]c1nc([H])c([H])c(C(=O)OC([H])([H])C2([H])C3([H])C4([H])C5([H])C6([H])C2([H])C2([H])C3([H])C5([H])C6([H])C24[H])c1[H]

$$$$
6:0:0
     RDKit          3D

 32 35  0  0  1  0  0  0  0  0999 V2000
    0.6792    1.1854    1.8122 C   0  0  0  0  0  0  0  0  0  0  0  0
    0.3676    1.7103    3.1276 N   0  0  0  0  0  0  0  0  0  0  0  0
    0.8710    2.9213    3.4840 N   0  0  0  0  0  0  0  0  0  0  0  0
    0.4112    3.1691    4.6860 C   0  0  0  0  0  0  0  0  0  0  0  0
   -0.4052    2.0963    5.1752 C   0  0  0  0  0  0  0  0  0  0  0  0
   -1.1405    1.7440    6.3335 C   0  0  0  0  0  0  0  0  0  0  0  0
   -1.2260    2.5677    7.4693 N   0  0  0  0  0  0  0  0  0  0  0  0
   -0.8115    3.9600    7.5456 C   0  0  0  0  0  0  0  0  0  0  0  0
   -1.1966    4.3238    8.9918 C   0  0  1  0  0  0  0  0  0  0  0  0
   -2.7328    4.3807    9.1080 C   0  0  0  0  0  0  0  0  0  0  0  0
   -3.1319    2.8965    8.9610 C   0  0  0  0  0  0  0  0  0  0  0  0
   -1.7691    2.2027    8.7696 C   0  0  2  0  0  0  0  0  0  0  0  0
   -0.8814    3.0121    9.7107 C   0  0  0  0  0  0  0  0  0  0  0  0
   -1.7791    0.5452    6.3551 N   0  0  0  0  0  0  0  0  0  0  0  0
   -1.7006   -0.2473    5.2803 C   0  0  0  0  0  0  0  0  0  0  0  0
   -1.0505   -0.0585    4.1344 N   0  0  0  0  0  0  0  0  0  0  0  0
   -0.4117    1.1452    4.1269 C   0  0  0  0  0  0  0  0  0  0  0  0
    0.9604    0.1354    1.8876 H   0  0  0  0  0  0  0  0  0  0  0  0
    1.5000    1.7421    1.3595 H   0  0  0  0  0  0  0  0  0  0  0  0
   -0.1983    1.2776    1.1750 H   0  0  0  0  0  0  0  0  0  0  0  0
    0.6830    4.0955    5.1679 H   0  0  0  0  0  0  0  0  0  0  0  0
    0.2665    4.0422    7.4020 H   0  0  0  0  0  0  0  0  0  0  0  0
   -1.3221    4.5800    6.8080 H   0  0  0  0  0  0  0  0  0  0  0  0
   -0.6851    5.2047    9.3793 H   0  0  0  0  0  0  0  0  0  0  0  0
   -3.0284    4.7667   10.0843 H   0  0  0  0  0  0  0  0  0  0  0  0
   -3.1860    5.0055    8.3389 H   0  0  0  0  0  0  0  0  0  0  0  0
   -3.6202    2.5443    9.8708 H   0  0  0  0  0  0  0  0  0  0  0  0
   -3.8075    2.7198    8.1224 H   0  0  0  0  0  0  0  0  0  0  0  0
   -1.7632    1.1333    8.9615 H   0  0  0  0  0  0  0  0  0  0  0  0
    0.1729    2.7291    9.6578 H   0  0  0  0  0  0  0  0  0  0  0  0
   -1.2108    2.9947   10.7519 H   0  0  0  0  0  0  0  0  0  0  0  0
   -2.2403   -1.1814    5.3521 H   0  0  0  0  0  0  0  0  0  0  0  0
  1  2  1  0
  1 18  1  0
  1 19  1  0
  1 20  1  0
  2 17  1  0
  2  3  1  0
  3  4  2  0
  4  5  1  0
  4 21  1  0
  5 17  2  0
  5  6  1  0
  6  7  1  0
  6 14  2  0
  7 12  1  0
  7  8  1  0
  8  9  1  0
  8 22  1  0
  8 23  1  0
  9 13  1  0
  9 10  1  0
  9 24  1  1
 10 11  1  0
 10 25  1  0
 10 26  1  0
 11 12  1  0
 11 27  1  0
 11 28  1  0
 12 13  1  0
 12 29  1  1
 13 30  1  0
 13 31  1  0
 14 15  1  0
 15 16  2  0
 15 32  1  0
 16 17  1  0
M  END
>  <i_m_ct_stereo_status>  (19) 
1

>  <s_m_source_file>  (19) 
/var/tmp/pbs.5076255.sched01/tmpbmel7479/053vx75p8.sdf

>  <i_m_source_file_index>  (19) 
8

>  <i_lp_mmshare_version>  (19) 
48012

>  <i_f3d_flags>  (19) 
0

>  <s_epik_input>  (19) 
W2NIXTFubihbQ0gzXSljKGMxMiluW2NIXW5jMk4oW0NIMl1bQ0BASF0zNClbQ0BASF0oW0NIMl00KVtDSDJdW0NIMl0z

>  <s_epik_cmdline>  (19) 
J2VwaWtfcHl0aG9uJywgJy1waHQnLCAnMi4wJywgJy1waCcsICc3LjAnLCAnLXRuJywgJzgnLCAnLW1hJywgJzIwMCcsICctaW1hZScsICc8aW5maWxlLm1hZT4nLCAnLW9tYWUnLCAnPG91dGZpbGUubWFlPic=

>  <r_epik_Ionization_Penalty>  (19) 
0.0261461

>  <r_epik_Ionization_Penalty_Charging>  (19) 
0

>  <r_epik_Ionization_Penalty_Neutral>  (19) 
0.0261461

>  <r_epik_State_Penalty>  (19) 
0.0210615

>  <r_epik_Charging_Adjusted_Penalty>  (19) 
0.0210615

>  <i_epik_Tot_Q>  (19) 
0

>  <i_epik_Tot_abs_Q>  (19) 
0

>  <s_lp_Force_Field>  (19) 
OPLS3e

>  <r_lp_Energy>  (19) 
35.1421

>  <b_lp_Chiralities_Consistent>  (19) 
1

>  <s_lp_Variant>  (19) 
6:0-1

>  <s_i_glide_gridfile>  (19) 
pfpi4k_grid

>  <i_i_glide_lignum>  (19) 
8

>  <i_i_glide_rotatable_bonds>  (19) 
1

>  <r_i_docking_score>  (19) 
-2.89654

>  <r_i_glide_ligand_efficiency>  (19) 
-0.170385

>  <r_i_glide_ligand_efficiency_sa>  (19) 
-0.438108

>  <r_i_glide_ligand_efficiency_ln>  (19) 
-0.755644

>  <r_i_glide_gscore>  (19) 
-2.89654

>  <r_i_glide_lipo>  (19) 
-0.0561615

>  <r_i_glide_hbond>  (19) 
-0.158086

>  <r_i_glide_metal>  (19) 
-0

>  <r_i_glide_rewards>  (19) 
-1.84583

>  <r_i_glide_evdw>  (19) 
-17.9572

>  <r_i_glide_ecoul>  (19) 
-0.981222

>  <r_i_glide_erotb>  (19) 
0.324512

>  <r_i_glide_esite>  (19) 
-0.115936

>  <r_i_glide_emodel>  (19) 
-22.4696

>  <r_i_glide_energy>  (19) 
-18.9384

>  <r_i_glide_einternal>  (19) 
0.251511

>  <r_i_glide_intrahb_reward>  (19) 
-0

>  <i_i_glide_confnum>  (19) 
1

>  <i_i_glide_posenum>  (19) 
23

>  <r_i_glide_eff_state_penalty>  (19) 
0

>  <ligand_id>  (19) 
6

>  <original_smiles>  (19) 
Cn1ncc2c(N3CC4CCC3C4)ncnc21

>  <smiles>  (19) 
[H]c1nc(N2C([H])([H])C3([H])C([H])([H])C([H])([H])C2([H])C3([H])[H])c2c([H])nn(C([H])([H])[H])c2n1

$$$$
6:0:1
     RDKit          3D

 32 35  0  0  1  0  0  0  0  0999 V2000
    3.3008   -1.5128    1.3136 C   0  0  0  0  0  0  0  0  0  0  0  0
    2.3969   -0.6182    2.0070 N   0  0  0  0  0  0  0  0  0  0  0  0
    2.4152    0.7014    1.6840 N   0  0  0  0  0  0  0  0  0  0  0  0
    1.4915    1.2684    2.4213 C   0  0  0  0  0  0  0  0  0  0  0  0
    0.8391    0.3202    3.2820 C   0  0  0  0  0  0  0  0  0  0  0  0
   -0.1697    0.2791    4.2756 C   0  0  0  0  0  0  0  0  0  0  0  0
   -0.9086    1.4013    4.6839 N   0  0  0  0  0  0  0  0  0  0  0  0
   -1.7179    1.5018    5.8886 C   0  0  0  0  0  0  0  0  0  0  0  0
   -2.1918    2.9698    5.8219 C   0  0  1  0  0  0  0  0  0  0  0  0
   -0.9911    3.9010    6.1023 C   0  0  0  0  0  0  0  0  0  0  0  0
   -0.1200    3.7103    4.8415 C   0  0  0  0  0  0  0  0  0  0  0  0
   -0.9449    2.6982    4.0208 C   0  0  2  0  0  0  0  0  0  0  0  0
   -2.3694    3.1488    4.3139 C   0  0  0  0  0  0  0  0  0  0  0  0
   -0.4461   -0.9123    4.8634 N   0  0  0  0  0  0  0  0  0  0  0  0
    0.2249   -2.0035    4.4817 C   0  0  0  0  0  0  0  0  0  0  0  0
    1.1819   -2.1207    3.5613 N   0  0  0  0  0  0  0  0  0  0  0  0
    1.4602   -0.9157    2.9865 C   0  0  0  0  0  0  0  0  0  0  0  0
    3.7833   -2.1756    2.0313 H   0  0  0  0  0  0  0  0  0  0  0  0
    4.0641   -0.9429    0.7826 H   0  0  0  0  0  0  0  0  0  0  0  0
    2.7373   -2.1074    0.5942 H   0  0  0  0  0  0  0  0  0  0  0  0
    1.3229    2.3298    2.3232 H   0  0  0  0  0  0  0  0  0  0  0  0
   -2.5554    0.8064    5.8312 H   0  0  0  0  0  0  0  0  0  0  0  0
   -1.1417    1.2960    6.7910 H   0  0  0  0  0  0  0  0  0  0  0  0
   -3.0757    3.1862    6.4227 H   0  0  0  0  0  0  0  0  0  0  0  0
   -1.3095    4.9396    6.1948 H   0  0  0  0  0  0  0  0  0  0  0  0
   -0.4589    3.6268    7.0139 H   0  0  0  0  0  0  0  0  0  0  0  0
   -0.0212    4.6499    4.2984 H   0  0  0  0  0  0  0  0  0  0  0  0
    0.8858    3.3489    5.0690 H   0  0  0  0  0  0  0  0  0  0  0  0
   -0.7195    2.6694    2.9573 H   0  0  0  0  0  0  0  0  0  0  0  0
   -3.1194    2.4865    3.8749 H   0  0  0  0  0  0  0  0  0  0  0  0
   -2.5660    4.1756    4.0045 H   0  0  0  0  0  0  0  0  0  0  0  0
   -0.0549   -2.9215    4.9762 H   0  0  0  0  0  0  0  0  0  0  0  0
  1  2  1  0
  1 18  1  0
  1 19  1  0
  1 20  1  0
  2 17  1  0
  2  3  1  0
  3  4  2  0
  4  5  1  0
  4 21  1  0
  5 17  2  0
  5  6  1  0
  6  7  1  0
  6 14  2  0
  7 12  1  0
  7  8  1  0
  8  9  1  0
  8 22  1  0
  8 23  1  0
  9 13  1  0
  9 10  1  0
  9 24  1  1
 10 11  1  0
 10 25  1  0
 10 26  1  0
 11 12  1  0
 11 27  1  0
 11 28  1  0
 12 13  1  0
 12 29  1  6
 13 30  1  0
 13 31  1  0
 14 15  1  0
 15 16  2  0
 15 32  1  0
 16 17  1  0
M  END
>  <i_m_ct_stereo_status>  (20) 
1

>  <s_m_source_file>  (20) 
/var/tmp/pbs.5076255.sched01/tmpbmel7479/053vx75p8.sdf

>  <i_m_source_file_index>  (20) 
8

>  <i_lp_mmshare_version>  (20) 
48012

>  <i_f3d_flags>  (20) 
0

>  <s_epik_input>  (20) 
W2NIXTFubihbQ0gzXSljKGMxMiluW2NIXW5jMk4oW0NIMl1bQ0BASF0zNClbQ0BASF0oW0NIMl00KVtDSDJdW0NIMl0z

>  <s_epik_cmdline>  (20) 
J2VwaWtfcHl0aG9uJywgJy1waHQnLCAnMi4wJywgJy1waCcsICc3LjAnLCAnLXRuJywgJzgnLCAnLW1hJywgJzIwMCcsICctaW1hZScsICc8aW5maWxlLm1hZT4nLCAnLW9tYWUnLCAnPG91dGZpbGUubWFlPic=

>  <r_epik_Ionization_Penalty>  (20) 
0.0261461

>  <r_epik_Ionization_Penalty_Charging>  (20) 
0

>  <r_epik_Ionization_Penalty_Neutral>  (20) 
0.0261461

>  <r_epik_State_Penalty>  (20) 
0.0210615

>  <r_epik_Charging_Adjusted_Penalty>  (20) 
0.0210615

>  <i_epik_Tot_Q>  (20) 
0

>  <i_epik_Tot_abs_Q>  (20) 
0

>  <s_lp_Force_Field>  (20) 
OPLS3e

>  <r_lp_Energy>  (20) 
35.1421

>  <b_lp_Chiralities_Consistent>  (20) 
1

>  <s_lp_Variant>  (20) 
6:0-1

>  <s_i_glide_gridfile>  (20) 
pfpi4k_grid

>  <i_i_glide_lignum>  (20) 
8

>  <i_i_glide_rotatable_bonds>  (20) 
1

>  <r_i_docking_score>  (20) 
-2.63741

>  <r_i_glide_ligand_efficiency>  (20) 
-0.155141

>  <r_i_glide_ligand_efficiency_sa>  (20) 
-0.398912

>  <r_i_glide_ligand_efficiency_ln>  (20) 
-0.68804

>  <r_i_glide_gscore>  (20) 
-2.63741

>  <r_i_glide_lipo>  (20) 
-0.0464446

>  <r_i_glide_hbond>  (20) 
0

>  <r_i_glide_metal>  (20) 
-0

>  <r_i_glide_rewards>  (20) 
-1.89007

>  <r_i_glide_evdw>  (20) 
-17.9531

>  <r_i_glide_ecoul>  (20) 
-0.325882

>  <r_i_glide_erotb>  (20) 
0.324512

>  <r_i_glide_esite>  (20) 
-0.078868

>  <r_i_glide_emodel>  (20) 
-21.386

>  <r_i_glide_energy>  (20) 
-18.279

>  <r_i_glide_einternal>  (20) 
0.507557

>  <r_i_glide_intrahb_reward>  (20) 
-0

>  <i_i_glide_confnum>  (20) 
4

>  <i_i_glide_posenum>  (20) 
2

>  <r_i_glide_eff_state_penalty>  (20) 
0

>  <ligand_id>  (20) 
6

>  <original_smiles>  (20) 
Cn1ncc2c(N3CC4CCC3C4)ncnc21

>  <smiles>  (20) 
[H]c1nc(N2C([H])([H])C3([H])C([H])([H])C([H])([H])C2([H])C3([H])[H])c2c([H])nn(C([H])([H])[H])c2n1

$$$$
6:0:2
     RDKit          3D

 32 35  0  0  1  0  0  0  0  0999 V2000
    4.1527   -1.9165    1.5293 C   0  0  0  0  0  0  0  0  0  0  0  0
    3.1125   -0.9938    1.9337 N   0  0  0  0  0  0  0  0  0  0  0  0
    3.1398    0.2662    1.4334 N   0  0  0  0  0  0  0  0  0  0  0  0
    2.0984    0.8801    1.9383 C   0  0  0  0  0  0  0  0  0  0  0  0
    1.3433    0.0249    2.8117 C   0  0  0  0  0  0  0  0  0  0  0  0
    0.1868    0.0623    3.6312 C   0  0  0  0  0  0  0  0  0  0  0  0
   -0.6567    1.1801    3.7483 N   0  0  0  0  0  0  0  0  0  0  0  0
   -1.7583    1.3269    4.6880 C   0  0  0  0  0  0  0  0  0  0  0  0
   -2.2236    2.7723    4.4002 C   0  0  1  0  0  0  0  0  0  0  0  0
   -1.1530    3.7613    4.9164 C   0  0  0  0  0  0  0  0  0  0  0  0
    0.0225    3.5175    3.9431 C   0  0  0  0  0  0  0  0  0  0  0  0
   -0.5461    2.4313    3.0083 C   0  0  2  0  0  0  0  0  0  0  0  0
   -2.0012    2.8564    2.8902 C   0  0  0  0  0  0  0  0  0  0  0  0
   -0.1394   -1.0547    4.3297 N   0  0  0  0  0  0  0  0  0  0  0  0
    0.6167   -2.1505    4.2092 C   0  0  0  0  0  0  0  0  0  0  0  0
    1.7096   -2.3377    3.4719 N   0  0  0  0  0  0  0  0  0  0  0  0
    2.0388   -1.2061    2.7870 C   0  0  0  0  0  0  0  0  0  0  0  0
    4.5332   -2.4406    2.4058 H   0  0  0  0  0  0  0  0  0  0  0  0
    4.9704   -1.3730    1.0528 H   0  0  0  0  0  0  0  0  0  0  0  0
    3.7389   -2.6363    0.8226 H   0  0  0  0  0  0  0  0  0  0  0  0
    1.9233    1.9092    1.6676 H   0  0  0  0  0  0  0  0  0  0  0  0
   -2.5439    0.6025    4.4653 H   0  0  0  0  0  0  0  0  0  0  0  0
   -1.4406    1.1963    5.7234 H   0  0  0  0  0  0  0  0  0  0  0  0
   -3.2398    2.9954    4.7271 H   0  0  0  0  0  0  0  0  0  0  0  0
   -1.5006    4.7930    4.8405 H   0  0  0  0  0  0  0  0  0  0  0  0
   -0.8753    3.5631    5.9527 H   0  0  0  0  0  0  0  0  0  0  0  0
    0.2463    4.4205    3.3755 H   0  0  0  0  0  0  0  0  0  0  0  0
    0.9391    3.2017    4.4494 H   0  0  0  0  0  0  0  0  0  0  0  0
   -0.0670    2.3511    2.0370 H   0  0  0  0  0  0  0  0  0  0  0  0
   -2.5954    2.1473    2.3101 H   0  0  0  0  0  0  0  0  0  0  0  0
   -2.1175    3.8565    2.4704 H   0  0  0  0  0  0  0  0  0  0  0  0
    0.2922   -3.0085    4.7796 H   0  0  0  0  0  0  0  0  0  0  0  0
  1  2  1  0
  1 18  1  0
  1 19  1  0
  1 20  1  0
  2 17  1  0
  2  3  1  0
  3  4  2  0
  4  5  1  0
  4 21  1  0
  5 17  2  0
  5  6  1  0
  6  7  1  0
  6 14  2  0
  7 12  1  0
  7  8  1  0
  8  9  1  0
  8 22  1  0
  8 23  1  0
  9 13  1  0
  9 10  1  0
  9 24  1  6
 10 11  1  0
 10 25  1  0
 10 26  1  0
 11 12  1  0
 11 27  1  0
 11 28  1  0
 12 13  1  0
 12 29  1  6
 13 30  1  0
 13 31  1  0
 14 15  1  0
 15 16  2  0
 15 32  1  0
 16 17  1  0
M  END
>  <i_m_ct_stereo_status>  (21) 
1

>  <s_m_source_file>  (21) 
/var/tmp/pbs.5076255.sched01/tmpbmel7479/053vx75p8.sdf

>  <i_m_source_file_index>  (21) 
8

>  <i_lp_mmshare_version>  (21) 
48012

>  <i_f3d_flags>  (21) 
0

>  <s_epik_input>  (21) 
W2NIXTFubihbQ0gzXSljKGMxMiluW2NIXW5jMk4oW0NIMl1bQ0BASF0zNClbQ0BASF0oW0NIMl00KVtDSDJdW0NIMl0z

>  <s_epik_cmdline>  (21) 
J2VwaWtfcHl0aG9uJywgJy1waHQnLCAnMi4wJywgJy1waCcsICc3LjAnLCAnLXRuJywgJzgnLCAnLW1hJywgJzIwMCcsICctaW1hZScsICc8aW5maWxlLm1hZT4nLCAnLW9tYWUnLCAnPG91dGZpbGUubWFlPic=

>  <r_epik_Ionization_Penalty>  (21) 
0.0261461

>  <r_epik_Ionization_Penalty_Charging>  (21) 
0

>  <r_epik_Ionization_Penalty_Neutral>  (21) 
0.0261461

>  <r_epik_State_Penalty>  (21) 
0.0210615

>  <r_epik_Charging_Adjusted_Penalty>  (21) 
0.0210615

>  <i_epik_Tot_Q>  (21) 
0

>  <i_epik_Tot_abs_Q>  (21) 
0

>  <s_lp_Force_Field>  (21) 
OPLS3e

>  <r_lp_Energy>  (21) 
35.1421

>  <b_lp_Chiralities_Consistent>  (21) 
1

>  <s_lp_Variant>  (21) 
6:0-1

>  <s_i_glide_gridfile>  (21) 
pfpi4k_grid

>  <i_i_glide_lignum>  (21) 
8

>  <i_i_glide_rotatable_bonds>  (21) 
1

>  <r_i_docking_score>  (21) 
-2.62392

>  <r_i_glide_ligand_efficiency>  (21) 
-0.154348

>  <r_i_glide_ligand_efficiency_sa>  (21) 
-0.396872

>  <r_i_glide_ligand_efficiency_ln>  (21) 
-0.684521

>  <r_i_glide_gscore>  (21) 
-2.62392

>  <r_i_glide_lipo>  (21) 
0

>  <r_i_glide_hbond>  (21) 
0

>  <r_i_glide_metal>  (21) 
-0

>  <r_i_glide_rewards>  (21) 
-1.8873

>  <r_i_glide_evdw>  (21) 
-18.6553

>  <r_i_glide_ecoul>  (21) 
-0.451247

>  <r_i_glide_erotb>  (21) 
0.324512

>  <r_i_glide_esite>  (21) 
-0.0606716

>  <r_i_glide_emodel>  (21) 
-22.249

>  <r_i_glide_energy>  (21) 
-19.1066

>  <r_i_glide_einternal>  (21) 
0.318814

>  <r_i_glide_intrahb_reward>  (21) 
-0

>  <i_i_glide_confnum>  (21) 
4

>  <i_i_glide_posenum>  (21) 
32

>  <r_i_glide_eff_state_penalty>  (21) 
0

>  <ligand_id>  (21) 
6

>  <original_smiles>  (21) 
Cn1ncc2c(N3CC4CCC3C4)ncnc21

>  <smiles>  (21) 
[H]c1nc(N2C([H])([H])C3([H])C([H])([H])C([H])([H])C2([H])C3([H])[H])c2c([H])nn(C([H])([H])[H])c2n1

$$$$
6:1:0
     RDKit          3D

 33 36  0  0  1  0  0  0  0  0999 V2000
    4.2790   -6.7335    3.2583 C   0  0  0  0  0  0  0  0  0  0  0  0
    4.2168   -6.0453    1.9829 N   0  0  0  0  0  0  0  0  0  0  0  0
    4.8273   -6.6129    0.9122 N   0  0  0  0  0  0  0  0  0  0  0  0
    4.6220   -5.8005   -0.0923 C   0  0  0  0  0  0  0  0  0  0  0  0
    3.8619   -4.6438    0.2917 C   0  0  0  0  0  0  0  0  0  0  0  0
    3.3064   -3.4618   -0.2639 C   0  0  0  0  0  0  0  0  0  0  0  0
    3.3995   -3.0947   -1.6227 N   0  0  0  0  0  0  0  0  0  0  0  0
    2.6160   -2.0705   -2.2980 C   0  0  0  0  0  0  0  0  0  0  0  0
    3.2035   -2.0860   -3.7202 C   0  0  1  0  0  0  0  0  0  0  0  0
    4.6108   -1.4804   -3.6688 C   0  0  0  0  0  0  0  0  0  0  0  0
    5.4072   -2.5582   -2.8938 C   0  0  0  0  0  0  0  0  0  0  0  0
    4.3285   -3.6192   -2.6100 C   0  0  2  0  0  0  0  0  0  0  0  0
    3.4994   -3.5730   -3.8871 C   0  0  0  0  0  0  0  0  0  0  0  0
    2.6092   -2.6376    0.5655 N   0  0  0  0  0  0  0  0  0  0  0  0
    2.4543   -2.9041    1.8734 C   0  0  0  0  0  0  0  0  0  0  0  0
    2.9047   -4.0051    2.4841 N   0  0  0  0  0  0  0  0  0  0  0  0
    3.6065   -4.8387    1.6692 C   0  0  0  0  0  0  0  0  0  0  0  0
    4.7309   -6.0773    4.0023 H   0  0  0  0  0  0  0  0  0  0  0  0
    4.8820   -7.6401    3.1732 H   0  0  0  0  0  0  0  0  0  0  0  0
    3.2726   -7.0059    3.5776 H   0  0  0  0  0  0  0  0  0  0  0  0
    5.0159   -6.0816   -1.0564 H   0  0  0  0  0  0  0  0  0  0  0  0
    1.5746   -2.3822   -2.3215 H   0  0  0  0  0  0  0  0  0  0  0  0
    2.6999   -1.0825   -1.8369 H   0  0  0  0  0  0  0  0  0  0  0  0
    2.5514   -1.6456   -4.4757 H   0  0  0  0  0  0  0  0  0  0  0  0
    4.9973   -1.3385   -4.6781 H   0  0  0  0  0  0  0  0  0  0  0  0
    4.6163   -0.5136   -3.1645 H   0  0  0  0  0  0  0  0  0  0  0  0
    6.1879   -2.9974   -3.5135 H   0  0  0  0  0  0  0  0  0  0  0  0
    5.8614   -2.1728   -1.9790 H   0  0  0  0  0  0  0  0  0  0  0  0
    4.7304   -4.6045   -2.4090 H   0  0  0  0  0  0  0  0  0  0  0  0
    2.6043   -4.2025   -3.8613 H   0  0  0  0  0  0  0  0  0  0  0  0
    4.0944   -3.8228   -4.7606 H   0  0  0  0  0  0  0  0  0  0  0  0
    1.8642   -2.1956    2.4457 H   0  0  0  0  0  0  0  0  0  0  0  0
    2.1474   -1.8037    0.1635 H   0  0  0  0  0  0  0  0  0  0  0  0
  1  2  1  0
  1 18  1  0
  1 19  1  0
  1 20  1  0
  2 17  1  0
  2  3  1  0
  3  4  2  0
  4  5  1  0
  4 21  1  0
  5 17  2  0
  5  6  1  0
  6  7  1  0
  6 14  2  0
  7 12  1  0
  7  8  1  0
  8  9  1  0
  8 22  1  0
  8 23  1  0
  9 13  1  0
  9 10  1  0
  9 24  1  6
 10 11  1  0
 10 25  1  0
 10 26  1  0
 11 12  1  0
 11 27  1  0
 11 28  1  0
 12 13  1  0
 12 29  1  1
 13 30  1  0
 13 31  1  0
 14 15  1  0
 14 33  1  0
 15 16  2  0
 15 32  1  0
 16 17  1  0
M  CHG  1  14   1
M  END
>  <i_m_ct_stereo_status>  (22) 
1

>  <s_m_source_file>  (22) 
/var/tmp/pbs.5076255.sched01/tmpbmel7479/053vx75p8.sdf

>  <i_m_source_file_index>  (22) 
9

>  <i_lp_mmshare_version>  (22) 
48012

>  <i_f3d_flags>  (22) 
0

>  <s_epik_input>  (22) 
W2NIXTFubihbQ0gzXSljKGMxMiluW2NIXW5jMk4oW0NIMl1bQ0BASF0zNClbQ0BASF0oW0NIMl00KVtDSDJdW0NIMl0z

>  <s_epik_cmdline>  (22) 
J2VwaWtfcHl0aG9uJywgJy1waHQnLCAnMi4wJywgJy1waCcsICc3LjAnLCAnLXRuJywgJzgnLCAnLW1hJywgJzIwMCcsICctaW1hZScsICc8aW5maWxlLm1hZT4nLCAnLW9tYWUnLCAnPG91dGZpbGUubWFlPic=

>  <r_epik_Ionization_Penalty>  (22) 
1.88672

>  <r_epik_Ionization_Penalty_Charging>  (22) 
1.88672

>  <r_epik_Ionization_Penalty_Neutral>  (22) 
5.49416e-06

>  <r_epik_State_Penalty>  (22) 
2.00761

>  <r_epik_Charging_Adjusted_Penalty>  (22) 
3.89433

>  <i_epik_Tot_Q>  (22) 
1

>  <i_epik_Tot_abs_Q>  (22) 
1

>  <s_lp_Force_Field>  (22) 
OPLS3e

>  <r_lp_Energy>  (22) 
49.3094

>  <b_lp_Chiralities_Consistent>  (22) 
1

>  <s_lp_Variant>  (22) 
6:0-2

>  <s_i_glide_gridfile>  (22) 
pfpi4k_grid

>  <i_i_glide_lignum>  (22) 
9

>  <i_i_glide_rotatable_bonds>  (22) 
1

>  <r_i_docking_score>  (22) 
-4.08776

>  <r_i_glide_ligand_efficiency>  (22) 
-0.240456

>  <r_i_glide_ligand_efficiency_sa>  (22) 
-0.618281

>  <r_i_glide_ligand_efficiency_ln>  (22) 
-1.0664

>  <r_i_glide_gscore>  (22) 
-4.08776

>  <r_i_glide_lipo>  (22) 
-0.466588

>  <r_i_glide_hbond>  (22) 
-0.2

>  <r_i_glide_metal>  (22) 
-0

>  <r_i_glide_rewards>  (22) 
-1.88843

>  <r_i_glide_evdw>  (22) 
-16.8682

>  <r_i_glide_ecoul>  (22) 
-6.24105

>  <r_i_glide_erotb>  (22) 
0.322106

>  <r_i_glide_esite>  (22) 
-0.0752734

>  <r_i_glide_emodel>  (22) 
-30.7599

>  <r_i_glide_energy>  (22) 
-23.1092

>  <r_i_glide_einternal>  (22) 
0.848826

>  <r_i_glide_intrahb_reward>  (22) 
-0

>  <i_i_glide_confnum>  (22) 
2

>  <i_i_glide_posenum>  (22) 
12

>  <r_i_glide_eff_state_penalty>  (22) 
0

>  <ligand_id>  (22) 
6

>  <original_smiles>  (22) 
Cn1ncc2c(N3CC4CCC3C4)ncnc21

>  <smiles>  (22) 
[H]c1nn(C([H])([H])[H])c2nc([H])[n+]([H])c(N3C([H])([H])C4([H])C([H])([H])C([H])([H])C3([H])C4([H])[H])c12

$$$$
6:1:1
     RDKit          3D

 33 36  0  0  1  0  0  0  0  0999 V2000
    8.5012  -12.7461    4.2361 C   0  0  0  0  0  0  0  0  0  0  0  0
    7.1468  -12.2688    4.0120 N   0  0  0  0  0  0  0  0  0  0  0  0
    6.8006  -11.8144    2.7790 N   0  0  0  0  0  0  0  0  0  0  0  0
    5.5414  -11.4547    2.8661 C   0  0  0  0  0  0  0  0  0  0  0  0
    5.0127  -11.6608    4.1786 C   0  0  0  0  0  0  0  0  0  0  0  0
    3.8086  -11.4927    4.9067 C   0  0  0  0  0  0  0  0  0  0  0  0
    2.6088  -11.0122    4.3502 N   0  0  0  0  0  0  0  0  0  0  0  0
    1.5107  -10.3945    5.0818 C   0  0  0  0  0  0  0  0  0  0  0  0
    0.5388  -10.0190    3.9455 C   0  0  1  0  0  0  0  0  0  0  0  0
    1.1306   -8.8549    3.1283 C   0  0  0  0  0  0  0  0  0  0  0  0
    2.3248   -9.5270    2.4200 C   0  0  0  0  0  0  0  0  0  0  0  0
    2.2506  -10.9781    2.9377 C   0  0  2  0  0  0  0  0  0  0  0  0
    0.7388  -11.1966    2.9995 C   0  0  0  0  0  0  0  0  0  0  0  0
    3.8132  -11.8297    6.2244 N   0  0  0  0  0  0  0  0  0  0  0  0
    4.8948  -12.3421    6.8299 C   0  0  0  0  0  0  0  0  0  0  0  0
    6.0749  -12.5471    6.2284 N   0  0  0  0  0  0  0  0  0  0  0  0
    6.0920  -12.1973    4.9168 C   0  0  0  0  0  0  0  0  0  0  0  0
    8.9646  -12.1793    5.0434 H   0  0  0  0  0  0  0  0  0  0  0  0
    9.1052  -12.6310    3.3349 H   0  0  0  0  0  0  0  0  0  0  0  0
    8.4773  -13.8002    4.5116 H   0  0  0  0  0  0  0  0  0  0  0  0
    5.0438  -11.0570    1.9940 H   0  0  0  0  0  0  0  0  0  0  0  0
    1.0465  -11.1105    5.7552 H   0  0  0  0  0  0  0  0  0  0  0  0
    1.8339   -9.5259    5.6558 H   0  0  0  0  0  0  0  0  0  0  0  0
   -0.4869   -9.8522    4.2710 H   0  0  0  0  0  0  0  0  0  0  0  0
    0.4048   -8.4850    2.4023 H   0  0  0  0  0  0  0  0  0  0  0  0
    1.4413   -8.0230    3.7596 H   0  0  0  0  0  0  0  0  0  0  0  0
    2.1829   -9.5015    1.3381 H   0  0  0  0  0  0  0  0  0  0  0  0
    3.2795   -9.0501    2.6463 H   0  0  0  0  0  0  0  0  0  0  0  0
    2.7839  -11.7128    2.3401 H   0  0  0  0  0  0  0  0  0  0  0  0
    0.4637  -12.1602    3.4357 H   0  0  0  0  0  0  0  0  0  0  0  0
    0.2173  -11.0656    2.0492 H   0  0  0  0  0  0  0  0  0  0  0  0
    4.7712  -12.6193    7.8683 H   0  0  0  0  0  0  0  0  0  0  0  0
    2.9228  -11.7967    6.7501 H   0  0  0  0  0  0  0  0  0  0  0  0
  1  2  1  0
  1 18  1  0
  1 19  1  0
  1 20  1  0
  2 17  1  0
  2  3  1  0
  3  4  2  0
  4  5  1  0
  4 21  1  0
  5 17  2  0
  5  6  1  0
  6  7  1  0
  6 14  2  0
  7 12  1  0
  7  8  1  0
  8  9  1  0
  8 22  1  0
  8 23  1  0
  9 13  1  0
  9 10  1  0
  9 24  1  1
 10 11  1  0
 10 25  1  0
 10 26  1  0
 11 12  1  0
 11 27  1  0
 11 28  1  0
 12 13  1  0
 12 29  1  6
 13 30  1  0
 13 31  1  0
 14 15  1  0
 14 33  1  0
 15 16  2  0
 15 32  1  0
 16 17  1  0
M  CHG  1  14   1
M  END
>  <i_m_ct_stereo_status>  (23) 
1

>  <s_m_source_file>  (23) 
/var/tmp/pbs.5076255.sched01/tmpbmel7479/053vx75p8.sdf

>  <i_m_source_file_index>  (23) 
9

>  <i_lp_mmshare_version>  (23) 
48012

>  <i_f3d_flags>  (23) 
0

>  <s_epik_input>  (23) 
W2NIXTFubihbQ0gzXSljKGMxMiluW2NIXW5jMk4oW0NIMl1bQ0BASF0zNClbQ0BASF0oW0NIMl00KVtDSDJdW0NIMl0z

>  <s_epik_cmdline>  (23) 
J2VwaWtfcHl0aG9uJywgJy1waHQnLCAnMi4wJywgJy1waCcsICc3LjAnLCAnLXRuJywgJzgnLCAnLW1hJywgJzIwMCcsICctaW1hZScsICc8aW5maWxlLm1hZT4nLCAnLW9tYWUnLCAnPG91dGZpbGUubWFlPic=

>  <r_epik_Ionization_Penalty>  (23) 
1.88672

>  <r_epik_Ionization_Penalty_Charging>  (23) 
1.88672

>  <r_epik_Ionization_Penalty_Neutral>  (23) 
5.49416e-06

>  <r_epik_State_Penalty>  (23) 
2.00761

>  <r_epik_Charging_Adjusted_Penalty>  (23) 
3.89433

>  <i_epik_Tot_Q>  (23) 
1

>  <i_epik_Tot_abs_Q>  (23) 
1

>  <s_lp_Force_Field>  (23) 
OPLS3e

>  <r_lp_Energy>  (23) 
49.3094

>  <b_lp_Chiralities_Consistent>  (23) 
1

>  <s_lp_Variant>  (23) 
6:0-2

>  <s_i_glide_gridfile>  (23) 
pfpi4k_grid

>  <i_i_glide_lignum>  (23) 
9

>  <i_i_glide_rotatable_bonds>  (23) 
1

>  <r_i_docking_score>  (23) 
-3.68194

>  <r_i_glide_ligand_efficiency>  (23) 
-0.216585

>  <r_i_glide_ligand_efficiency_sa>  (23) 
-0.556901

>  <r_i_glide_ligand_efficiency_ln>  (23) 
-0.960537

>  <r_i_glide_gscore>  (23) 
-3.68194

>  <r_i_glide_lipo>  (23) 
-0.170008

>  <r_i_glide_hbond>  (23) 
-0.2

>  <r_i_glide_metal>  (23) 
-0

>  <r_i_glide_rewards>  (23) 
-1.83894

>  <r_i_glide_evdw>  (23) 
-14.2234

>  <r_i_glide_ecoul>  (23) 
-6.02707

>  <r_i_glide_erotb>  (23) 
0.322106

>  <r_i_glide_esite>  (23) 
-0.17987

>  <r_i_glide_emodel>  (23) 
-27.0765

>  <r_i_glide_energy>  (23) 
-20.2505

>  <r_i_glide_einternal>  (23) 
1.10702

>  <r_i_glide_intrahb_reward>  (23) 
-0

>  <i_i_glide_confnum>  (23) 
3

>  <i_i_glide_posenum>  (23) 
10

>  <r_i_glide_eff_state_penalty>  (23) 
0

>  <ligand_id>  (23) 
6

>  <original_smiles>  (23) 
Cn1ncc2c(N3CC4CCC3C4)ncnc21

>  <smiles>  (23) 
[H]c1nn(C([H])([H])[H])c2nc([H])[n+]([H])c(N3C([H])([H])C4([H])C([H])([H])C([H])([H])C3([H])C4([H])[H])c12

$$$$
6:1:2
     RDKit          3D

 33 36  0  0  1  0  0  0  0  0999 V2000
    2.9584   -3.2904    4.9605 C   0  0  0  0  0  0  0  0  0  0  0  0
    3.1214   -3.2881    3.5151 N   0  0  0  0  0  0  0  0  0  0  0  0
    2.9410   -4.4461    2.8224 N   0  0  0  0  0  0  0  0  0  0  0  0
    3.1489   -4.1550    1.5578 C   0  0  0  0  0  0  0  0  0  0  0  0
    3.4650   -2.7664    1.3751 C   0  0  0  0  0  0  0  0  0  0  0  0
    3.7764   -1.8409    0.3493 C   0  0  0  0  0  0  0  0  0  0  0  0
    3.8494   -2.1761   -1.0146 N   0  0  0  0  0  0  0  0  0  0  0  0
    3.4865   -3.4563   -1.6087 C   0  0  0  0  0  0  0  0  0  0  0  0
    3.7204   -3.1881   -3.1079 C   0  0  1  0  0  0  0  0  0  0  0  0
    2.6374   -2.2268   -3.6290 C   0  0  0  0  0  0  0  0  0  0  0  0
    3.0180   -0.9049   -2.9346 C   0  0  0  0  0  0  0  0  0  0  0  0
    4.2502   -1.2926   -2.1010 C   0  0  2  0  0  0  0  0  0  0  0  0
    4.9334   -2.2750   -3.0423 C   0  0  0  0  0  0  0  0  0  0  0  0
    4.0438   -0.5528    0.7028 N   0  0  0  0  0  0  0  0  0  0  0  0
    3.9820   -0.1457    1.9806 C   0  0  0  0  0  0  0  0  0  0  0  0
    3.6988   -0.9345    3.0231 N   0  0  0  0  0  0  0  0  0  0  0  0
    3.4449   -2.2261    2.6823 C   0  0  0  0  0  0  0  0  0  0  0  0
    3.8711   -2.9333    5.4376 H   0  0  0  0  0  0  0  0  0  0  0  0
    2.7454   -4.2973    5.3214 H   0  0  0  0  0  0  0  0  0  0  0  0
    2.1342   -2.6331    5.2381 H   0  0  0  0  0  0  0  0  0  0  0  0
    3.0726   -4.9410    0.8220 H   0  0  0  0  0  0  0  0  0  0  0  0
    4.1622   -4.2377   -1.2549 H   0  0  0  0  0  0  0  0  0  0  0  0
    2.4508   -3.7299   -1.4024 H   0  0  0  0  0  0  0  0  0  0  0  0
    3.8413   -4.0854   -3.7155 H   0  0  0  0  0  0  0  0  0  0  0  0
    2.7034   -2.1163   -4.7111 H   0  0  0  0  0  0  0  0  0  0  0  0
    1.6341   -2.5664   -3.3744 H   0  0  0  0  0  0  0  0  0  0  0  0
    3.2659   -0.1419   -3.6704 H   0  0  0  0  0  0  0  0  0  0  0  0
    2.2186   -0.4991   -2.3251 H   0  0  0  0  0  0  0  0  0  0  0  0
    4.8777   -0.4554   -1.8026 H   0  0  0  0  0  0  0  0  0  0  0  0
    5.8288   -2.7484   -2.6273 H   0  0  0  0  0  0  0  0  0  0  0  0
    5.1452   -1.8338   -4.0078 H   0  0  0  0  0  0  0  0  0  0  0  0
    4.1836    0.9031    2.1594 H   0  0  0  0  0  0  0  0  0  0  0  0
    4.2686    0.1231   -0.0287 H   0  0  0  0  0  0  0  0  0  0  0  0
  1  2  1  0
  1 18  1  0
  1 19  1  0
  1 20  1  0
  2 17  1  0
  2  3  1  0
  3  4  2  0
  4  5  1  0
  4 21  1  0
  5 17  2  0
  5  6  1  0
  6  7  1  0
  6 14  2  0
  7 12  1  0
  7  8  1  0
  8  9  1  0
  8 22  1  0
  8 23  1  0
  9 13  1  0
  9 10  1  0
  9 24  1  6
 10 11  1  0
 10 25  1  0
 10 26  1  0
 11 12  1  0
 11 27  1  0
 11 28  1  0
 12 13  1  0
 12 29  1  1
 13 30  1  0
 13 31  1  0
 14 15  1  0
 14 33  1  0
 15 16  2  0
 15 32  1  0
 16 17  1  0
M  CHG  1  14   1
M  END
>  <i_m_ct_stereo_status>  (24) 
1

>  <s_m_source_file>  (24) 
/var/tmp/pbs.5076255.sched01/tmpbmel7479/053vx75p8.sdf

>  <i_m_source_file_index>  (24) 
9

>  <i_lp_mmshare_version>  (24) 
48012

>  <i_f3d_flags>  (24) 
0

>  <s_epik_input>  (24) 
W2NIXTFubihbQ0gzXSljKGMxMiluW2NIXW5jMk4oW0NIMl1bQ0BASF0zNClbQ0BASF0oW0NIMl00KVtDSDJdW0NIMl0z

>  <s_epik_cmdline>  (24) 
J2VwaWtfcHl0aG9uJywgJy1waHQnLCAnMi4wJywgJy1waCcsICc3LjAnLCAnLXRuJywgJzgnLCAnLW1hJywgJzIwMCcsICctaW1hZScsICc8aW5maWxlLm1hZT4nLCAnLW9tYWUnLCAnPG91dGZpbGUubWFlPic=

>  <r_epik_Ionization_Penalty>  (24) 
1.88672

>  <r_epik_Ionization_Penalty_Charging>  (24) 
1.88672

>  <r_epik_Ionization_Penalty_Neutral>  (24) 
5.49416e-06

>  <r_epik_State_Penalty>  (24) 
2.00761

>  <r_epik_Charging_Adjusted_Penalty>  (24) 
3.89433

>  <i_epik_Tot_Q>  (24) 
1

>  <i_epik_Tot_abs_Q>  (24) 
1

>  <s_lp_Force_Field>  (24) 
OPLS3e

>  <r_lp_Energy>  (24) 
49.3094

>  <b_lp_Chiralities_Consistent>  (24) 
1

>  <s_lp_Variant>  (24) 
6:0-2

>  <s_i_glide_gridfile>  (24) 
pfpi4k_grid

>  <i_i_glide_lignum>  (24) 
9

>  <i_i_glide_rotatable_bonds>  (24) 
1

>  <r_i_docking_score>  (24) 
-3.32827

>  <r_i_glide_ligand_efficiency>  (24) 
-0.19578

>  <r_i_glide_ligand_efficiency_sa>  (24) 
-0.503407

>  <r_i_glide_ligand_efficiency_ln>  (24) 
-0.868271

>  <r_i_glide_gscore>  (24) 
-3.32827

>  <r_i_glide_lipo>  (24) 
-0.423259

>  <r_i_glide_hbond>  (24) 
0

>  <r_i_glide_metal>  (24) 
-0

>  <r_i_glide_rewards>  (24) 
-1.89736

>  <r_i_glide_evdw>  (24) 
-15.4859

>  <r_i_glide_ecoul>  (24) 
-3.41093

>  <r_i_glide_erotb>  (24) 
0.322106

>  <r_i_glide_esite>  (24) 
-0.0438212

>  <r_i_glide_emodel>  (24) 
-25.5287

>  <r_i_glide_energy>  (24) 
-18.8968

>  <r_i_glide_einternal>  (24) 
0.0529373

>  <r_i_glide_intrahb_reward>  (24) 
-0

>  <i_i_glide_confnum>  (24) 
3

>  <i_i_glide_posenum>  (24) 
19

>  <r_i_glide_eff_state_penalty>  (24) 
0

>  <ligand_id>  (24) 
6

>  <original_smiles>  (24) 
Cn1ncc2c(N3CC4CCC3C4)ncnc21

>  <smiles>  (24) 
[H]c1nn(C([H])([H])[H])c2nc([H])[n+]([H])c(N3C([H])([H])C4([H])C([H])([H])C([H])([H])C3([H])C4([H])[H])c12

$$$$
7:0:0
     RDKit          3D

 42 47  0  0  1  0  0  0  0  0999 V2000
    2.2319   -2.5729   -2.6584 C   0  0  0  0  0  0  0  0  0  0  0  0
    3.1600   -3.4219   -1.8801 N   0  0  1  0  0  0  0  0  0  0  0  0
    4.5645   -3.2448   -2.3268 C   0  0  0  0  0  0  0  0  0  0  0  0
    5.2728   -2.1085   -1.5659 C   0  0  0  0  0  0  0  0  0  0  0  0
    5.1125   -2.2543   -0.0252 C   0  0  1  0  0  0  0  0  0  0  0  0
    5.6621   -3.5932    0.3906 C   0  0  0  0  0  0  0  0  0  0  0  0
    4.9657   -4.8095    0.4267 C   0  0  0  0  0  0  0  0  0  0  0  0
    5.7220   -5.9550    0.7436 C   0  0  0  0  0  0  0  0  0  0  0  0
    7.1065   -5.8254    1.0009 C   0  0  0  0  0  0  0  0  0  0  0  0
    7.7338   -4.5480    1.0127 C   0  0  0  0  0  0  0  0  0  0  0  0
    9.0570   -4.4620    1.3320 O   0  0  0  0  0  0  0  0  0  0  0  0
    6.9885   -3.3912    0.7265 C   0  0  0  0  0  0  0  0  0  0  0  0
    7.3468   -2.0677    0.7423 O   0  0  0  0  0  0  0  0  0  0  0  0
    6.1175   -1.3138    0.7171 C   0  0  2  0  0  0  0  0  0  0  0  0
    5.7717   -0.9633    2.1879 C   0  0  0  0  0  0  0  0  0  0  0  0
    4.4884   -1.5741    2.7314 C   0  0  1  0  0  0  0  0  0  0  0  0
    3.3282   -0.8134    2.4240 O   0  0  0  0  0  0  0  0  0  0  0  0
    3.3802   -2.1215    1.8344 C   0  0  1  0  0  0  0  0  0  0  0  0
    3.6085   -2.1708    0.3208 C   0  0  1  0  0  0  0  0  0  0  0  0
    3.0241   -0.9831   -0.1578 O   0  0  0  0  0  0  0  0  0  0  0  0
    2.9434   -3.3952   -0.3911 C   0  0  2  0  0  0  0  0  0  0  0  0
    3.4585   -4.7162    0.2240 C   0  0  0  0  0  0  0  0  0  0  0  0
    2.4972   -1.5158   -2.5859 H   0  0  0  0  0  0  0  0  0  0  0  0
    1.2063   -2.6916   -2.3230 H   0  0  0  0  0  0  0  0  0  0  0  0
    2.2530   -2.8321   -3.7169 H   0  0  0  0  0  0  0  0  0  0  0  0
    5.1014   -4.1791   -2.2009 H   0  0  0  0  0  0  0  0  0  0  0  0
    4.6004   -3.0661   -3.4002 H   0  0  0  0  0  0  0  0  0  0  0  0
    6.3258   -2.1067   -1.8550 H   0  0  0  0  0  0  0  0  0  0  0  0
    4.8906   -1.1508   -1.9152 H   0  0  0  0  0  0  0  0  0  0  0  0
    5.2403   -6.9229    0.7781 H   0  0  0  0  0  0  0  0  0  0  0  0
    7.6836   -6.7079    1.2260 H   0  0  0  0  0  0  0  0  0  0  0  0
    9.2312   -3.7906    1.9783 H   0  0  0  0  0  0  0  0  0  0  0  0
    6.3019   -0.3964    0.1595 H   0  0  0  0  0  0  0  0  0  0  0  0
    6.5850   -1.2740    2.8425 H   0  0  0  0  0  0  0  0  0  0  0  0
    5.7163    0.1214    2.2997 H   0  0  0  0  0  0  0  0  0  0  0  0
    4.5191   -1.8770    3.7741 H   0  0  0  0  0  0  0  0  0  0  0  0
    2.6636   -2.8198    2.2627 H   0  0  0  0  0  0  0  0  0  0  0  0
    2.0629   -1.0590   -0.3117 H   0  0  0  0  0  0  0  0  0  0  0  0
    1.8698   -3.3598   -0.2236 H   0  0  0  0  0  0  0  0  0  0  0  0
    3.1332   -5.5733   -0.3580 H   0  0  0  0  0  0  0  0  0  0  0  0
    2.9940   -4.8732    1.1964 H   0  0  0  0  0  0  0  0  0  0  0  0
    2.9190   -4.3665   -2.1680 H   0  0  0  0  0  0  0  0  0  0  0  0
  1  2  1  0
  1 23  1  0
  1 24  1  0
  1 25  1  0
  2 21  1  0
  2  3  1  0
  2 42  1  6
  3  4  1  0
  3 26  1  0
  3 27  1  0
  5  4  1  6
  4 28  1  0
  4 29  1  0
  5 14  1  0
  5 19  1  0
  5  6  1  0
  6 12  2  0
  6  7  1  0
  7 22  1  0
  7  8  2  0
  8  9  1  0
  8 30  1  0
  9 10  2  0
  9 31  1  0
 10 11  1  0
 10 12  1  0
 11 32  1  0
 12 13  1  0
 13 14  1  0
 14 15  1  0
 14 33  1  6
 15 16  1  0
 15 34  1  0
 15 35  1  0
 16 18  1  0
 16 17  1  0
 16 36  1  1
 17 18  1  0
 18 19  1  0
 18 37  1  1
 19 20  1  6
 19 21  1  0
 20 38  1  0
 21 22  1  0
 21 39  1  6
 22 40  1  0
 22 41  1  0
M  CHG  1   2   1
M  END
>  <i_m_ct_stereo_status>  (25) 
1

>  <s_m_source_file>  (25) 
/var/tmp/pbs.5076255.sched01/tmpbmel7479/053vx75p8.sdf

>  <i_m_source_file_index>  (25) 
10

>  <i_lp_mmshare_version>  (25) 
48012

>  <i_f3d_flags>  (25) 
0

>  <s_epik_input>  (25) 
W0NIMl0xW0NIMl1OKFtDSDNdKVtDQEBIXShbQ0gyXTIpW0NAQF0zKFtPSF0pW0NASF0oTzQpW0NASF00W0NIMl1bQ0BIXTVPYzZjKFtPSF0pW2NIXVtjSF1jMmM2W0NAQF0xMzU=

>  <s_epik_cmdline>  (25) 
J2VwaWtfcHl0aG9uJywgJy1waHQnLCAnMi4wJywgJy1waCcsICc3LjAnLCAnLXRuJywgJzgnLCAnLW1hJywgJzIwMCcsICctaW1hZScsICc8aW5maWxlLm1hZT4nLCAnLW9tYWUnLCAnPG91dGZpbGUubWFlPic=

>  <r_lp_tautomer_probability>  (25) 
1

>  <r_epik_Ionization_Penalty>  (25) 
0.120272

>  <r_epik_Ionization_Penalty_Charging>  (25) 
0.105332

>  <r_epik_Ionization_Penalty_Neutral>  (25) 
0.0149402

>  <r_epik_State_Penalty>  (25) 
0.105199

>  <r_epik_Charging_Adjusted_Penalty>  (25) 
0.210531

>  <i_epik_Tot_Q>  (25) 
1

>  <i_epik_Tot_abs_Q>  (25) 
1

>  <s_lp_Force_Field>  (25) 
OPLS3e

>  <r_lp_Energy>  (25) 
62.0917

>  <b_lp_Chiralities_Consistent>  (25) 
1

>  <s_lp_Variant>  (25) 
7:0-1

>  <s_i_glide_gridfile>  (25) 
pfpi4k_grid

>  <i_i_glide_lignum>  (25) 
10

>  <i_i_glide_rotatable_bonds>  (25) 
2

>  <r_i_docking_score>  (25) 
-5.14858

>  <r_i_glide_ligand_efficiency>  (25) 
-0.234026

>  <r_i_glide_ligand_efficiency_sa>  (25) 
-0.655751

>  <r_i_glide_ligand_efficiency_ln>  (25) 
-1.2585

>  <r_i_glide_gscore>  (25) 
-5.14858

>  <r_i_glide_lipo>  (25) 
-0.823667

>  <r_i_glide_hbond>  (25) 
0

>  <r_i_glide_metal>  (25) 
-0

>  <r_i_glide_rewards>  (25) 
-1.34765

>  <r_i_glide_evdw>  (25) 
-13.8159

>  <r_i_glide_ecoul>  (25) 
-15.2431

>  <r_i_glide_erotb>  (25) 
0

>  <r_i_glide_esite>  (25) 
0

>  <r_i_glide_emodel>  (25) 
-37.4956

>  <r_i_glide_energy>  (25) 
-29.059

>  <r_i_glide_einternal>  (25) 
2.45052

>  <r_i_glide_intrahb_reward>  (25) 
-0

>  <i_i_glide_confnum>  (25) 
1

>  <i_i_glide_posenum>  (25) 
31

>  <r_i_glide_eff_state_penalty>  (25) 
0

>  <ligand_id>  (25) 
7

>  <original_smiles>  (25) 
CN1CCC23c4c5ccc(O)c4OC2CC2OC2C3(O)C1C5

>  <smiles>  (25) 
[H]Oc1c([H])c([H])c2c3c1OC1([H])C([H])([H])C4([H])OC4([H])C4(O[H])C31C([H])([H])C([H])([H])[N+]([H])(C([H])([H])[H])C4([H])C2([H])[H]

$$$$
7:0:1
     RDKit          3D

 42 47  0  0  1  0  0  0  0  0999 V2000
    2.1066   -2.7987   -3.9223 C   0  0  0  0  0  0  0  0  0  0  0  0
    2.8923   -3.4588   -2.8871 N   0  0  1  0  0  0  0  0  0  0  0  0
    4.2804   -3.7955   -3.2763 C   0  0  0  0  0  0  0  0  0  0  0  0
    5.2345   -2.7160   -2.8074 C   0  0  0  0  0  0  0  0  0  0  0  0
    5.0220   -2.4250   -1.2823 C   0  0  1  0  0  0  0  0  0  0  0  0
    5.2647   -3.6624   -0.4905 C   0  0  0  0  0  0  0  0  0  0  0  0
    4.3161   -4.6446   -0.1606 C   0  0  0  0  0  0  0  0  0  0  0  0
    4.8223   -5.7705    0.5040 C   0  0  0  0  0  0  0  0  0  0  0  0
    6.2051   -5.8482    0.8191 C   0  0  0  0  0  0  0  0  0  0  0  0
    7.0919   -4.7806    0.5155 C   0  0  0  0  0  0  0  0  0  0  0  0
    8.4065   -4.8378    0.8566 O   0  0  0  0  0  0  0  0  0  0  0  0
    6.6043   -3.6338   -0.1446 C   0  0  0  0  0  0  0  0  0  0  0  0
    7.2393   -2.4801   -0.4742 O   0  0  0  0  0  0  0  0  0  0  0  0
    6.1776   -1.5594   -0.7665 C   0  0  2  0  0  0  0  0  0  0  0  0
    5.9417   -0.7156    0.5173 C   0  0  0  0  0  0  0  0  0  0  0  0
    4.5699   -0.8664    1.1172 C   0  0  1  0  0  0  0  0  0  0  0  0
    3.6457    0.0236    0.5215 O   0  0  0  0  0  0  0  0  0  0  0  0
    3.3643   -1.3710    0.3134 C   0  0  1  0  0  0  0  0  0  0  0  0
    3.5882   -1.9097   -1.0892 C   0  0  1  0  0  0  0  0  0  0  0  0
    3.2863   -0.9052   -2.0219 O   0  0  0  0  0  0  0  0  0  0  0  0
    2.6700   -3.0851   -1.4672 C   0  0  2  0  0  0  0  0  0  0  0  0
    2.8703   -4.2562   -0.4730 C   0  0  0  0  0  0  0  0  0  0  0  0
    2.5498   -1.8464   -4.2178 H   0  0  0  0  0  0  0  0  0  0  0  0
    1.0716   -2.6570   -3.6342 H   0  0  0  0  0  0  0  0  0  0  0  0
    2.1021   -3.4610   -4.7816 H   0  0  0  0  0  0  0  0  0  0  0  0
    4.6504   -4.7224   -2.8447 H   0  0  0  0  0  0  0  0  0  0  0  0
    4.3449   -3.9569   -4.3537 H   0  0  0  0  0  0  0  0  0  0  0  0
    6.2557   -3.0335   -3.0230 H   0  0  0  0  0  0  0  0  0  0  0  0
    5.0480   -1.8289   -3.4240 H   0  0  0  0  0  0  0  0  0  0  0  0
    4.1491   -6.5736    0.7779 H   0  0  0  0  0  0  0  0  0  0  0  0
    6.5905   -6.7219    1.3038 H   0  0  0  0  0  0  0  0  0  0  0  0
    8.8263   -4.0039    0.7436 H   0  0  0  0  0  0  0  0  0  0  0  0
    6.4082   -0.9899   -1.6442 H   0  0  0  0  0  0  0  0  0  0  0  0
    6.6724   -0.9722    1.2825 H   0  0  0  0  0  0  0  0  0  0  0  0
    6.1095    0.3394    0.3178 H   0  0  0  0  0  0  0  0  0  0  0  0
    4.5157   -0.8491    2.2037 H   0  0  0  0  0  0  0  0  0  0  0  0
    2.5065   -1.7385    0.8710 H   0  0  0  0  0  0  0  0  0  0  0  0
    2.4260   -0.5776   -1.7806 H   0  0  0  0  0  0  0  0  0  0  0  0
    1.6234   -2.8276   -1.4075 H   0  0  0  0  0  0  0  0  0  0  0  0
    2.3004   -5.1446   -0.7294 H   0  0  0  0  0  0  0  0  0  0  0  0
    2.4252   -3.9770    0.4768 H   0  0  0  0  0  0  0  0  0  0  0  0
    2.4865   -4.3981   -2.8908 H   0  0  0  0  0  0  0  0  0  0  0  0
  1  2  1  0
  1 23  1  0
  1 24  1  0
  1 25  1  0
  2 21  1  0
  2  3  1  0
  2 42  1  1
  3  4  1  0
  3 26  1  0
  3 27  1  0
  5  4  1  6
  4 28  1  0
  4 29  1  0
  5 14  1  0
  5 19  1  0
  5  6  1  0
  6 12  2  0
  6  7  1  0
  7 22  1  0
  7  8  2  0
  8  9  1  0
  8 30  1  0
  9 10  2  0
  9 31  1  0
 10 11  1  0
 10 12  1  0
 11 32  1  0
 12 13  1  0
 13 14  1  0
 14 15  1  0
 14 33  1  6
 15 16  1  0
 15 34  1  0
 15 35  1  0
 16 18  1  0
 16 17  1  0
 16 36  1  1
 17 18  1  0
 18 19  1  0
 18 37  1  1
 19 20  1  6
 19 21  1  0
 20 38  1  0
 21 22  1  0
 21 39  1  6
 22 40  1  0
 22 41  1  0
M  CHG  1   2   1
M  END
>  <i_m_ct_stereo_status>  (26) 
1

>  <s_m_source_file>  (26) 
/var/tmp/pbs.5076255.sched01/tmpbmel7479/053vx75p8.sdf

>  <i_m_source_file_index>  (26) 
10

>  <i_lp_mmshare_version>  (26) 
48012

>  <i_f3d_flags>  (26) 
0

>  <s_epik_input>  (26) 
W0NIMl0xW0NIMl1OKFtDSDNdKVtDQEBIXShbQ0gyXTIpW0NAQF0zKFtPSF0pW0NASF0oTzQpW0NASF00W0NIMl1bQ0BIXTVPYzZjKFtPSF0pW2NIXVtjSF1jMmM2W0NAQF0xMzU=

>  <s_epik_cmdline>  (26) 
J2VwaWtfcHl0aG9uJywgJy1waHQnLCAnMi4wJywgJy1waCcsICc3LjAnLCAnLXRuJywgJzgnLCAnLW1hJywgJzIwMCcsICctaW1hZScsICc8aW5maWxlLm1hZT4nLCAnLW9tYWUnLCAnPG91dGZpbGUubWFlPic=

>  <r_lp_tautomer_probability>  (26) 
1

>  <r_epik_Ionization_Penalty>  (26) 
0.120272

>  <r_epik_Ionization_Penalty_Charging>  (26) 
0.105332

>  <r_epik_Ionization_Penalty_Neutral>  (26) 
0.0149402

>  <r_epik_State_Penalty>  (26) 
0.105199

>  <r_epik_Charging_Adjusted_Penalty>  (26) 
0.210531

>  <i_epik_Tot_Q>  (26) 
1

>  <i_epik_Tot_abs_Q>  (26) 
1

>  <s_lp_Force_Field>  (26) 
OPLS3e

>  <r_lp_Energy>  (26) 
62.0917

>  <b_lp_Chiralities_Consistent>  (26) 
1

>  <s_lp_Variant>  (26) 
7:0-1

>  <s_i_glide_gridfile>  (26) 
pfpi4k_grid

>  <i_i_glide_lignum>  (26) 
10

>  <i_i_glide_rotatable_bonds>  (26) 
2

>  <r_i_docking_score>  (26) 
-4.56152

>  <r_i_glide_ligand_efficiency>  (26) 
-0.207342

>  <r_i_glide_ligand_efficiency_sa>  (26) 
-0.58098

>  <r_i_glide_ligand_efficiency_ln>  (26) 
-1.115

>  <r_i_glide_gscore>  (26) 
-4.56152

>  <r_i_glide_lipo>  (26) 
-1.01258

>  <r_i_glide_hbond>  (26) 
-0.0597343

>  <r_i_glide_metal>  (26) 
-0

>  <r_i_glide_rewards>  (26) 
-1.34765

>  <r_i_glide_evdw>  (26) 
-16.9327

>  <r_i_glide_ecoul>  (26) 
-8.63288

>  <r_i_glide_erotb>  (26) 
0

>  <r_i_glide_esite>  (26) 
0

>  <r_i_glide_emodel>  (26) 
-34.4598

>  <r_i_glide_energy>  (26) 
-25.5656

>  <r_i_glide_einternal>  (26) 
0.176722

>  <r_i_glide_intrahb_reward>  (26) 
-0

>  <i_i_glide_confnum>  (26) 
2

>  <i_i_glide_posenum>  (26) 
1

>  <r_i_glide_eff_state_penalty>  (26) 
0

>  <ligand_id>  (26) 
7

>  <original_smiles>  (26) 
CN1CCC23c4c5ccc(O)c4OC2CC2OC2C3(O)C1C5

>  <smiles>  (26) 
[H]Oc1c([H])c([H])c2c3c1OC1([H])C([H])([H])C4([H])OC4([H])C4(O[H])C31C([H])([H])C([H])([H])[N+]([H])(C([H])([H])[H])C4([H])C2([H])[H]

$$$$
7:0:2
     RDKit          3D

 42 47  0  0  1  0  0  0  0  0999 V2000
    3.0162   -1.7653    4.0219 C   0  0  0  0  0  0  0  0  0  0  0  0
    2.7718   -2.1093    2.5983 N   0  0  1  0  0  0  0  0  0  0  0  0
    2.6327   -0.9009    1.7431 C   0  0  0  0  0  0  0  0  0  0  0  0
    3.9827   -0.4325    1.1775 C   0  0  0  0  0  0  0  0  0  0  0  0
    4.7622   -1.5952    0.4985 C   0  0  1  0  0  0  0  0  0  0  0  0
    3.9149   -2.1739   -0.5989 C   0  0  0  0  0  0  0  0  0  0  0  0
    2.9500   -3.1829   -0.4653 C   0  0  0  0  0  0  0  0  0  0  0  0
    2.1923   -3.4549   -1.6188 C   0  0  0  0  0  0  0  0  0  0  0  0
    2.4447   -2.7579   -2.8235 C   0  0  0  0  0  0  0  0  0  0  0  0
    3.4826   -1.7996   -2.9071 C   0  0  0  0  0  0  0  0  0  0  0  0
    3.7283   -1.1697   -4.0911 O   0  0  0  0  0  0  0  0  0  0  0  0
    4.2632   -1.5146   -1.7649 C   0  0  0  0  0  0  0  0  0  0  0  0
    5.3444   -0.6937   -1.6128 O   0  0  0  0  0  0  0  0  0  0  0  0
    5.9454   -1.0409   -0.3472 C   0  0  2  0  0  0  0  0  0  0  0  0
    7.0846   -2.0468   -0.6700 C   0  0  0  0  0  0  0  0  0  0  0  0
    6.9124   -3.4391   -0.1024 C   0  0  1  0  0  0  0  0  0  0  0  0
    7.3703   -3.5441    1.2317 O   0  0  0  0  0  0  0  0  0  0  0  0
    5.9647   -3.7597    1.0428 C   0  0  1  0  0  0  0  0  0  0  0  0
    5.0462   -2.6658    1.5748 C   0  0  1  0  0  0  0  0  0  0  0  0
    5.7224   -2.1536    2.7077 O   0  0  0  0  0  0  0  0  0  0  0  0
    3.6552   -3.1920    2.0393 C   0  0  2  0  0  0  0  0  0  0  0  0
    2.9222   -3.9061    0.8821 C   0  0  0  0  0  0  0  0  0  0  0  0
    3.9017   -1.1421    4.1378 H   0  0  0  0  0  0  0  0  0  0  0  0
    3.1327   -2.6602    4.6356 H   0  0  0  0  0  0  0  0  0  0  0  0
    2.1749   -1.1939    4.4172 H   0  0  0  0  0  0  0  0  0  0  0  0
    1.9504   -1.1263    0.9275 H   0  0  0  0  0  0  0  0  0  0  0  0
    2.1499   -0.0942    2.2969 H   0  0  0  0  0  0  0  0  0  0  0  0
    3.8031    0.3762    0.4717 H   0  0  0  0  0  0  0  0  0  0  0  0
    4.5736    0.0207    1.9773 H   0  0  0  0  0  0  0  0  0  0  0  0
    1.4356   -4.2294   -1.5934 H   0  0  0  0  0  0  0  0  0  0  0  0
    1.8385   -2.9956   -3.6828 H   0  0  0  0  0  0  0  0  0  0  0  0
    2.9943   -1.2483   -4.6836 H   0  0  0  0  0  0  0  0  0  0  0  0
    6.3615   -0.1468    0.1209 H   0  0  0  0  0  0  0  0  0  0  0  0
    7.2038   -2.1501   -1.7484 H   0  0  0  0  0  0  0  0  0  0  0  0
    8.0312   -1.6557   -0.2955 H   0  0  0  0  0  0  0  0  0  0  0  0
    7.2813   -4.2529   -0.7192 H   0  0  0  0  0  0  0  0  0  0  0  0
    5.6571   -4.7960    1.1726 H   0  0  0  0  0  0  0  0  0  0  0  0
    5.2616   -1.4021    3.0421 H   0  0  0  0  0  0  0  0  0  0  0  0
    3.7961   -3.9316    2.8283 H   0  0  0  0  0  0  0  0  0  0  0  0
    1.8894   -4.1087    1.1628 H   0  0  0  0  0  0  0  0  0  0  0  0
    3.3747   -4.8846    0.7263 H   0  0  0  0  0  0  0  0  0  0  0  0
    1.8485   -2.5158    2.6088 H   0  0  0  0  0  0  0  0  0  0  0  0
  1  2  1  0
  1 23  1  0
  1 24  1  0
  1 25  1  0
  2 21  1  0
  2  3  1  0
  2 42  1  1
  3  4  1  0
  3 26  1  0
  3 27  1  0
  5  4  1  1
  4 28  1  0
  4 29  1  0
  5 14  1  0
  5 19  1  0
  5  6  1  0
  6 12  2  0
  6  7  1  0
  7 22  1  0
  7  8  2  0
  8  9  1  0
  8 30  1  0
  9 10  2  0
  9 31  1  0
 10 11  1  0
 10 12  1  0
 11 32  1  0
 12 13  1  0
 13 14  1  0
 14 15  1  0
 14 33  1  1
 15 16  1  0
 15 34  1  0
 15 35  1  0
 16 18  1  0
 16 17  1  0
 16 36  1  6
 17 18  1  0
 18 19  1  0
 18 37  1  6
 19 20  1  1
 19 21  1  0
 20 38  1  0
 21 22  1  0
 21 39  1  1
 22 40  1  0
 22 41  1  0
M  CHG  1   2   1
M  END
>  <i_m_ct_stereo_status>  (27) 
1

>  <s_m_source_file>  (27) 
/var/tmp/pbs.5076255.sched01/tmpbmel7479/053vx75p8.sdf

>  <i_m_source_file_index>  (27) 
10

>  <i_lp_mmshare_version>  (27) 
48012

>  <i_f3d_flags>  (27) 
0

>  <s_epik_input>  (27) 
W0NIMl0xW0NIMl1OKFtDSDNdKVtDQEBIXShbQ0gyXTIpW0NAQF0zKFtPSF0pW0NASF0oTzQpW0NASF00W0NIMl1bQ0BIXTVPYzZjKFtPSF0pW2NIXVtjSF1jMmM2W0NAQF0xMzU=

>  <s_epik_cmdline>  (27) 
J2VwaWtfcHl0aG9uJywgJy1waHQnLCAnMi4wJywgJy1waCcsICc3LjAnLCAnLXRuJywgJzgnLCAnLW1hJywgJzIwMCcsICctaW1hZScsICc8aW5maWxlLm1hZT4nLCAnLW9tYWUnLCAnPG91dGZpbGUubWFlPic=

>  <r_lp_tautomer_probability>  (27) 
1

>  <r_epik_Ionization_Penalty>  (27) 
0.120272

>  <r_epik_Ionization_Penalty_Charging>  (27) 
0.105332

>  <r_epik_Ionization_Penalty_Neutral>  (27) 
0.0149402

>  <r_epik_State_Penalty>  (27) 
0.105199

>  <r_epik_Charging_Adjusted_Penalty>  (27) 
0.210531

>  <i_epik_Tot_Q>  (27) 
1

>  <i_epik_Tot_abs_Q>  (27) 
1

>  <s_lp_Force_Field>  (27) 
OPLS3e

>  <r_lp_Energy>  (27) 
62.0917

>  <b_lp_Chiralities_Consistent>  (27) 
1

>  <s_lp_Variant>  (27) 
7:0-1

>  <s_i_glide_gridfile>  (27) 
pfpi4k_grid

>  <i_i_glide_lignum>  (27) 
10

>  <i_i_glide_rotatable_bonds>  (27) 
2

>  <r_i_docking_score>  (27) 
-3.60357

>  <r_i_glide_ligand_efficiency>  (27) 
-0.163799

>  <r_i_glide_ligand_efficiency_sa>  (27) 
-0.458971

>  <r_i_glide_ligand_efficiency_ln>  (27) 
-0.880845

>  <r_i_glide_gscore>  (27) 
-3.60357

>  <r_i_glide_lipo>  (27) 
-0.484485

>  <r_i_glide_hbond>  (27) 
-0.00310267

>  <r_i_glide_metal>  (27) 
-0

>  <r_i_glide_rewards>  (27) 
-1.34765

>  <r_i_glide_evdw>  (27) 
-20.596

>  <r_i_glide_ecoul>  (27) 
-4.89462

>  <r_i_glide_erotb>  (27) 
0

>  <r_i_glide_esite>  (27) 
-0.00434361

>  <r_i_glide_emodel>  (27) 
-32.7165

>  <r_i_glide_energy>  (27) 
-25.4906

>  <r_i_glide_einternal>  (27) 
0.26964

>  <r_i_glide_intrahb_reward>  (27) 
-0

>  <i_i_glide_confnum>  (27) 
2

>  <i_i_glide_posenum>  (27) 
39

>  <r_i_glide_eff_state_penalty>  (27) 
0

>  <ligand_id>  (27) 
7

>  <original_smiles>  (27) 
CN1CCC23c4c5ccc(O)c4OC2CC2OC2C3(O)C1C5

>  <smiles>  (27) 
[H]Oc1c([H])c([H])c2c3c1OC1([H])C([H])([H])C4([H])OC4([H])C4(O[H])C31C([H])([H])C([H])([H])[N+]([H])(C([H])([H])[H])C4([H])C2([H])[H]

$$$$
7:1:0
     RDKit          3D

 41 46  0  0  1  0  0  0  0  0999 V2000
    4.4070   -0.9924   -2.2087 C   0  0  0  0  0  0  0  0  0  0  0  0
    4.3422   -1.3590   -0.8028 N   0  0  0  0  0  0  0  0  0  0  0  0
    3.4463   -2.4812   -0.5200 C   0  0  0  0  0  0  0  0  0  0  0  0
    4.1425   -3.8527   -0.5619 C   0  0  0  0  0  0  0  0  0  0  0  0
    5.4376   -3.8529    0.3043 C   0  0  1  0  0  0  0  0  0  0  0  0
    5.0895   -3.5179    1.7331 C   0  0  0  0  0  0  0  0  0  0  0  0
    4.9887   -2.2336    2.2992 C   0  0  0  0  0  0  0  0  0  0  0  0
    4.5879   -2.1752    3.6471 C   0  0  0  0  0  0  0  0  0  0  0  0
    4.3096   -3.3714    4.3518 C   0  0  0  0  0  0  0  0  0  0  0  0
    4.4858   -4.6392    3.7376 C   0  0  0  0  0  0  0  0  0  0  0  0
    4.2601   -5.7814    4.4477 O   0  0  0  0  0  0  0  0  0  0  0  0
    4.9139   -4.7158    2.3973 C   0  0  0  0  0  0  0  0  0  0  0  0
    5.2350   -5.8095    1.6385 O   0  0  0  0  0  0  0  0  0  0  0  0
    5.9722   -5.3090    0.5034 C   0  0  2  0  0  0  0  0  0  0  0  0
    7.4814   -5.4382    0.8584 C   0  0  0  0  0  0  0  0  0  0  0  0
    8.2284   -4.1296    1.0346 C   0  0  1  0  0  0  0  0  0  0  0  0
    8.7598   -3.6321   -0.1829 O   0  0  0  0  0  0  0  0  0  0  0  0
    7.7522   -2.8145    0.4272 C   0  0  1  0  0  0  0  0  0  0  0  0
    6.3921   -2.7726   -0.2630 C   0  0  1  0  0  0  0  0  0  0  0  0
    6.6759   -2.9308   -1.6417 O   0  0  0  0  0  0  0  0  0  0  0  0
    5.6322   -1.4161   -0.0878 C   0  0  2  0  0  0  0  0  0  0  0  0
    5.4187   -1.0793    1.4023 C   0  0  0  0  0  0  0  0  0  0  0  0
    3.4124   -0.7442   -2.5812 H   0  0  0  0  0  0  0  0  0  0  0  0
    4.8018   -1.7942   -2.8318 H   0  0  0  0  0  0  0  0  0  0  0  0
    5.0261   -0.1074   -2.3432 H   0  0  0  0  0  0  0  0  0  0  0  0
    2.9953   -2.3437    0.4644 H   0  0  0  0  0  0  0  0  0  0  0  0
    2.6087   -2.4691   -1.2162 H   0  0  0  0  0  0  0  0  0  0  0  0
    3.4444   -4.6205   -0.2215 H   0  0  0  0  0  0  0  0  0  0  0  0
    4.3672   -4.1149   -1.5961 H   0  0  0  0  0  0  0  0  0  0  0  0
    4.4931   -1.2171    4.1387 H   0  0  0  0  0  0  0  0  0  0  0  0
    3.9800   -3.3090    5.3748 H   0  0  0  0  0  0  0  0  0  0  0  0
    3.9930   -5.6189    5.3381 H   0  0  0  0  0  0  0  0  0  0  0  0
    5.7436   -5.9281   -0.3628 H   0  0  0  0  0  0  0  0  0  0  0  0
    7.6011   -6.0230    1.7706 H   0  0  0  0  0  0  0  0  0  0  0  0
    7.9939   -6.0116    0.0855 H   0  0  0  0  0  0  0  0  0  0  0  0
    8.9544   -4.1107    1.8439 H   0  0  0  0  0  0  0  0  0  0  0  0
    8.1210   -1.8877    0.8594 H   0  0  0  0  0  0  0  0  0  0  0  0
    5.8653   -3.1453   -2.0778 H   0  0  0  0  0  0  0  0  0  0  0  0
    6.2521   -0.6157   -0.4818 H   0  0  0  0  0  0  0  0  0  0  0  0
    4.6841   -0.2807    1.4921 H   0  0  0  0  0  0  0  0  0  0  0  0
    6.3445   -0.6830    1.8134 H   0  0  0  0  0  0  0  0  0  0  0  0
  1  2  1  0
  1 23  1  0
  1 24  1  0
  1 25  1  0
  2 21  1  0
  2  3  1  0
  3  4  1  0
  3 26  1  0
  3 27  1  0
  5  4  1  6
  4 28  1  0
  4 29  1  0
  5 14  1  0
  5 19  1  0
  5  6  1  0
  6 12  2  0
  6  7  1  0
  7 22  1  0
  7  8  2  0
  8  9  1  0
  8 30  1  0
  9 10  2  0
  9 31  1  0
 10 11  1  0
 10 12  1  0
 11 32  1  0
 12 13  1  0
 13 14  1  0
 14 15  1  0
 14 33  1  6
 15 16  1  0
 15 34  1  0
 15 35  1  0
 16 18  1  0
 16 17  1  0
 16 36  1  1
 17 18  1  0
 18 19  1  0
 18 37  1  1
 19 20  1  6
 19 21  1  0
 20 38  1  0
 21 22  1  0
 21 39  1  6
 22 40  1  0
 22 41  1  0
M  END
>  <i_m_ct_stereo_status>  (28) 
1

>  <s_m_source_file>  (28) 
/var/tmp/pbs.5076255.sched01/tmpbmel7479/053vx75p8.sdf

>  <i_m_source_file_index>  (28) 
11

>  <i_lp_mmshare_version>  (28) 
48012

>  <i_f3d_flags>  (28) 
0

>  <s_epik_input>  (28) 
W0NIMl0xW0NIMl1OKFtDSDNdKVtDQEBIXShbQ0gyXTIpW0NAQF0zKFtPSF0pW0NASF0oTzQpW0NASF00W0NIMl1bQ0BIXTVPYzZjKFtPSF0pW2NIXVtjSF1jMmM2W0NAQF0xMzU=

>  <s_epik_cmdline>  (28) 
J2VwaWtfcHl0aG9uJywgJy1waHQnLCAnMi4wJywgJy1waCcsICc3LjAnLCAnLXRuJywgJzgnLCAnLW1hJywgJzIwMCcsICctaW1hZScsICc8aW5maWxlLm1hZT4nLCAnLW9tYWUnLCAnPG91dGZpbGUubWFlPic=

>  <r_lp_tautomer_probability>  (28) 
1

>  <r_epik_Ionization_Penalty>  (28) 
1.07602

>  <r_epik_Ionization_Penalty_Charging>  (28) 
0

>  <r_epik_Ionization_Penalty_Neutral>  (28) 
1.07602

>  <r_epik_State_Penalty>  (28) 
1.14016

>  <r_epik_Charging_Adjusted_Penalty>  (28) 
1.14016

>  <i_epik_Tot_Q>  (28) 
0

>  <i_epik_Tot_abs_Q>  (28) 
0

>  <s_lp_Force_Field>  (28) 
OPLS3e

>  <r_lp_Energy>  (28) 
58.1938

>  <b_lp_Chiralities_Consistent>  (28) 
1

>  <s_lp_Variant>  (28) 
7:0-2

>  <s_i_glide_gridfile>  (28) 
pfpi4k_grid

>  <i_i_glide_lignum>  (28) 
11

>  <i_i_glide_rotatable_bonds>  (28) 
2

>  <r_i_docking_score>  (28) 
-3.48449

>  <r_i_glide_ligand_efficiency>  (28) 
-0.158386

>  <r_i_glide_ligand_efficiency_sa>  (28) 
-0.443803

>  <r_i_glide_ligand_efficiency_ln>  (28) 
-0.851736

>  <r_i_glide_gscore>  (28) 
-3.48449

>  <r_i_glide_lipo>  (28) 
-0.884614

>  <r_i_glide_hbond>  (28) 
-0.0178062

>  <r_i_glide_metal>  (28) 
-0

>  <r_i_glide_rewards>  (28) 
-1.35452

>  <r_i_glide_evdw>  (28) 
-20.7604

>  <r_i_glide_ecoul>  (28) 
-1.26354

>  <r_i_glide_erotb>  (28) 
0

>  <r_i_glide_esite>  (28) 
0

>  <r_i_glide_emodel>  (28) 
-26.7535

>  <r_i_glide_energy>  (28) 
-22.0239

>  <r_i_glide_einternal>  (28) 
0.0938397

>  <r_i_glide_intrahb_reward>  (28) 
-0

>  <i_i_glide_confnum>  (28) 
2

>  <i_i_glide_posenum>  (28) 
22

>  <r_i_glide_eff_state_penalty>  (28) 
0

>  <ligand_id>  (28) 
7

>  <original_smiles>  (28) 
CN1CCC23c4c5ccc(O)c4OC2CC2OC2C3(O)C1C5

>  <smiles>  (28) 
[H]Oc1c([H])c([H])c2c3c1OC1([H])C([H])([H])C4([H])OC4([H])C4(O[H])C([H])(N(C([H])([H])[H])C([H])([H])C([H])([H])C314)C2([H])[H]

$$$$
7:1:1
     RDKit          3D

 41 46  0  0  1  0  0  0  0  0999 V2000
    2.9223   -1.7688    3.9859 C   0  0  0  0  0  0  0  0  0  0  0  0
    2.7419   -2.0588    2.5728 N   0  0  0  0  0  0  0  0  0  0  0  0
    2.6309   -0.8672    1.7276 C   0  0  0  0  0  0  0  0  0  0  0  0
    3.9738   -0.3730    1.1678 C   0  0  0  0  0  0  0  0  0  0  0  0
    4.7618   -1.5348    0.5000 C   0  0  1  0  0  0  0  0  0  0  0  0
    3.9469   -2.1157   -0.6275 C   0  0  0  0  0  0  0  0  0  0  0  0
    2.9893   -3.1324   -0.5266 C   0  0  0  0  0  0  0  0  0  0  0  0
    2.3034   -3.4581   -1.7176 C   0  0  0  0  0  0  0  0  0  0  0  0
    2.6132   -2.7893   -2.9225 C   0  0  0  0  0  0  0  0  0  0  0  0
    3.6383   -1.8113   -2.9663 C   0  0  0  0  0  0  0  0  0  0  0  0
    3.9600   -1.2048   -4.1466 O   0  0  0  0  0  0  0  0  0  0  0  0
    4.3405   -1.4782   -1.7863 C   0  0  0  0  0  0  0  0  0  0  0  0
    5.4158   -0.6599   -1.6056 O   0  0  0  0  0  0  0  0  0  0  0  0
    5.9724   -0.9843   -0.3124 C   0  0  2  0  0  0  0  0  0  0  0  0
    7.1335   -1.9830   -0.5788 C   0  0  0  0  0  0  0  0  0  0  0  0
    6.9028   -3.3879   -0.0663 C   0  0  1  0  0  0  0  0  0  0  0  0
    7.3241   -3.5489    1.2731 O   0  0  0  0  0  0  0  0  0  0  0  0
    5.9254   -3.7161    1.0467 C   0  0  1  0  0  0  0  0  0  0  0  0
    5.0159   -2.6121    1.5749 C   0  0  1  0  0  0  0  0  0  0  0  0
    5.6711   -2.0998    2.7133 O   0  0  0  0  0  0  0  0  0  0  0  0
    3.6098   -3.1161    2.0102 C   0  0  2  0  0  0  0  0  0  0  0  0
    2.8832   -3.8096    0.8344 C   0  0  0  0  0  0  0  0  0  0  0  0
    2.0932   -1.1610    4.3549 H   0  0  0  0  0  0  0  0  0  0  0  0
    3.8456   -1.2239    4.1837 H   0  0  0  0  0  0  0  0  0  0  0  0
    2.9288   -2.6943    4.5636 H   0  0  0  0  0  0  0  0  0  0  0  0
    1.9648   -1.0852    0.8937 H   0  0  0  0  0  0  0  0  0  0  0  0
    2.1333   -0.0646    2.2695 H   0  0  0  0  0  0  0  0  0  0  0  0
    3.7950    0.4398    0.4700 H   0  0  0  0  0  0  0  0  0  0  0  0
    4.5496    0.0787    1.9715 H   0  0  0  0  0  0  0  0  0  0  0  0
    1.5595   -4.2417   -1.7199 H   0  0  0  0  0  0  0  0  0  0  0  0
    2.0845   -3.0474   -3.8237 H   0  0  0  0  0  0  0  0  0  0  0  0
    4.4578   -0.4153   -3.9893 H   0  0  0  0  0  0  0  0  0  0  0  0
    6.3644   -0.0775    0.1502 H   0  0  0  0  0  0  0  0  0  0  0  0
    7.3420   -2.0615   -1.6464 H   0  0  0  0  0  0  0  0  0  0  0  0
    8.0443   -1.6202   -0.0988 H   0  0  0  0  0  0  0  0  0  0  0  0
    7.2589   -4.1853   -0.7167 H   0  0  0  0  0  0  0  0  0  0  0  0
    5.5723   -4.7455    1.1245 H   0  0  0  0  0  0  0  0  0  0  0  0
    5.1304   -1.4081    3.0630 H   0  0  0  0  0  0  0  0  0  0  0  0
    3.7356   -3.8819    2.7803 H   0  0  0  0  0  0  0  0  0  0  0  0
    1.8381   -3.9326    1.0938 H   0  0  0  0  0  0  0  0  0  0  0  0
    3.2798   -4.8167    0.7296 H   0  0  0  0  0  0  0  0  0  0  0  0
  1  2  1  0
  1 23  1  0
  1 24  1  0
  1 25  1  0
  2 21  1  0
  2  3  1  0
  3  4  1  0
  3 26  1  0
  3 27  1  0
  5  4  1  1
  4 28  1  0
  4 29  1  0
  5 14  1  0
  5 19  1  0
  5  6  1  0
  6 12  2  0
  6  7  1  0
  7 22  1  0
  7  8  2  0
  8  9  1  0
  8 30  1  0
  9 10  2  0
  9 31  1  0
 10 11  1  0
 10 12  1  0
 11 32  1  0
 12 13  1  0
 13 14  1  0
 14 15  1  0
 14 33  1  1
 15 16  1  0
 15 34  1  0
 15 35  1  0
 16 18  1  0
 16 17  1  0
 16 36  1  6
 17 18  1  0
 18 19  1  0
 18 37  1  6
 19 20  1  1
 19 21  1  0
 20 38  1  0
 21 22  1  0
 21 39  1  1
 22 40  1  0
 22 41  1  0
M  END
>  <i_m_ct_stereo_status>  (29) 
1

>  <s_m_source_file>  (29) 
/var/tmp/pbs.5076255.sched01/tmpbmel7479/053vx75p8.sdf

>  <i_m_source_file_index>  (29) 
11

>  <i_lp_mmshare_version>  (29) 
48012

>  <i_f3d_flags>  (29) 
0

>  <s_epik_input>  (29) 
W0NIMl0xW0NIMl1OKFtDSDNdKVtDQEBIXShbQ0gyXTIpW0NAQF0zKFtPSF0pW0NASF0oTzQpW0NASF00W0NIMl1bQ0BIXTVPYzZjKFtPSF0pW2NIXVtjSF1jMmM2W0NAQF0xMzU=

>  <s_epik_cmdline>  (29) 
J2VwaWtfcHl0aG9uJywgJy1waHQnLCAnMi4wJywgJy1waCcsICc3LjAnLCAnLXRuJywgJzgnLCAnLW1hJywgJzIwMCcsICctaW1hZScsICc8aW5maWxlLm1hZT4nLCAnLW9tYWUnLCAnPG91dGZpbGUubWFlPic=

>  <r_lp_tautomer_probability>  (29) 
1

>  <r_epik_Ionization_Penalty>  (29) 
1.07602

>  <r_epik_Ionization_Penalty_Charging>  (29) 
0

>  <r_epik_Ionization_Penalty_Neutral>  (29) 
1.07602

>  <r_epik_State_Penalty>  (29) 
1.14016

>  <r_epik_Charging_Adjusted_Penalty>  (29) 
1.14016

>  <i_epik_Tot_Q>  (29) 
0

>  <i_epik_Tot_abs_Q>  (29) 
0

>  <s_lp_Force_Field>  (29) 
OPLS3e

>  <r_lp_Energy>  (29) 
58.1938

>  <b_lp_Chiralities_Consistent>  (29) 
1

>  <s_lp_Variant>  (29) 
7:0-2

>  <s_i_glide_gridfile>  (29) 
pfpi4k_grid

>  <i_i_glide_lignum>  (29) 
11

>  <i_i_glide_rotatable_bonds>  (29) 
2

>  <r_i_docking_score>  (29) 
-3.08442

>  <r_i_glide_ligand_efficiency>  (29) 
-0.140201

>  <r_i_glide_ligand_efficiency_sa>  (29) 
-0.392848

>  <r_i_glide_ligand_efficiency_ln>  (29) 
-0.753945

>  <r_i_glide_gscore>  (29) 
-3.08442

>  <r_i_glide_lipo>  (29) 
-0.528477

>  <r_i_glide_hbond>  (29) 
-0.00771482

>  <r_i_glide_metal>  (29) 
-0

>  <r_i_glide_rewards>  (29) 
-1.35452

>  <r_i_glide_evdw>  (29) 
-21.504

>  <r_i_glide_ecoul>  (29) 
-0.790057

>  <r_i_glide_erotb>  (29) 
0

>  <r_i_glide_esite>  (29) 
0

>  <r_i_glide_emodel>  (29) 
-26.2977

>  <r_i_glide_energy>  (29) 
-22.294

>  <r_i_glide_einternal>  (29) 
0.313608

>  <r_i_glide_intrahb_reward>  (29) 
-0

>  <i_i_glide_confnum>  (29) 
1

>  <i_i_glide_posenum>  (29) 
19

>  <r_i_glide_eff_state_penalty>  (29) 
0

>  <ligand_id>  (29) 
7

>  <original_smiles>  (29) 
CN1CCC23c4c5ccc(O)c4OC2CC2OC2C3(O)C1C5

>  <smiles>  (29) 
[H]Oc1c([H])c([H])c2c3c1OC1([H])C([H])([H])C4([H])OC4([H])C4(O[H])C([H])(N(C([H])([H])[H])C([H])([H])C([H])([H])C314)C2([H])[H]

$$$$
7:1:2
     RDKit          3D

 41 46  0  0  1  0  0  0  0  0999 V2000
    2.4280   -3.9471    3.9297 C   0  0  0  0  0  0  0  0  0  0  0  0
    2.3970   -3.6871    2.4989 N   0  0  0  0  0  0  0  0  0  0  0  0
    2.2729   -2.2646    2.1579 C   0  0  0  0  0  0  0  0  0  0  0  0
    3.6189   -1.5335    2.0086 C   0  0  0  0  0  0  0  0  0  0  0  0
    4.5809   -2.3092    1.0655 C   0  0  1  0  0  0  0  0  0  0  0  0
    3.9449   -2.4561   -0.2929 C   0  0  0  0  0  0  0  0  0  0  0  0
    3.0723   -3.4783   -0.7092 C   0  0  0  0  0  0  0  0  0  0  0  0
    2.5522   -3.3623   -2.0114 C   0  0  0  0  0  0  0  0  0  0  0  0
    2.9315   -2.2687   -2.8288 C   0  0  0  0  0  0  0  0  0  0  0  0
    3.8535   -1.2990   -2.3625 C   0  0  0  0  0  0  0  0  0  0  0  0
    4.2171   -0.2578   -3.1645 O   0  0  0  0  0  0  0  0  0  0  0  0
    4.4021   -1.4095   -1.0672 C   0  0  0  0  0  0  0  0  0  0  0  0
    5.3688   -0.6579   -0.4550 O   0  0  0  0  0  0  0  0  0  0  0  0
    5.8177   -1.4288    0.6828 C   0  0  2  0  0  0  0  0  0  0  0  0
    7.0819   -2.2047    0.2112 C   0  0  0  0  0  0  0  0  0  0  0  0
    6.9398   -3.7125    0.1333 C   0  0  1  0  0  0  0  0  0  0  0  0
    7.2215   -4.3648    1.3635 O   0  0  0  0  0  0  0  0  0  0  0  0
    5.8727   -4.4837    0.8993 C   0  0  1  0  0  0  0  0  0  0  0  0
    4.8201   -3.7068    1.6849 C   0  0  1  0  0  0  0  0  0  0  0  0
    5.3179   -3.6344    3.0141 O   0  0  0  0  0  0  0  0  0  0  0  0
    3.4184   -4.4041    1.7052 C   0  0  2  0  0  0  0  0  0  0  0  0
    2.8877   -4.6308    0.2729 C   0  0  0  0  0  0  0  0  0  0  0  0
    1.5227   -3.5662    4.4028 H   0  0  0  0  0  0  0  0  0  0  0  0
    3.2800   -3.4770    4.4194 H   0  0  0  0  0  0  0  0  0  0  0  0
    2.4632   -5.0190    4.1239 H   0  0  0  0  0  0  0  0  0  0  0  0
    1.7249   -2.1599    1.2222 H   0  0  0  0  0  0  0  0  0  0  0  0
    1.6599   -1.7555    2.9020 H   0  0  0  0  0  0  0  0  0  0  0  0
    3.4390   -0.5240    1.6339 H   0  0  0  0  0  0  0  0  0  0  0  0
    4.0734   -1.4036    2.9912 H   0  0  0  0  0  0  0  0  0  0  0  0
    1.8688   -4.1092   -2.3912 H   0  0  0  0  0  0  0  0  0  0  0  0
    2.5053   -2.1759   -3.8127 H   0  0  0  0  0  0  0  0  0  0  0  0
    4.5443    0.4698   -2.6574 H   0  0  0  0  0  0  0  0  0  0  0  0
    6.0855   -0.7507    1.4967 H   0  0  0  0  0  0  0  0  0  0  0  0
    7.3948   -1.8557   -0.7700 H   0  0  0  0  0  0  0  0  0  0  0  0
    7.9204   -1.9803    0.8716 H   0  0  0  0  0  0  0  0  0  0  0  0
    7.4362   -4.1817   -0.7136 H   0  0  0  0  0  0  0  0  0  0  0  0
    5.6075   -5.4727    0.5321 H   0  0  0  0  0  0  0  0  0  0  0  0
    5.4913   -4.5122    3.3158 H   0  0  0  0  0  0  0  0  0  0  0  0
    3.5374   -5.3964    2.1416 H   0  0  0  0  0  0  0  0  0  0  0  0
    1.8285   -4.8811    0.3123 H   0  0  0  0  0  0  0  0  0  0  0  0
    3.3769   -5.5030   -0.1556 H   0  0  0  0  0  0  0  0  0  0  0  0
  1  2  1  0
  1 23  1  0
  1 24  1  0
  1 25  1  0
  2 21  1  0
  2  3  1  0
  3  4  1  0
  3 26  1  0
  3 27  1  0
  5  4  1  1
  4 28  1  0
  4 29  1  0
  5 14  1  0
  5 19  1  0
  5  6  1  0
  6 12  2  0
  6  7  1  0
  7 22  1  0
  7  8  2  0
  8  9  1  0
  8 30  1  0
  9 10  2  0
  9 31  1  0
 10 11  1  0
 10 12  1  0
 11 32  1  0
 12 13  1  0
 13 14  1  0
 14 15  1  0
 14 33  1  1
 15 16  1  0
 15 34  1  0
 15 35  1  0
 16 18  1  0
 16 17  1  0
 16 36  1  6
 17 18  1  0
 18 19  1  0
 18 37  1  6
 19 20  1  1
 19 21  1  0
 20 38  1  0
 21 22  1  0
 21 39  1  1
 22 40  1  0
 22 41  1  0
M  END
>  <i_m_ct_stereo_status>  (30) 
1

>  <s_m_source_file>  (30) 
/var/tmp/pbs.5076255.sched01/tmpbmel7479/053vx75p8.sdf

>  <i_m_source_file_index>  (30) 
11

>  <i_lp_mmshare_version>  (30) 
48012

>  <i_f3d_flags>  (30) 
0

>  <s_epik_input>  (30) 
W0NIMl0xW0NIMl1OKFtDSDNdKVtDQEBIXShbQ0gyXTIpW0NAQF0zKFtPSF0pW0NASF0oTzQpW0NASF00W0NIMl1bQ0BIXTVPYzZjKFtPSF0pW2NIXVtjSF1jMmM2W0NAQF0xMzU=

>  <s_epik_cmdline>  (30) 
J2VwaWtfcHl0aG9uJywgJy1waHQnLCAnMi4wJywgJy1waCcsICc3LjAnLCAnLXRuJywgJzgnLCAnLW1hJywgJzIwMCcsICctaW1hZScsICc8aW5maWxlLm1hZT4nLCAnLW9tYWUnLCAnPG91dGZpbGUubWFlPic=

>  <r_lp_tautomer_probability>  (30) 
1

>  <r_epik_Ionization_Penalty>  (30) 
1.07602

>  <r_epik_Ionization_Penalty_Charging>  (30) 
0

>  <r_epik_Ionization_Penalty_Neutral>  (30) 
1.07602

>  <r_epik_State_Penalty>  (30) 
1.14016

>  <r_epik_Charging_Adjusted_Penalty>  (30) 
1.14016

>  <i_epik_Tot_Q>  (30) 
0

>  <i_epik_Tot_abs_Q>  (30) 
0

>  <s_lp_Force_Field>  (30) 
OPLS3e

>  <r_lp_Energy>  (30) 
58.1938

>  <b_lp_Chiralities_Consistent>  (30) 
1

>  <s_lp_Variant>  (30) 
7:0-2

>  <s_i_glide_gridfile>  (30) 
pfpi4k_grid

>  <i_i_glide_lignum>  (30) 
11

>  <i_i_glide_rotatable_bonds>  (30) 
2

>  <r_i_docking_score>  (30) 
-3.05721

>  <r_i_glide_ligand_efficiency>  (30) 
-0.138964

>  <r_i_glide_ligand_efficiency_sa>  (30) 
-0.389383

>  <r_i_glide_ligand_efficiency_ln>  (30) 
-0.747293

>  <r_i_glide_gscore>  (30) 
-3.05721

>  <r_i_glide_lipo>  (30) 
-0.584194

>  <r_i_glide_hbond>  (30) 
0

>  <r_i_glide_metal>  (30) 
-0

>  <r_i_glide_rewards>  (30) 
-1.35452

>  <r_i_glide_evdw>  (30) 
-21.0432

>  <r_i_glide_ecoul>  (30) 
-0.442207

>  <r_i_glide_erotb>  (30) 
0

>  <r_i_glide_esite>  (30) 
0

>  <r_i_glide_emodel>  (30) 
-25.3172

>  <r_i_glide_energy>  (30) 
-21.4855

>  <r_i_glide_einternal>  (30) 
0.553938

>  <r_i_glide_intrahb_reward>  (30) 
-0

>  <i_i_glide_confnum>  (30) 
1

>  <i_i_glide_posenum>  (30) 
6

>  <r_i_glide_eff_state_penalty>  (30) 
0

>  <ligand_id>  (30) 
7

>  <original_smiles>  (30) 
CN1CCC23c4c5ccc(O)c4OC2CC2OC2C3(O)C1C5

>  <smiles>  (30) 
[H]Oc1c([H])c([H])c2c3c1OC1([H])C([H])([H])C4([H])OC4([H])C4(O[H])C([H])(N(C([H])([H])[H])C([H])([H])C([H])([H])C314)C2([H])[H]

$$$$
7:2:0
     RDKit          3D

 41 46  0  0  1  0  0  0  0  0999 V2000
    2.2145   -2.6902   -2.5278 C   0  0  0  0  0  0  0  0  0  0  0  0
    3.2880   -3.4337   -1.8351 N   0  0  1  0  0  0  0  0  0  0  0  0
    4.6232   -3.0939   -2.3791 C   0  0  0  0  0  0  0  0  0  0  0  0
    5.2539   -1.8899   -1.6595 C   0  0  0  0  0  0  0  0  0  0  0  0
    5.2206   -2.0574   -0.1191 C   0  0  1  0  0  0  0  0  0  0  0  0
    5.9360   -3.3320    0.2292 C   0  0  0  0  0  0  0  0  0  0  0  0
    5.3898   -4.6274    0.3090 C   0  0  0  0  0  0  0  0  0  0  0  0
    6.2853   -5.6839    0.5623 C   0  0  0  0  0  0  0  0  0  0  0  0
    7.6539   -5.3901    0.7157 C   0  0  0  0  0  0  0  0  0  0  0  0
    8.1121   -4.0430    0.6733 C   0  0  0  0  0  0  0  0  0  0  0  0
    9.4176   -3.7626    0.8802 O   0  0  0  0  0  0  0  0  0  0  0  0
    7.2349   -2.9766    0.4510 C   0  0  0  0  0  0  0  0  0  0  0  0
    7.4627   -1.6221    0.4554 O   0  0  0  0  0  0  0  0  0  0  0  0
    6.1676   -1.0107    0.5537 C   0  0  2  0  0  0  0  0  0  0  0  0
    5.9159   -0.7225    2.0538 C   0  0  0  0  0  0  0  0  0  0  0  0
    4.7572   -1.4774    2.6753 C   0  0  1  0  0  0  0  0  0  0  0  0
    3.5066   -0.8353    2.4615 O   0  0  0  0  0  0  0  0  0  0  0  0
    3.6504   -2.1315    1.8613 C   0  0  1  0  0  0  0  0  0  0  0  0
    3.7521   -2.1443    0.3333 C   0  0  1  0  0  0  0  0  0  0  0  0
    3.0225   -1.0060   -0.0823 O   0  0  0  0  0  0  0  0  0  0  0  0
    3.1848   -3.4331   -0.3401 C   0  0  2  0  0  0  0  0  0  0  0  0
    3.8825   -4.6943    0.2126 C   0  0  0  0  0  0  0  0  0  0  0  0
    2.3606   -1.6077   -2.4660 H   0  0  0  0  0  0  0  0  0  0  0  0
    1.2351   -2.9386   -2.1219 H   0  0  0  0  0  0  0  0  0  0  0  0
    2.1862   -2.9401   -3.5914 H   0  0  0  0  0  0  0  0  0  0  0  0
    5.2760   -3.9591   -2.3035 H   0  0  0  0  0  0  0  0  0  0  0  0
    4.5627   -2.9062   -3.4499 H   0  0  0  0  0  0  0  0  0  0  0  0
    6.2776   -1.7832   -2.0240 H   0  0  0  0  0  0  0  0  0  0  0  0
    4.7483   -0.9758   -1.9668 H   0  0  0  0  0  0  0  0  0  0  0  0
    5.9265   -6.7046    0.6212 H   0  0  0  0  0  0  0  0  0  0  0  0
    8.3637   -6.1876    0.8754 H   0  0  0  0  0  0  0  0  0  0  0  0
    6.1927   -0.0691    0.0057 H   0  0  0  0  0  0  0  0  0  0  0  0
    6.8104   -0.9391    2.6337 H   0  0  0  0  0  0  0  0  0  0  0  0
    5.7309    0.3403    2.1988 H   0  0  0  0  0  0  0  0  0  0  0  0
    4.8961   -1.7747    3.7112 H   0  0  0  0  0  0  0  0  0  0  0  0
    3.0511   -2.9059    2.3406 H   0  0  0  0  0  0  0  0  0  0  0  0
    2.0744   -1.1480   -0.2603 H   0  0  0  0  0  0  0  0  0  0  0  0
    2.1337   -3.5214   -0.0837 H   0  0  0  0  0  0  0  0  0  0  0  0
    3.6119   -5.5760   -0.3646 H   0  0  0  0  0  0  0  0  0  0  0  0
    3.5176   -4.8908    1.2216 H   0  0  0  0  0  0  0  0  0  0  0  0
    3.1243   -4.3927   -2.1122 H   0  0  0  0  0  0  0  0  0  0  0  0
  1  2  1  0
  1 23  1  0
  1 24  1  0
  1 25  1  0
  2 21  1  0
  2  3  1  0
  2 41  1  6
  3  4  1  0
  3 26  1  0
  3 27  1  0
  5  4  1  6
  4 28  1  0
  4 29  1  0
  5 14  1  0
  5 19  1  0
  5  6  1  0
  6 12  2  0
  6  7  1  0
  7 22  1  0
  7  8  2  0
  8  9  1  0
  8 30  1  0
  9 10  2  0
  9 31  1  0
 10 11  1  0
 10 12  1  0
 12 13  1  0
 13 14  1  0
 14 15  1  0
 14 32  1  6
 15 16  1  0
 15 33  1  0
 15 34  1  0
 16 18  1  0
 16 17  1  0
 16 35  1  1
 17 18  1  0
 18 19  1  0
 18 36  1  1
 19 20  1  6
 19 21  1  0
 20 37  1  0
 21 22  1  0
 21 38  1  6
 22 39  1  0
 22 40  1  0
M  CHG  2   2   1  11  -1
M  END
>  <i_m_ct_stereo_status>  (31) 
1

>  <s_m_source_file>  (31) 
/var/tmp/pbs.5076255.sched01/tmpbmel7479/053vx75p8.sdf

>  <i_m_source_file_index>  (31) 
12

>  <i_lp_mmshare_version>  (31) 
48012

>  <i_f3d_flags>  (31) 
0

>  <s_epik_input>  (31) 
W0NIMl0xW0NIMl1OKFtDSDNdKVtDQEBIXShbQ0gyXTIpW0NAQF0zKFtPSF0pW0NASF0oTzQpW0NASF00W0NIMl1bQ0BIXTVPYzZjKFtPSF0pW2NIXVtjSF1jMmM2W0NAQF0xMzU=

>  <s_epik_cmdline>  (31) 
J2VwaWtfcHl0aG9uJywgJy1waHQnLCAnMi4wJywgJy1waCcsICc3LjAnLCAnLXRuJywgJzgnLCAnLW1hJywgJzIwMCcsICctaW1hZScsICc8aW5maWxlLm1hZT4nLCAnLW9tYWUnLCAnPG91dGZpbGUubWFlPic=

>  <r_epik_Ionization_Penalty>  (31) 
2.28529

>  <r_epik_Ionization_Penalty_Charging>  (31) 
2.28529

>  <r_epik_Ionization_Penalty_Neutral>  (31) 
8.52005e-07

>  <r_epik_State_Penalty>  (31) 
2.42403

>  <r_epik_Charging_Adjusted_Penalty>  (31) 
4.70932

>  <i_epik_Tot_Q>  (31) 
0

>  <i_epik_Tot_abs_Q>  (31) 
2

>  <s_lp_Force_Field>  (31) 
OPLS3e

>  <r_lp_Energy>  (31) 
59.173

>  <b_lp_Chiralities_Consistent>  (31) 
1

>  <s_lp_Variant>  (31) 
7:0-3

>  <s_i_glide_gridfile>  (31) 
pfpi4k_grid

>  <i_i_glide_lignum>  (31) 
12

>  <i_i_glide_rotatable_bonds>  (31) 
1

>  <r_i_docking_score>  (31) 
-5.01499

>  <r_i_glide_ligand_efficiency>  (31) 
-0.227954

>  <r_i_glide_ligand_efficiency_sa>  (31) 
-0.638736

>  <r_i_glide_ligand_efficiency_ln>  (31) 
-1.22585

>  <r_i_glide_gscore>  (31) 
-5.01499

>  <r_i_glide_lipo>  (31) 
-0.964233

>  <r_i_glide_hbond>  (31) 
-0.091012

>  <r_i_glide_metal>  (31) 
-0

>  <r_i_glide_rewards>  (31) 
-1.35452

>  <r_i_glide_evdw>  (31) 
-14.2706

>  <r_i_glide_ecoul>  (31) 
-12.6113

>  <r_i_glide_erotb>  (31) 
0

>  <r_i_glide_esite>  (31) 
0

>  <r_i_glide_emodel>  (31) 
-37.4668

>  <r_i_glide_energy>  (31) 
-26.8819

>  <r_i_glide_einternal>  (31) 
0.736294

>  <r_i_glide_intrahb_reward>  (31) 
-0

>  <i_i_glide_confnum>  (31) 
2

>  <i_i_glide_posenum>  (31) 
39

>  <r_i_glide_eff_state_penalty>  (31) 
0

>  <ligand_id>  (31) 
7

>  <original_smiles>  (31) 
CN1CCC23c4c5ccc(O)c4OC2CC2OC2C3(O)C1C5

>  <smiles>  (31) 
[H]OC12C3([H])OC3([H])C([H])([H])C3([H])Oc4c([O-])c([H])c([H])c5c4C31C([H])([H])C([H])([H])[N+]([H])(C([H])([H])[H])C2([H])C5([H])[H]

$$$$
7:2:1
     RDKit          3D

 41 46  0  0  1  0  0  0  0  0999 V2000
    3.3164   -2.5216   -4.0974 C   0  0  0  0  0  0  0  0  0  0  0  0
    3.5647   -3.3992   -2.9317 N   0  0  1  0  0  0  0  0  0  0  0  0
    4.9192   -4.0066   -2.9546 C   0  0  0  0  0  0  0  0  0  0  0  0
    5.9526   -3.1338   -2.2413 C   0  0  0  0  0  0  0  0  0  0  0  0
    5.4711   -2.7126   -0.8315 C   0  0  1  0  0  0  0  0  0  0  0  0
    5.1884   -3.9469   -0.0189 C   0  0  0  0  0  0  0  0  0  0  0  0
    3.9744   -4.6536    0.0325 C   0  0  0  0  0  0  0  0  0  0  0  0
    3.9873   -5.8565    0.7703 C   0  0  0  0  0  0  0  0  0  0  0  0
    5.1861   -6.2580    1.4064 C   0  0  0  0  0  0  0  0  0  0  0  0
    6.3593   -5.4590    1.3670 C   0  0  0  0  0  0  0  0  0  0  0  0
    7.4853   -5.8493    2.0344 O   0  0  0  0  0  0  0  0  0  0  0  0
    6.3536   -4.2448    0.6464 C   0  0  0  0  0  0  0  0  0  0  0  0
    7.3241   -3.2910    0.5155 O   0  0  0  0  0  0  0  0  0  0  0  0
    6.6622   -2.1320   -0.0189 C   0  0  2  0  0  0  0  0  0  0  0  0
    6.2780   -1.2406    1.1875 C   0  0  0  0  0  0  0  0  0  0  0  0
    4.7973   -1.0172    1.4069 C   0  0  1  0  0  0  0  0  0  0  0  0
    4.2858    0.0518    0.6186 O   0  0  0  0  0  0  0  0  0  0  0  0
    3.7546   -1.2449    0.3226 C   0  0  1  0  0  0  0  0  0  0  0  0
    4.1962   -1.8592   -1.0025 C   0  0  1  0  0  0  0  0  0  0  0  0
    4.3704   -0.7775   -1.9084 O   0  0  0  0  0  0  0  0  0  0  0  0
    3.1390   -2.8201   -1.6172 C   0  0  2  0  0  0  0  0  0  0  0  0
    2.7955   -3.9627   -0.6357 C   0  0  0  0  0  0  0  0  0  0  0  0
    4.0624   -1.7297   -4.1718 H   0  0  0  0  0  0  0  0  0  0  0  0
    2.3236   -2.0685   -4.0717 H   0  0  0  0  0  0  0  0  0  0  0  0
    3.3823   -3.1068   -5.0105 H   0  0  0  0  0  0  0  0  0  0  0  0
    4.9142   -4.9849   -2.4774 H   0  0  0  0  0  0  0  0  0  0  0  0
    5.2206   -4.2112   -3.9830 H   0  0  0  0  0  0  0  0  0  0  0  0
    6.8947   -3.6769   -2.1926 H   0  0  0  0  0  0  0  0  0  0  0  0
    6.1544   -2.2561   -2.8469 H   0  0  0  0  0  0  0  0  0  0  0  0
    3.0873   -6.4524    0.8444 H   0  0  0  0  0  0  0  0  0  0  0  0
    5.1991   -7.1850    1.9551 H   0  0  0  0  0  0  0  0  0  0  0  0
    7.3608   -1.5961   -0.6570 H   0  0  0  0  0  0  0  0  0  0  0  0
    6.6936   -1.6417    2.1126 H   0  0  0  0  0  0  0  0  0  0  0  0
    6.7218   -0.2720    1.0229 H   0  0  0  0  0  0  0  0  0  0  0  0
    4.4854   -0.9463    2.4502 H   0  0  0  0  0  0  0  0  0  0  0  0
    2.7253   -1.3906    0.6456 H   0  0  0  0  0  0  0  0  0  0  0  0
    3.5804   -0.2551   -1.8999 H   0  0  0  0  0  0  0  0  0  0  0  0
    2.2184   -2.2669   -1.8090 H   0  0  0  0  0  0  0  0  0  0  0  0
    2.1651   -4.6993   -1.1169 H   0  0  0  0  0  0  0  0  0  0  0  0
    2.1734   -3.5679    0.1588 H   0  0  0  0  0  0  0  0  0  0  0  0
    2.9433   -4.1857   -3.0704 H   0  0  0  0  0  0  0  0  0  0  0  0
  1  2  1  0
  1 23  1  0
  1 24  1  0
  1 25  1  0
  2 21  1  0
  2  3  1  0
  2 41  1  6
  3  4  1  0
  3 26  1  0
  3 27  1  0
  5  4  1  6
  4 28  1  0
  4 29  1  0
  5 14  1  0
  5 19  1  0
  5  6  1  0
  6 12  2  0
  6  7  1  0
  7 22  1  0
  7  8  2  0
  8  9  1  0
  8 30  1  0
  9 10  2  0
  9 31  1  0
 10 11  1  0
 10 12  1  0
 12 13  1  0
 13 14  1  0
 14 15  1  0
 14 32  1  6
 15 16  1  0
 15 33  1  0
 15 34  1  0
 16 18  1  0
 16 17  1  0
 16 35  1  1
 17 18  1  0
 18 19  1  0
 18 36  1  1
 19 20  1  6
 19 21  1  0
 20 37  1  0
 21 22  1  0
 21 38  1  6
 22 39  1  0
 22 40  1  0
M  CHG  2   2   1  11  -1
M  END
>  <i_m_ct_stereo_status>  (32) 
1

>  <s_m_source_file>  (32) 
/var/tmp/pbs.5076255.sched01/tmpbmel7479/053vx75p8.sdf

>  <i_m_source_file_index>  (32) 
12

>  <i_lp_mmshare_version>  (32) 
48012

>  <i_f3d_flags>  (32) 
0

>  <s_epik_input>  (32) 
W0NIMl0xW0NIMl1OKFtDSDNdKVtDQEBIXShbQ0gyXTIpW0NAQF0zKFtPSF0pW0NASF0oTzQpW0NASF00W0NIMl1bQ0BIXTVPYzZjKFtPSF0pW2NIXVtjSF1jMmM2W0NAQF0xMzU=

>  <s_epik_cmdline>  (32) 
J2VwaWtfcHl0aG9uJywgJy1waHQnLCAnMi4wJywgJy1waCcsICc3LjAnLCAnLXRuJywgJzgnLCAnLW1hJywgJzIwMCcsICctaW1hZScsICc8aW5maWxlLm1hZT4nLCAnLW9tYWUnLCAnPG91dGZpbGUubWFlPic=

>  <r_epik_Ionization_Penalty>  (32) 
2.28529

>  <r_epik_Ionization_Penalty_Charging>  (32) 
2.28529

>  <r_epik_Ionization_Penalty_Neutral>  (32) 
8.52005e-07

>  <r_epik_State_Penalty>  (32) 
2.42403

>  <r_epik_Charging_Adjusted_Penalty>  (32) 
4.70932

>  <i_epik_Tot_Q>  (32) 
0

>  <i_epik_Tot_abs_Q>  (32) 
2

>  <s_lp_Force_Field>  (32) 
OPLS3e

>  <r_lp_Energy>  (32) 
59.173

>  <b_lp_Chiralities_Consistent>  (32) 
1

>  <s_lp_Variant>  (32) 
7:0-3

>  <s_i_glide_gridfile>  (32) 
pfpi4k_grid

>  <i_i_glide_lignum>  (32) 
12

>  <i_i_glide_rotatable_bonds>  (32) 
1

>  <r_i_docking_score>  (32) 
-3.80668

>  <r_i_glide_ligand_efficiency>  (32) 
-0.173031

>  <r_i_glide_ligand_efficiency_sa>  (32) 
-0.484839

>  <r_i_glide_ligand_efficiency_ln>  (32) 
-0.930491

>  <r_i_glide_gscore>  (32) 
-3.80668

>  <r_i_glide_lipo>  (32) 
-0.799655

>  <r_i_glide_hbond>  (32) 
0

>  <r_i_glide_metal>  (32) 
-0

>  <r_i_glide_rewards>  (32) 
-1.35452

>  <r_i_glide_evdw>  (32) 
-21.1064

>  <r_i_glide_ecoul>  (32) 
-3.92275

>  <r_i_glide_erotb>  (32) 
0

>  <r_i_glide_esite>  (32) 
-0.00877035

>  <r_i_glide_emodel>  (32) 
-33.5117

>  <r_i_glide_energy>  (32) 
-25.0292

>  <r_i_glide_einternal>  (32) 
0.0121374

>  <r_i_glide_intrahb_reward>  (32) 
-0

>  <i_i_glide_confnum>  (32) 
1

>  <i_i_glide_posenum>  (32) 
20

>  <r_i_glide_eff_state_penalty>  (32) 
0

>  <ligand_id>  (32) 
7

>  <original_smiles>  (32) 
CN1CCC23c4c5ccc(O)c4OC2CC2OC2C3(O)C1C5

>  <smiles>  (32) 
[H]OC12C3([H])OC3([H])C([H])([H])C3([H])Oc4c([O-])c([H])c([H])c5c4C31C([H])([H])C([H])([H])[N+]([H])(C([H])([H])[H])C2([H])C5([H])[H]

$$$$
7:2:2
     RDKit          3D

 41 46  0  0  1  0  0  0  0  0999 V2000
    4.2599   -2.4875   -3.7701 C   0  0  0  0  0  0  0  0  0  0  0  0
    3.9034   -3.3170   -2.5973 N   0  0  1  0  0  0  0  0  0  0  0  0
    5.0232   -4.1811   -2.1593 C   0  0  0  0  0  0  0  0  0  0  0  0
    5.9380   -3.4918   -1.1354 C   0  0  0  0  0  0  0  0  0  0  0  0
    5.1201   -2.8924    0.0393 C   0  0  1  0  0  0  0  0  0  0  0  0
    4.3204   -3.9959    0.6852 C   0  0  0  0  0  0  0  0  0  0  0  0
    3.0442   -4.4479    0.3125 C   0  0  0  0  0  0  0  0  0  0  0  0
    2.5557   -5.5748    1.0006 C   0  0  0  0  0  0  0  0  0  0  0  0
    3.3502   -6.1731    2.0084 C   0  0  0  0  0  0  0  0  0  0  0  0
    4.6035   -5.6280    2.3775 C   0  0  0  0  0  0  0  0  0  0  0  0
    5.3283   -6.1958    3.3833 O   0  0  0  0  0  0  0  0  0  0  0  0
    5.0968   -4.4824    1.7122 C   0  0  0  0  0  0  0  0  0  0  0  0
    6.2297   -3.7535    1.9352 O   0  0  0  0  0  0  0  0  0  0  0  0
    6.0698   -2.5141    1.2192 C   0  0  2  0  0  0  0  0  0  0  0  0
    5.5200   -1.4849    2.2399 C   0  0  0  0  0  0  0  0  0  0  0  0
    4.1327   -0.9519    1.9430 C   0  0  1  0  0  0  0  0  0  0  0  0
    4.1474    0.1326    1.0235 O   0  0  0  0  0  0  0  0  0  0  0  0
    3.4781   -1.0524    0.5733 C   0  0  1  0  0  0  0  0  0  0  0  0
    4.1768   -1.8219   -0.5459 C   0  0  1  0  0  0  0  0  0  0  0  0
    4.8643   -0.8491   -1.3210 O   0  0  0  0  0  0  0  0  0  0  0  0
    3.2004   -2.5848   -1.4969 C   0  0  2  0  0  0  0  0  0  0  0  0
    2.3283   -3.5993   -0.7264 C   0  0  0  0  0  0  0  0  0  0  0  0
    5.1304   -1.8696   -3.5547 H   0  0  0  0  0  0  0  0  0  0  0  0
    3.4374   -1.8391   -4.0761 H   0  0  0  0  0  0  0  0  0  0  0  0
    4.5187   -3.1366   -4.6077 H   0  0  0  0  0  0  0  0  0  0  0  0
    4.6365   -5.0951   -1.7157 H   0  0  0  0  0  0  0  0  0  0  0  0
    5.5849   -4.4932   -3.0371 H   0  0  0  0  0  0  0  0  0  0  0  0
    6.6530   -4.2230   -0.7510 H   0  0  0  0  0  0  0  0  0  0  0  0
    6.5367   -2.7274   -1.6383 H   0  0  0  0  0  0  0  0  0  0  0  0
    1.5848   -5.9764    0.7606 H   0  0  0  0  0  0  0  0  0  0  0  0
    2.9815   -7.0487    2.5194 H   0  0  0  0  0  0  0  0  0  0  0  0
    7.0398   -2.1780    0.8523 H   0  0  0  0  0  0  0  0  0  0  0  0
    5.5079   -1.9198    3.2381 H   0  0  0  0  0  0  0  0  0  0  0  0
    6.1982   -0.6323    2.2989 H   0  0  0  0  0  0  0  0  0  0  0  0
    3.5018   -0.7678    2.8129 H   0  0  0  0  0  0  0  0  0  0  0  0
    2.3956   -0.9642    0.5375 H   0  0  0  0  0  0  0  0  0  0  0  0
    4.2928   -0.1018   -1.4368 H   0  0  0  0  0  0  0  0  0  0  0  0
    2.5305   -1.8660   -1.9719 H   0  0  0  0  0  0  0  0  0  0  0  0
    1.7828   -4.2447   -1.4160 H   0  0  0  0  0  0  0  0  0  0  0  0
    1.5771   -3.0414   -0.1881 H   0  0  0  0  0  0  0  0  0  0  0  0
    3.2178   -3.9753   -2.9433 H   0  0  0  0  0  0  0  0  0  0  0  0
  1  2  1  0
  1 23  1  0
  1 24  1  0
  1 25  1  0
  2 21  1  0
  2  3  1  0
  2 41  1  6
  3  4  1  0
  3 26  1  0
  3 27  1  0
  5  4  1  6
  4 28  1  0
  4 29  1  0
  5 14  1  0
  5 19  1  0
  5  6  1  0
  6 12  2  0
  6  7  1  0
  7 22  1  0
  7  8  2  0
  8  9  1  0
  8 30  1  0
  9 10  2  0
  9 31  1  0
 10 11  1  0
 10 12  1  0
 12 13  1  0
 13 14  1  0
 14 15  1  0
 14 32  1  6
 15 16  1  0
 15 33  1  0
 15 34  1  0
 16 18  1  0
 16 17  1  0
 16 35  1  1
 17 18  1  0
 18 19  1  0
 18 36  1  1
 19 20  1  6
 19 21  1  0
 20 37  1  0
 21 22  1  0
 21 38  1  6
 22 39  1  0
 22 40  1  0
M  CHG  2   2   1  11  -1
M  END
>  <i_m_ct_stereo_status>  (33) 
1

>  <s_m_source_file>  (33) 
/var/tmp/pbs.5076255.sched01/tmpbmel7479/053vx75p8.sdf

>  <i_m_source_file_index>  (33) 
12

>  <i_lp_mmshare_version>  (33) 
48012

>  <i_f3d_flags>  (33) 
0

>  <s_epik_input>  (33) 
W0NIMl0xW0NIMl1OKFtDSDNdKVtDQEBIXShbQ0gyXTIpW0NAQF0zKFtPSF0pW0NASF0oTzQpW0NASF00W0NIMl1bQ0BIXTVPYzZjKFtPSF0pW2NIXVtjSF1jMmM2W0NAQF0xMzU=

>  <s_epik_cmdline>  (33) 
J2VwaWtfcHl0aG9uJywgJy1waHQnLCAnMi4wJywgJy1waCcsICc3LjAnLCAnLXRuJywgJzgnLCAnLW1hJywgJzIwMCcsICctaW1hZScsICc8aW5maWxlLm1hZT4nLCAnLW9tYWUnLCAnPG91dGZpbGUubWFlPic=

>  <r_epik_Ionization_Penalty>  (33) 
2.28529

>  <r_epik_Ionization_Penalty_Charging>  (33) 
2.28529

>  <r_epik_Ionization_Penalty_Neutral>  (33) 
8.52005e-07

>  <r_epik_State_Penalty>  (33) 
2.42403

>  <r_epik_Charging_Adjusted_Penalty>  (33) 
4.70932

>  <i_epik_Tot_Q>  (33) 
0

>  <i_epik_Tot_abs_Q>  (33) 
2

>  <s_lp_Force_Field>  (33) 
OPLS3e

>  <r_lp_Energy>  (33) 
59.173

>  <b_lp_Chiralities_Consistent>  (33) 
1

>  <s_lp_Variant>  (33) 
7:0-3

>  <s_i_glide_gridfile>  (33) 
pfpi4k_grid

>  <i_i_glide_lignum>  (33) 
12

>  <i_i_glide_rotatable_bonds>  (33) 
1

>  <r_i_docking_score>  (33) 
-3.38189

>  <r_i_glide_ligand_efficiency>  (33) 
-0.153722

>  <r_i_glide_ligand_efficiency_sa>  (33) 
-0.430736

>  <r_i_glide_ligand_efficiency_ln>  (33) 
-0.826657

>  <r_i_glide_gscore>  (33) 
-3.38189

>  <r_i_glide_lipo>  (33) 
-0.554069

>  <r_i_glide_hbond>  (33) 
0

>  <r_i_glide_metal>  (33) 
-0

>  <r_i_glide_rewards>  (33) 
-1.35452

>  <r_i_glide_evdw>  (33) 
-17.6373

>  <r_i_glide_ecoul>  (33) 
-3.68731

>  <r_i_glide_erotb>  (33) 
0

>  <r_i_glide_esite>  (33) 
-0.0383384

>  <r_i_glide_emodel>  (33) 
-28.7622

>  <r_i_glide_energy>  (33) 
-21.3246

>  <r_i_glide_einternal>  (33) 
0.0570897

>  <r_i_glide_intrahb_reward>  (33) 
-0

>  <i_i_glide_confnum>  (33) 
2

>  <i_i_glide_posenum>  (33) 
6

>  <r_i_glide_eff_state_penalty>  (33) 
0

>  <ligand_id>  (33) 
7

>  <original_smiles>  (33) 
CN1CCC23c4c5ccc(O)c4OC2CC2OC2C3(O)C1C5

>  <smiles>  (33) 
[H]OC12C3([H])OC3([H])C([H])([H])C3([H])Oc4c([O-])c([H])c([H])c5c4C31C([H])([H])C([H])([H])[N+]([H])(C([H])([H])[H])C2([H])C5([H])[H]

$$$$
8:1:0
     RDKit          3D

 42 45  0  0  1  0  0  0  0  0999 V2000
    3.6662   -4.7042    2.6957 C   0  0  0  0  0  0  0  0  0  0  0  0
    2.7927   -4.9740    1.5310 N   0  0  0  0  0  0  0  0  0  0  0  0
    3.0291   -4.2347    0.3751 N   0  0  0  0  0  0  0  0  0  0  0  0
    3.2157   -2.9580    0.3688 C   0  0  0  0  0  0  0  0  0  0  0  0
    3.0963   -2.0399    1.5982 C   0  0  0  0  0  0  0  0  0  0  0  0
    4.4435   -1.2792    1.8056 C   0  0  0  0  0  0  0  0  0  0  0  0
    4.8519   -0.4679    0.5640 C   0  0  0  0  0  0  0  0  0  0  0  0
    4.8739   -1.3729   -0.6575 C   0  0  2  0  0  0  0  0  0  0  0  0
    6.1883   -1.9194   -1.1671 C   0  0  1  0  0  0  0  0  0  0  0  0
    6.2724   -3.3757   -1.5894 C   0  0  0  0  0  0  0  0  0  0  0  0
    4.9614   -3.8813   -2.2551 C   0  0  0  0  0  0  0  0  0  0  0  0
    3.8375   -2.8040   -2.2840 C   0  0  2  0  0  0  0  0  0  0  0  0
    2.5586   -3.2944   -2.9826 C   0  0  0  0  0  0  0  0  0  0  0  0
    4.4492   -1.5783   -3.0404 C   0  0  0  0  0  0  0  0  0  0  0  0
    5.3645   -0.9723   -2.0111 C   0  0  1  0  0  0  0  0  0  0  0  0
    3.5883   -2.1592   -0.8799 C   0  0  1  0  0  0  0  0  0  0  0  0
    1.7866   -5.8847    1.6397 C   0  0  0  0  0  0  0  0  0  0  0  0
    1.1766   -6.2230    0.4925 N   0  0  0  0  0  0  0  0  0  0  0  0
    1.2748   -6.6461    3.0399 S   0  0  0  0  0  0  0  0  0  0  0  0
    4.0981   -5.5732    3.1163 H   0  0  0  0  0  0  0  0  0  0  0  0
    3.0299   -4.1878    3.4402 H   0  0  0  0  0  0  0  0  0  0  0  0
    4.4641   -3.9794    2.4475 H   0  0  0  0  0  0  0  0  0  0  0  0
    2.3446   -1.2924    1.3329 H   0  0  0  0  0  0  0  0  0  0  0  0
    2.8104   -2.5697    2.4962 H   0  0  0  0  0  0  0  0  0  0  0  0
    4.3619   -0.6140    2.6628 H   0  0  0  0  0  0  0  0  0  0  0  0
    5.2544   -1.9682    2.0382 H   0  0  0  0  0  0  0  0  0  0  0  0
    4.1377    0.3460    0.4122 H   0  0  0  0  0  0  0  0  0  0  0  0
    5.8412    0.0001    0.7085 H   0  0  0  0  0  0  0  0  0  0  0  0
    7.0928   -1.5283   -0.6874 H   0  0  0  0  0  0  0  0  0  0  0  0
    7.1118   -3.4872   -2.2747 H   0  0  0  0  0  0  0  0  0  0  0  0
    6.4873   -3.9737   -0.7064 H   0  0  0  0  0  0  0  0  0  0  0  0
    5.1837   -4.1995   -3.2784 H   0  0  0  0  0  0  0  0  0  0  0  0
    4.6246   -4.7754   -1.7349 H   0  0  0  0  0  0  0  0  0  0  0  0
    1.8110   -2.5040   -3.0386 H   0  0  0  0  0  0  0  0  0  0  0  0
    2.1045   -4.1206   -2.4382 H   0  0  0  0  0  0  0  0  0  0  0  0
    2.7628   -3.6296   -4.0028 H   0  0  0  0  0  0  0  0  0  0  0  0
    5.0347   -1.8563   -3.9245 H   0  0  0  0  0  0  0  0  0  0  0  0
    3.6867   -0.8485   -3.3235 H   0  0  0  0  0  0  0  0  0  0  0  0
    5.6362    0.0790   -2.1383 H   0  0  0  0  0  0  0  0  0  0  0  0
    2.8180   -1.4128   -1.0286 H   0  0  0  0  0  0  0  0  0  0  0  0
    1.5343   -5.8680   -0.3802 H   0  0  0  0  0  0  0  0  0  0  0  0
    0.4756   -6.9610    0.5299 H   0  0  0  0  0  0  0  0  0  0  0  0
  1  2  1  0
  1 20  1  0
  1 21  1  0
  1 22  1  0
  2  3  1  0
  2 17  1  0
  3  4  2  3
  4 16  1  0
  4  5  1  0
  5  6  1  0
  5 23  1  0
  5 24  1  0
  6  7  1  0
  6 25  1  0
  6 26  1  0
  8  7  1  1
  7 27  1  0
  7 28  1  0
  8 15  1  0
  8 16  1  0
  8  9  1  0
  9 15  1  0
  9 10  1  0
  9 29  1  1
 10 11  1  0
 10 30  1  0
 10 31  1  0
 11 12  1  0
 11 32  1  0
 11 33  1  0
 12 13  1  6
 12 14  1  0
 12 16  1  0
 13 34  1  0
 13 35  1  0
 13 36  1  0
 14 15  1  0
 14 37  1  0
 14 38  1  0
 15 39  1  1
 16 40  1  6
 17 18  1  0
 17 19  2  0
 18 41  1  0
 18 42  1  0
M  END
>  <i_m_ct_stereo_status>  (34) 
1

>  <s_m_source_file>  (34) 
/var/tmp/pbs.5076255.sched01/tmpbmel7479/053vx75p8.sdf

>  <i_m_source_file_index>  (34) 
14

>  <i_lp_mmshare_version>  (34) 
48012

>  <i_f3d_flags>  (34) 
0

>  <s_epik_input>  (34) 
W05IMl1DKD1TKU4oW0NIM10pL049QygvW0NIMl1bQ0gyXVtDSDJdMSlbQ0BASF0yW0NAXShbQ0gzXSkoW0NIMl1bQ0gyXTMpW0NIMl1bQ0BASF00W0NASF0zW0NAXTEyNA==

>  <s_epik_cmdline>  (34) 
J2VwaWtfcHl0aG9uJywgJy1waHQnLCAnMi4wJywgJy1waCcsICc3LjAnLCAnLXRuJywgJzgnLCAnLW1hJywgJzIwMCcsICctaW1hZScsICc8aW5maWxlLm1hZT4nLCAnLW9tYWUnLCAnPG91dGZpbGUubWFlPic=

>  <r_lp_tautomer_probability>  (34) 
1

>  <r_epik_Ionization_Penalty>  (34) 
1.0204e-05

>  <r_epik_Ionization_Penalty_Charging>  (34) 
0

>  <r_epik_Ionization_Penalty_Neutral>  (34) 
1.0204e-05

>  <r_epik_State_Penalty>  (34) 
-0

>  <r_epik_Charging_Adjusted_Penalty>  (34) 
0

>  <i_epik_Tot_Q>  (34) 
0

>  <i_epik_Tot_abs_Q>  (34) 
0

>  <s_epik_Chemistry_Notes>  (34) 
This compound has an imine and may undergo hydrolysis.

>  <s_lp_Force_Field>  (34) 
OPLS3e

>  <r_lp_Energy>  (34) 
56.1037

>  <b_lp_Chiralities_Consistent>  (34) 
1

>  <s_lp_Variant>  (34) 
8:0-2

>  <s_i_glide_gridfile>  (34) 
pfpi4k_grid

>  <i_i_glide_lignum>  (34) 
14

>  <i_i_glide_rotatable_bonds>  (34) 
2

>  <r_i_docking_score>  (34) 
-3.37053

>  <r_i_glide_ligand_efficiency>  (34) 
-0.177396

>  <r_i_glide_ligand_efficiency_sa>  (34) 
-0.473365

>  <r_i_glide_ligand_efficiency_ln>  (34) 
-0.854503

>  <r_i_glide_gscore>  (34) 
-3.37053

>  <r_i_glide_lipo>  (34) 
-0.509018

>  <r_i_glide_hbond>  (34) 
0

>  <r_i_glide_metal>  (34) 
-0

>  <r_i_glide_rewards>  (34) 
-1.51753

>  <r_i_glide_evdw>  (34) 
-21.8759

>  <r_i_glide_ecoul>  (34) 
-1.83169

>  <r_i_glide_erotb>  (34) 
0.23398

>  <r_i_glide_esite>  (34) 
-0.209418

>  <r_i_glide_emodel>  (34) 
-26.6195

>  <r_i_glide_energy>  (34) 
-23.7076

>  <r_i_glide_einternal>  (34) 
1.25259

>  <r_i_glide_intrahb_reward>  (34) 
-0

>  <i_i_glide_confnum>  (34) 
1

>  <i_i_glide_posenum>  (34) 
32

>  <r_i_glide_eff_state_penalty>  (34) 
0

>  <ligand_id>  (34) 
8

>  <original_smiles>  (34) 
CN(N=C1CCCC23C4CCC(C)(CC42)C13)C(N)=S

>  <smiles>  (34) 
[H]N([H])C(=S)N(N=C1C([H])([H])C([H])([H])C([H])([H])C23C1([H])C1(C([H])([H])[H])C([H])([H])C([H])([H])C2([H])C3([H])C1([H])[H])C([H])([H])[H]

$$$$
8:1:1
     RDKit          3D

 42 45  0  0  1  0  0  0  0  0999 V2000
    1.9006   -4.2428    2.9405 C   0  0  0  0  0  0  0  0  0  0  0  0
    2.9027   -4.8139    2.0144 N   0  0  0  0  0  0  0  0  0  0  0  0
    3.1472   -4.1482    0.8202 N   0  0  0  0  0  0  0  0  0  0  0  0
    3.3233   -2.8646    0.7087 C   0  0  0  0  0  0  0  0  0  0  0  0
    3.3444   -1.8966    1.8913 C   0  0  0  0  0  0  0  0  0  0  0  0
    4.6255   -1.0631    1.9171 C   0  0  0  0  0  0  0  0  0  0  0  0
    4.8718   -0.3333    0.5888 C   0  0  0  0  0  0  0  0  0  0  0  0
    4.8028   -1.3252   -0.5696 C   0  0  2  0  0  0  0  0  0  0  0  0
    6.0708   -1.9102   -1.1292 C   0  0  1  0  0  0  0  0  0  0  0  0
    6.1329   -3.3992   -1.4469 C   0  0  0  0  0  0  0  0  0  0  0  0
    4.7800   -3.9521   -1.9696 C   0  0  0  0  0  0  0  0  0  0  0  0
    3.6506   -2.8834   -1.9840 C   0  0  2  0  0  0  0  0  0  0  0  0
    2.3218   -3.4352   -2.5383 C   0  0  0  0  0  0  0  0  0  0  0  0
    4.1834   -1.7202   -2.8802 C   0  0  0  0  0  0  0  0  0  0  0  0
    5.1784   -1.0323   -1.9769 C   0  0  1  0  0  0  0  0  0  0  0  0
    3.5292   -2.1448   -0.6128 C   0  0  1  0  0  0  0  0  0  0  0  0
    3.4253   -6.0586    2.2286 C   0  0  0  0  0  0  0  0  0  0  0  0
    3.1222   -6.5599    3.4588 N   0  0  0  0  0  0  0  0  0  0  0  0
    4.3835   -6.9560    1.2120 S   0  0  0  0  0  0  0  0  0  0  0  0
    2.3991   -4.0462    3.8935 H   0  0  0  0  0  0  0  0  0  0  0  0
    1.0832   -4.9043    3.1255 H   0  0  0  0  0  0  0  0  0  0  0  0
    1.5502   -3.2542    2.5976 H   0  0  0  0  0  0  0  0  0  0  0  0
    2.4822   -1.2191    1.7896 H   0  0  0  0  0  0  0  0  0  0  0  0
    3.2695   -2.3965    2.8574 H   0  0  0  0  0  0  0  0  0  0  0  0
    4.5680   -0.3377    2.7282 H   0  0  0  0  0  0  0  0  0  0  0  0
    5.4673   -1.7197    2.1360 H   0  0  0  0  0  0  0  0  0  0  0  0
    4.1209    0.4498    0.4515 H   0  0  0  0  0  0  0  0  0  0  0  0
    5.8553    0.1496    0.6083 H   0  0  0  0  0  0  0  0  0  0  0  0
    7.0005   -1.4896   -0.7393 H   0  0  0  0  0  0  0  0  0  0  0  0
    6.9127   -3.5584   -2.1872 H   0  0  0  0  0  0  0  0  0  0  0  0
    6.4203   -3.9330   -0.5453 H   0  0  0  0  0  0  0  0  0  0  0  0
    4.9221   -4.3450   -2.9838 H   0  0  0  0  0  0  0  0  0  0  0  0
    4.4846   -4.8096   -1.3656 H   0  0  0  0  0  0  0  0  0  0  0  0
    1.5595   -2.6591   -2.5985 H   0  0  0  0  0  0  0  0  0  0  0  0
    1.9286   -4.2353   -1.9135 H   0  0  0  0  0  0  0  0  0  0  0  0
    2.4500   -3.8374   -3.5487 H   0  0  0  0  0  0  0  0  0  0  0  0
    4.6805   -2.0540   -3.7965 H   0  0  0  0  0  0  0  0  0  0  0  0
    3.3961   -1.0136   -3.1509 H   0  0  0  0  0  0  0  0  0  0  0  0
    5.4351    0.0037   -2.2070 H   0  0  0  0  0  0  0  0  0  0  0  0
    2.7198   -1.4377   -0.7203 H   0  0  0  0  0  0  0  0  0  0  0  0
    2.5807   -6.0204    4.0902 H   0  0  0  0  0  0  0  0  0  0  0  0
    3.4737   -7.4723    3.7050 H   0  0  0  0  0  0  0  0  0  0  0  0
  1  2  1  0
  1 20  1  0
  1 21  1  0
  1 22  1  0
  2  3  1  0
  2 17  1  0
  3  4  2  3
  4 16  1  0
  4  5  1  0
  5  6  1  0
  5 23  1  0
  5 24  1  0
  6  7  1  0
  6 25  1  0
  6 26  1  0
  8  7  1  1
  7 27  1  0
  7 28  1  0
  8 15  1  0
  8 16  1  0
  8  9  1  0
  9 15  1  0
  9 10  1  0
  9 29  1  1
 10 11  1  0
 10 30  1  0
 10 31  1  0
 11 12  1  0
 11 32  1  0
 11 33  1  0
 12 13  1  6
 12 14  1  0
 12 16  1  0
 13 34  1  0
 13 35  1  0
 13 36  1  0
 14 15  1  0
 14 37  1  0
 14 38  1  0
 15 39  1  1
 16 40  1  6
 17 18  1  0
 17 19  2  0
 18 41  1  0
 18 42  1  0
M  END
>  <i_m_ct_stereo_status>  (35) 
1

>  <s_m_source_file>  (35) 
/var/tmp/pbs.5076255.sched01/tmpbmel7479/053vx75p8.sdf

>  <i_m_source_file_index>  (35) 
14

>  <i_lp_mmshare_version>  (35) 
48012

>  <i_f3d_flags>  (35) 
0

>  <s_epik_input>  (35) 
W05IMl1DKD1TKU4oW0NIM10pL049QygvW0NIMl1bQ0gyXVtDSDJdMSlbQ0BASF0yW0NAXShbQ0gzXSkoW0NIMl1bQ0gyXTMpW0NIMl1bQ0BASF00W0NASF0zW0NAXTEyNA==

>  <s_epik_cmdline>  (35) 
J2VwaWtfcHl0aG9uJywgJy1waHQnLCAnMi4wJywgJy1waCcsICc3LjAnLCAnLXRuJywgJzgnLCAnLW1hJywgJzIwMCcsICctaW1hZScsICc8aW5maWxlLm1hZT4nLCAnLW9tYWUnLCAnPG91dGZpbGUubWFlPic=

>  <r_lp_tautomer_probability>  (35) 
1

>  <r_epik_Ionization_Penalty>  (35) 
1.0204e-05

>  <r_epik_Ionization_Penalty_Charging>  (35) 
0

>  <r_epik_Ionization_Penalty_Neutral>  (35) 
1.0204e-05

>  <r_epik_State_Penalty>  (35) 
-0

>  <r_epik_Charging_Adjusted_Penalty>  (35) 
0

>  <i_epik_Tot_Q>  (35) 
0

>  <i_epik_Tot_abs_Q>  (35) 
0

>  <s_epik_Chemistry_Notes>  (35) 
This compound has an imine and may undergo hydrolysis.

>  <s_lp_Force_Field>  (35) 
OPLS3e

>  <r_lp_Energy>  (35) 
56.1037

>  <b_lp_Chiralities_Consistent>  (35) 
1

>  <s_lp_Variant>  (35) 
8:0-2

>  <s_i_glide_gridfile>  (35) 
pfpi4k_grid

>  <i_i_glide_lignum>  (35) 
14

>  <i_i_glide_rotatable_bonds>  (35) 
2

>  <r_i_docking_score>  (35) 
-3.30867

>  <r_i_glide_ligand_efficiency>  (35) 
-0.17414

>  <r_i_glide_ligand_efficiency_sa>  (35) 
-0.464677

>  <r_i_glide_ligand_efficiency_ln>  (35) 
-0.838818

>  <r_i_glide_gscore>  (35) 
-3.30867

>  <r_i_glide_lipo>  (35) 
-0.605927

>  <r_i_glide_hbond>  (35) 
0

>  <r_i_glide_metal>  (35) 
-0

>  <r_i_glide_rewards>  (35) 
-1.65321

>  <r_i_glide_evdw>  (35) 
-21.4407

>  <r_i_glide_ecoul>  (35) 
-1.25924

>  <r_i_glide_erotb>  (35) 
0.23398

>  <r_i_glide_esite>  (35) 
-0.0225893

>  <r_i_glide_emodel>  (35) 
-21.9899

>  <r_i_glide_energy>  (35) 
-22.6999

>  <r_i_glide_einternal>  (35) 
7.73585

>  <r_i_glide_intrahb_reward>  (35) 
-0

>  <i_i_glide_confnum>  (35) 
3

>  <i_i_glide_posenum>  (35) 
8

>  <r_i_glide_eff_state_penalty>  (35) 
0

>  <ligand_id>  (35) 
8

>  <original_smiles>  (35) 
CN(N=C1CCCC23C4CCC(C)(CC42)C13)C(N)=S

>  <smiles>  (35) 
[H]N([H])C(=S)N(N=C1C([H])([H])C([H])([H])C([H])([H])C23C1([H])C1(C([H])([H])[H])C([H])([H])C([H])([H])C2([H])C3([H])C1([H])[H])C([H])([H])[H]

$$$$
9:0:0
     RDKit          3D

 14 15  0  0  1  0  0  0  0  0999 V2000
    2.7612   -7.5063    1.6812 C   0  0  0  0  0  0  0  0  0  0  0  0
    1.9587   -6.4251    1.2591 C   0  0  0  0  0  0  0  0  0  0  0  0
    0.6238   -6.3333    1.4673 N   0  0  0  0  0  0  0  0  0  0  0  0
    0.0927   -7.3947    2.1466 C   0  0  0  0  0  0  0  0  0  0  0  0
   -1.2412   -7.4913    2.4903 O   0  0  0  0  0  0  0  0  0  0  0  0
   -1.3935   -8.6744    3.1621 C   0  0  0  0  0  0  0  0  0  0  0  0
   -0.2083   -9.3550    3.2825 C   0  0  0  0  0  0  0  0  0  0  0  0
    0.7763   -8.5387    2.6326 C   0  0  0  0  0  0  0  0  0  0  0  0
    2.1627   -8.5806    2.3716 C   0  0  0  0  0  0  0  0  0  0  0  0
    3.8203   -7.5217    1.4642 H   0  0  0  0  0  0  0  0  0  0  0  0
    2.4095   -5.6044    0.7162 H   0  0  0  0  0  0  0  0  0  0  0  0
   -2.3942   -8.9031    3.4987 H   0  0  0  0  0  0  0  0  0  0  0  0
   -0.0538  -10.3059    3.7748 H   0  0  0  0  0  0  0  0  0  0  0  0
    2.7535   -9.4229    2.7023 H   0  0  0  0  0  0  0  0  0  0  0  0
  1  9  2  0
  1  2  1  0
  1 10  1  0
  2  3  2  0
  2 11  1  0
  3  4  1  0
  4  8  2  0
  4  5  1  0
  5  6  1  0
  6  7  2  0
  6 12  1  0
  7  8  1  0
  7 13  1  0
  8  9  1  0
  9 14  1  0
M  END
>  <i_m_ct_stereo_status>  (36) 
1

>  <s_m_source_file>  (36) 
/var/tmp/pbs.5076255.sched01/tmpbmel7479/053vx75p8.sdf

>  <i_m_source_file_index>  (36) 
15

>  <i_lp_mmshare_version>  (36) 
48012

>  <i_f3d_flags>  (36) 
0

>  <s_epik_input>  (36) 
bjFbY0hdW2NIXVtjSF1jKGMxMilbY0hdW2NIXW8y

>  <s_epik_cmdline>  (36) 
J2VwaWtfcHl0aG9uJywgJy1waHQnLCAnMi4wJywgJy1waCcsICc3LjAnLCAnLXRuJywgJzgnLCAnLW1hJywgJzIwMCcsICctaW1hZScsICc8aW5maWxlLm1hZT4nLCAnLW9tYWUnLCAnPG91dGZpbGUubWFlPic=

>  <r_lp_tautomer_probability>  (36) 
1

>  <r_epik_Ionization_Penalty>  (36) 
2.11679e-10

>  <r_epik_Ionization_Penalty_Charging>  (36) 
0

>  <r_epik_Ionization_Penalty_Neutral>  (36) 
2.11679e-10

>  <r_epik_State_Penalty>  (36) 
-0

>  <r_epik_Charging_Adjusted_Penalty>  (36) 
0

>  <i_epik_Tot_Q>  (36) 
0

>  <i_epik_Tot_abs_Q>  (36) 
0

>  <s_lp_Force_Field>  (36) 
OPLS3e

>  <r_lp_Energy>  (36) 
15.499

>  <b_lp_Chiralities_Consistent>  (36) 
1

>  <s_lp_Variant>  (36) 
9:0-1

>  <s_i_glide_gridfile>  (36) 
pfpi4k_grid

>  <i_i_glide_lignum>  (36) 
15

>  <i_i_glide_rotatable_bonds>  (36) 
0

>  <r_i_docking_score>  (36) 
-3.75127

>  <r_i_glide_ligand_efficiency>  (36) 
-0.416808

>  <r_i_glide_ligand_efficiency_sa>  (36) 
-0.866996

>  <r_i_glide_ligand_efficiency_ln>  (36) 
-1.17329

>  <r_i_glide_gscore>  (36) 
-3.75127

>  <r_i_glide_lipo>  (36) 
-0.00276996

>  <r_i_glide_hbond>  (36) 
-0.208374

>  <r_i_glide_metal>  (36) 
-0

>  <r_i_glide_rewards>  (36) 
-2.25

>  <r_i_glide_evdw>  (36) 
-13.3814

>  <r_i_glide_ecoul>  (36) 
-4.14042

>  <r_i_glide_erotb>  (36) 
0

>  <r_i_glide_esite>  (36) 
0

>  <r_i_glide_emodel>  (36) 
-22.5423

>  <r_i_glide_energy>  (36) 
-17.5218

>  <r_i_glide_einternal>  (36) 
0

>  <r_i_glide_intrahb_reward>  (36) 
-0

>  <i_i_glide_confnum>  (36) 
1

>  <i_i_glide_posenum>  (36) 
8

>  <r_i_glide_eff_state_penalty>  (36) 
0

>  <ligand_id>  (36) 
9

>  <original_smiles>  (36) 
c1cnc2occc2c1

>  <smiles>  (36) 
[H]c1nc2oc([H])c([H])c2c([H])c1[H]

$$$$
9:0:1
     RDKit          3D

 14 15  0  0  1  0  0  0  0  0999 V2000
   -0.6050   -9.0440    2.8578 C   0  0  0  0  0  0  0  0  0  0  0  0
   -0.5934   -7.8849    2.0543 C   0  0  0  0  0  0  0  0  0  0  0  0
   -0.2087   -6.6620    2.4805 N   0  0  0  0  0  0  0  0  0  0  0  0
    0.1989   -6.6304    3.7833 C   0  0  0  0  0  0  0  0  0  0  0  0
    0.6216   -5.4847    4.4255 O   0  0  0  0  0  0  0  0  0  0  0  0
    0.9345   -5.8346    5.7123 C   0  0  0  0  0  0  0  0  0  0  0  0
    0.7200   -7.1725    5.9486 C   0  0  0  0  0  0  0  0  0  0  0  0
    0.2382   -7.7114    4.7058 C   0  0  0  0  0  0  0  0  0  0  0  0
   -0.1818   -8.9616    4.1999 C   0  0  0  0  0  0  0  0  0  0  0  0
   -0.9265   -9.9901    2.4415 H   0  0  0  0  0  0  0  0  0  0  0  0
   -0.9122   -7.9414    1.0238 H   0  0  0  0  0  0  0  0  0  0  0  0
    1.2962   -5.0264    6.3284 H   0  0  0  0  0  0  0  0  0  0  0  0
    0.8825   -7.7194    6.8666 H   0  0  0  0  0  0  0  0  0  0  0  0
   -0.1854   -9.8434    4.8296 H   0  0  0  0  0  0  0  0  0  0  0  0
  1  9  2  0
  1  2  1  0
  1 10  1  0
  2  3  2  0
  2 11  1  0
  3  4  1  0
  4  8  2  0
  4  5  1  0
  5  6  1  0
  6  7  2  0
  6 12  1  0
  7  8  1  0
  7 13  1  0
  8  9  1  0
  9 14  1  0
M  END
>  <i_m_ct_stereo_status>  (37) 
1

>  <s_m_source_file>  (37) 
/var/tmp/pbs.5076255.sched01/tmpbmel7479/053vx75p8.sdf

>  <i_m_source_file_index>  (37) 
15

>  <i_lp_mmshare_version>  (37) 
48012

>  <i_f3d_flags>  (37) 
0

>  <s_epik_input>  (37) 
bjFbY0hdW2NIXVtjSF1jKGMxMilbY0hdW2NIXW8y

>  <s_epik_cmdline>  (37) 
J2VwaWtfcHl0aG9uJywgJy1waHQnLCAnMi4wJywgJy1waCcsICc3LjAnLCAnLXRuJywgJzgnLCAnLW1hJywgJzIwMCcsICctaW1hZScsICc8aW5maWxlLm1hZT4nLCAnLW9tYWUnLCAnPG91dGZpbGUubWFlPic=

>  <r_lp_tautomer_probability>  (37) 
1

>  <r_epik_Ionization_Penalty>  (37) 
2.11679e-10

>  <r_epik_Ionization_Penalty_Charging>  (37) 
0

>  <r_epik_Ionization_Penalty_Neutral>  (37) 
2.11679e-10

>  <r_epik_State_Penalty>  (37) 
-0

>  <r_epik_Charging_Adjusted_Penalty>  (37) 
0

>  <i_epik_Tot_Q>  (37) 
0

>  <i_epik_Tot_abs_Q>  (37) 
0

>  <s_lp_Force_Field>  (37) 
OPLS3e

>  <r_lp_Energy>  (37) 
15.499

>  <b_lp_Chiralities_Consistent>  (37) 
1

>  <s_lp_Variant>  (37) 
9:0-1

>  <s_i_glide_gridfile>  (37) 
pfpi4k_grid

>  <i_i_glide_lignum>  (37) 
15

>  <i_i_glide_rotatable_bonds>  (37) 
0

>  <r_i_docking_score>  (37) 
-3.44244

>  <r_i_glide_ligand_efficiency>  (37) 
-0.382493

>  <r_i_glide_ligand_efficiency_sa>  (37) 
-0.795618

>  <r_i_glide_ligand_efficiency_ln>  (37) 
-1.0767

>  <r_i_glide_gscore>  (37) 
-3.44244

>  <r_i_glide_lipo>  (37) 
0

>  <r_i_glide_hbond>  (37) 
-0.16

>  <r_i_glide_metal>  (37) 
-0

>  <r_i_glide_rewards>  (37) 
-2.25

>  <r_i_glide_evdw>  (37) 
-10.4479

>  <r_i_glide_ecoul>  (37) 
-3.40031

>  <r_i_glide_erotb>  (37) 
0

>  <r_i_glide_esite>  (37) 
0

>  <r_i_glide_emodel>  (37) 
-18.4562

>  <r_i_glide_energy>  (37) 
-13.8482

>  <r_i_glide_einternal>  (37) 
0

>  <r_i_glide_intrahb_reward>  (37) 
-0

>  <i_i_glide_confnum>  (37) 
1

>  <i_i_glide_posenum>  (37) 
21

>  <r_i_glide_eff_state_penalty>  (37) 
0

>  <ligand_id>  (37) 
9

>  <original_smiles>  (37) 
c1cnc2occc2c1

>  <smiles>  (37) 
[H]c1nc2oc([H])c([H])c2c([H])c1[H]

$$$$
9:0:2
     RDKit          3D

 14 15  0  0  1  0  0  0  0  0999 V2000
   -0.3605   -9.4181    2.8732 C   0  0  0  0  0  0  0  0  0  0  0  0
   -0.9448   -8.2432    2.3589 C   0  0  0  0  0  0  0  0  0  0  0  0
   -0.9913   -7.0605    3.0159 N   0  0  0  0  0  0  0  0  0  0  0  0
   -0.4320   -7.0963    4.2632 C   0  0  0  0  0  0  0  0  0  0  0  0
   -0.3820   -6.0095    5.1135 O   0  0  0  0  0  0  0  0  0  0  0  0
    0.2540   -6.4190    6.2536 C   0  0  0  0  0  0  0  0  0  0  0  0
    0.6192   -7.7411    6.1928 C   0  0  0  0  0  0  0  0  0  0  0  0
    0.1838   -8.2024    4.9045 C   0  0  0  0  0  0  0  0  0  0  0  0
    0.2147   -9.4014    4.1591 C   0  0  0  0  0  0  0  0  0  0  0  0
   -0.3530  -10.3226    2.2801 H   0  0  0  0  0  0  0  0  0  0  0  0
   -1.3843   -8.2587    1.3701 H   0  0  0  0  0  0  0  0  0  0  0  0
    0.3713   -5.6583    7.0118 H   0  0  0  0  0  0  0  0  0  0  0  0
    1.1333   -8.3266    6.9420 H   0  0  0  0  0  0  0  0  0  0  0  0
    0.6563  -10.2961    4.5756 H   0  0  0  0  0  0  0  0  0  0  0  0
  1  9  2  0
  1  2  1  0
  1 10  1  0
  2  3  2  0
  2 11  1  0
  3  4  1  0
  4  8  2  0
  4  5  1  0
  5  6  1  0
  6  7  2  0
  6 12  1  0
  7  8  1  0
  7 13  1  0
  8  9  1  0
  9 14  1  0
M  END
>  <i_m_ct_stereo_status>  (38) 
1

>  <s_m_source_file>  (38) 
/var/tmp/pbs.5076255.sched01/tmpbmel7479/053vx75p8.sdf

>  <i_m_source_file_index>  (38) 
15

>  <i_lp_mmshare_version>  (38) 
48012

>  <i_f3d_flags>  (38) 
0

>  <s_epik_input>  (38) 
bjFbY0hdW2NIXVtjSF1jKGMxMilbY0hdW2NIXW8y

>  <s_epik_cmdline>  (38) 
J2VwaWtfcHl0aG9uJywgJy1waHQnLCAnMi4wJywgJy1waCcsICc3LjAnLCAnLXRuJywgJzgnLCAnLW1hJywgJzIwMCcsICctaW1hZScsICc8aW5maWxlLm1hZT4nLCAnLW9tYWUnLCAnPG91dGZpbGUubWFlPic=

>  <r_lp_tautomer_probability>  (38) 
1

>  <r_epik_Ionization_Penalty>  (38) 
2.11679e-10

>  <r_epik_Ionization_Penalty_Charging>  (38) 
0

>  <r_epik_Ionization_Penalty_Neutral>  (38) 
2.11679e-10

>  <r_epik_State_Penalty>  (38) 
-0

>  <r_epik_Charging_Adjusted_Penalty>  (38) 
0

>  <i_epik_Tot_Q>  (38) 
0

>  <i_epik_Tot_abs_Q>  (38) 
0

>  <s_lp_Force_Field>  (38) 
OPLS3e

>  <r_lp_Energy>  (38) 
15.499

>  <b_lp_Chiralities_Consistent>  (38) 
1

>  <s_lp_Variant>  (38) 
9:0-1

>  <s_i_glide_gridfile>  (38) 
pfpi4k_grid

>  <i_i_glide_lignum>  (38) 
15

>  <i_i_glide_rotatable_bonds>  (38) 
0

>  <r_i_docking_score>  (38) 
-3.43751

>  <r_i_glide_ligand_efficiency>  (38) 
-0.381946

>  <r_i_glide_ligand_efficiency_sa>  (38) 
-0.794479

>  <r_i_glide_ligand_efficiency_ln>  (38) 
-1.07515

>  <r_i_glide_gscore>  (38) 
-3.43751

>  <r_i_glide_lipo>  (38) 
0

>  <r_i_glide_hbond>  (38) 
-0.16

>  <r_i_glide_metal>  (38) 
-0

>  <r_i_glide_rewards>  (38) 
-2.25

>  <r_i_glide_evdw>  (38) 
-11.8856

>  <r_i_glide_ecoul>  (38) 
-2.88821

>  <r_i_glide_erotb>  (38) 
0

>  <r_i_glide_esite>  (38) 
0

>  <r_i_glide_emodel>  (38) 
-19.3758

>  <r_i_glide_energy>  (38) 
-14.7738

>  <r_i_glide_einternal>  (38) 
0

>  <r_i_glide_intrahb_reward>  (38) 
-0

>  <i_i_glide_confnum>  (38) 
1

>  <i_i_glide_posenum>  (38) 
24

>  <r_i_glide_eff_state_penalty>  (38) 
0

>  <ligand_id>  (38) 
9

>  <original_smiles>  (38) 
c1cnc2occc2c1

>  <smiles>  (38) 
[H]c1nc2oc([H])c([H])c2c([H])c1[H]

$$$$
10:0:0
     RDKit          3D

 52 57  0  0  1  0  0  0  0  0999 V2000
    5.7662   -5.0553    3.7117 C   0  0  0  0  0  0  0  0  0  0  0  0
    5.2468   -4.4801    2.3736 C   0  0  2  0  0  0  0  0  0  0  0  0
    4.6679   -5.6955    1.6333 C   0  0  0  0  0  0  0  0  0  0  0  0
    3.6504   -6.2818    1.9804 O   0  0  0  0  0  0  0  0  0  0  0  0
    5.5414   -6.1017    0.5493 C   0  0  0  0  0  0  0  0  0  0  0  0
    6.5444   -5.2402    0.4907 C   0  0  0  0  0  0  0  0  0  0  0  0
    6.4752   -4.1000    1.4784 C   0  0  1  0  0  0  0  0  0  0  0  0
    6.6851   -2.6748    0.8489 C   0  0  1  0  0  0  0  0  0  0  0  0
    7.9104   -2.6467    0.1237 O   0  0  0  0  0  0  0  0  0  0  0  0
    5.5545   -1.9547    0.0344 C   0  0  2  0  0  0  0  0  0  0  0  0
    4.8308   -0.8313    0.9073 C   0  0  0  0  0  0  0  0  0  0  0  0
    4.1010   -1.0213    2.3067 C   0  0  2  0  0  0  0  0  0  0  0  0
    4.7496   -2.0665    3.2420 C   0  0  1  0  0  0  0  0  0  0  0  0
    4.3742   -1.8817    4.5888 O   0  0  0  0  0  0  0  0  0  0  0  0
    4.1777   -3.4080    2.7460 C   0  0  1  0  0  0  0  0  0  0  0  0
    3.0618   -2.9822    1.7948 C   0  0  2  0  0  0  0  0  0  0  0  0
    2.2141   -4.0845    1.4155 O   0  0  0  0  0  0  0  0  0  0  0  0
    2.6209   -3.2375    0.3877 C   0  0  2  0  0  0  0  0  0  0  0  0
    3.5585   -3.6175   -0.6950 C   0  0  1  0  0  0  0  0  0  0  0  0
    3.5275   -2.5870   -1.8193 C   0  0  1  0  0  0  0  0  0  0  0  0
    3.2020   -2.9990   -3.2396 C   0  0  0  0  0  0  0  0  0  0  0  0
    3.0143   -1.3023   -1.5755 O   0  0  0  0  0  0  0  0  0  0  0  0
    4.8255   -2.8463   -1.0543 C   0  0  1  0  0  0  0  0  0  0  0  0
    5.8175   -3.4546   -2.0289 C   0  0  0  0  0  0  0  0  0  0  0  0
    2.6835   -1.5661    2.1219 C   0  0  1  0  0  0  0  0  0  0  0  0
    1.9053   -1.5102    3.3005 O   0  0  0  0  0  0  0  0  0  0  0  0
    6.2150   -4.2820    4.3307 H   0  0  0  0  0  0  0  0  0  0  0  0
    6.4905   -5.8589    3.5529 H   0  0  0  0  0  0  0  0  0  0  0  0
    4.9749   -5.4637    4.3399 H   0  0  0  0  0  0  0  0  0  0  0  0
    5.3863   -7.0062   -0.0246 H   0  0  0  0  0  0  0  0  0  0  0  0
    7.3738   -4.2685    2.0766 H   0  0  0  0  0  0  0  0  0  0  0  0
    7.3977   -5.3266   -0.1576 H   0  0  0  0  0  0  0  0  0  0  0  0
    6.9768   -1.9970    1.6400 H   0  0  0  0  0  0  0  0  0  0  0  0
    8.5936   -3.0156    0.6631 H   0  0  0  0  0  0  0  0  0  0  0  0
    6.1201   -1.2967   -0.6281 H   0  0  0  0  0  0  0  0  0  0  0  0
    5.6358   -0.1464    1.1554 H   0  0  0  0  0  0  0  0  0  0  0  0
    4.1912   -0.2236    0.2714 H   0  0  0  0  0  0  0  0  0  0  0  0
    4.0581   -0.0450    2.8035 H   0  0  0  0  0  0  0  0  0  0  0  0
    5.8226   -2.0244    3.2726 H   0  0  0  0  0  0  0  0  0  0  0  0
    3.4278   -1.9198    4.6167 H   0  0  0  0  0  0  0  0  0  0  0  0
    3.5940   -3.8511    3.5745 H   0  0  0  0  0  0  0  0  0  0  0  0
    1.7739   -2.6845    0.0446 H   0  0  0  0  0  0  0  0  0  0  0  0
    3.4929   -4.6528   -0.9992 H   0  0  0  0  0  0  0  0  0  0  0  0
    3.4482   -4.0457   -3.4159 H   0  0  0  0  0  0  0  0  0  0  0  0
    3.7671   -2.3878   -3.9473 H   0  0  0  0  0  0  0  0  0  0  0  0
    2.1353   -2.8686   -3.4210 H   0  0  0  0  0  0  0  0  0  0  0  0
    2.0537   -1.3525   -1.3367 H   0  0  0  0  0  0  0  0  0  0  0  0
    5.4044   -4.3739   -2.4307 H   0  0  0  0  0  0  0  0  0  0  0  0
    6.7639   -3.7430   -1.5936 H   0  0  0  0  0  0  0  0  0  0  0  0
    6.0228   -2.7746   -2.8523 H   0  0  0  0  0  0  0  0  0  0  0  0
    2.1564   -1.0401    1.3187 H   0  0  0  0  0  0  0  0  0  0  0  0
    1.0570   -1.8732    3.0991 H   0  0  0  0  0  0  0  0  0  0  0  0
  1 27  1  0
  1 28  1  0
  1 29  1  0
  2  1  1  1
  2  7  1  0
  2 15  1  0
  2  3  1  0
  3  4  2  0
  3  5  1  0
  5  6  2  0
  5 30  1  0
  6 32  1  0
  6  7  1  0
  7  8  1  0
  7 31  1  1
  8  9  1  0
  8 10  1  0
  8 33  1  1
  9 34  1  0
 10 23  1  0
 10 11  1  0
 10 35  1  6
 11 12  1  0
 11 36  1  0
 11 37  1  0
 12 25  1  0
 12 13  1  0
 12 38  1  1
 13 14  1  0
 13 15  1  0
 13 39  1  1
 14 40  1  0
 15 16  1  0
 15 41  1  1
 16 18  1  0
 16 17  1  1
 16 25  1  0
 17 18  1  0
 18 19  1  0
 18 42  1  6
 19 23  1  0
 19 20  1  0
 19 43  1  6
 20 21  1  0
 20 22  1  1
 20 23  1  0
 21 44  1  0
 21 45  1  0
 21 46  1  0
 22 47  1  0
 23 24  1  6
 24 48  1  0
 24 49  1  0
 24 50  1  0
 25 26  1  0
 25 51  1  6
 26 52  1  0
M  END
>  <i_m_ct_stereo_status>  (39) 
1

>  <s_m_source_file>  (39) 
/var/tmp/pbs.5076255.sched01/tmpbmel7479/053vx75p8.sdf

>  <i_m_source_file_index>  (39) 
16

>  <i_lp_mmshare_version>  (39) 
48012

>  <i_f3d_flags>  (39) 
0

>  <s_epik_input>  (39) 
Tz1DMVtDSDJdW0NIXT1DKFtDQEBdMShbQ0gzXSlbQ0BASF0yW0NAXTM0NSlbQ0BASF0oW09IXSlbQ0BIXShbQ0gyXVtDQEhdKFtDQEhdMltPSF0pW0NAQEhdNVtPSF0pW0NAQF02KFtDSDNdKVtDQEBIXShbQ0BIXTRPMylbQ0BAXTYoW0NIM10pW09IXQ==

>  <s_epik_cmdline>  (39) 
J2VwaWtfcHl0aG9uJywgJy1waHQnLCAnMi4wJywgJy1waCcsICc3LjAnLCAnLXRuJywgJzgnLCAnLW1hJywgJzIwMCcsICctaW1hZScsICc8aW5maWxlLm1hZT4nLCAnLW9tYWUnLCAnPG91dGZpbGUubWFlPic=

>  <r_lp_tautomer_probability>  (39) 
1

>  <r_epik_Ionization_Penalty>  (39) 
2.90089e-07

>  <r_epik_Ionization_Penalty_Charging>  (39) 
0

>  <r_epik_Ionization_Penalty_Neutral>  (39) 
2.90089e-07

>  <r_epik_State_Penalty>  (39) 
-0

>  <r_epik_Charging_Adjusted_Penalty>  (39) 
0

>  <i_epik_Tot_Q>  (39) 
0

>  <i_epik_Tot_abs_Q>  (39) 
0

>  <s_lp_Force_Field>  (39) 
OPLS3e

>  <r_lp_Energy>  (39) 
96.6935

>  <b_lp_Chiralities_Consistent>  (39) 
1

>  <s_lp_Variant>  (39) 
10:0-1

>  <s_i_glide_gridfile>  (39) 
pfpi4k_grid

>  <i_i_glide_lignum>  (39) 
16

>  <i_i_glide_rotatable_bonds>  (39) 
4

>  <r_i_docking_score>  (39) 
-4.97845

>  <r_i_glide_ligand_efficiency>  (39) 
-0.191479

>  <r_i_glide_ligand_efficiency_sa>  (39) 
-0.567255

>  <r_i_glide_ligand_efficiency_ln>  (39) 
-1.16917

>  <r_i_glide_gscore>  (39) 
-4.97845

>  <r_i_glide_lipo>  (39) 
-0.885038

>  <r_i_glide_hbond>  (39) 
-0.131715

>  <r_i_glide_metal>  (39) 
-0

>  <r_i_glide_rewards>  (39) 
-1.48906

>  <r_i_glide_evdw>  (39) 
-17.9406

>  <r_i_glide_ecoul>  (39) 
-10.504

>  <r_i_glide_erotb>  (39) 
0

>  <r_i_glide_esite>  (39) 
0

>  <r_i_glide_emodel>  (39) 
-40.6829

>  <r_i_glide_energy>  (39) 
-28.4447

>  <r_i_glide_einternal>  (39) 
0.849187

>  <r_i_glide_intrahb_reward>  (39) 
-0.5

>  <i_i_glide_confnum>  (39) 
2

>  <i_i_glide_posenum>  (39) 
18

>  <r_i_glide_eff_state_penalty>  (39) 
0

>  <ligand_id>  (39) 
10

>  <original_smiles>  (39) 
CC12C(=O)CC=C1C(O)C1CC3C(O)C2C2(OC2C2C(C)(O)C12C)C3O

>  <smiles>  (39) 
[H]OC1([H])C2([H])C([H])([H])C3([H])C([H])(O[H])C4([H])C([H])=C([H])C(=O)C4(C([H])([H])[H])C1([H])C1(OC1([H])C1([H])C(O[H])(C([H])([H])[H])C31C([H])([H])[H])C2([H])O[H]

$$$$
10:0:1
     RDKit          3D

 52 57  0  0  1  0  0  0  0  0999 V2000
    5.7251   -4.6497    3.6702 C   0  0  0  0  0  0  0  0  0  0  0  0
    5.2391   -4.1801    2.2800 C   0  0  2  0  0  0  0  0  0  0  0  0
    4.7850   -5.4605    1.5822 C   0  0  0  0  0  0  0  0  0  0  0  0
    3.7800   -6.1082    1.8971 O   0  0  0  0  0  0  0  0  0  0  0  0
    5.7246   -5.8543    0.5778 C   0  0  0  0  0  0  0  0  0  0  0  0
    6.6909   -4.9342    0.4933 C   0  0  0  0  0  0  0  0  0  0  0  0
    6.4878   -3.7601    1.4144 C   0  0  1  0  0  0  0  0  0  0  0  0
    6.6396   -2.3540    0.7320 C   0  0  1  0  0  0  0  0  0  0  0  0
    7.9021   -2.2670    0.0852 O   0  0  0  0  0  0  0  0  0  0  0  0
    5.5096   -1.7545   -0.1697 C   0  0  2  0  0  0  0  0  0  0  0  0
    4.6693   -0.6441    0.6123 C   0  0  0  0  0  0  0  0  0  0  0  0
    3.8811   -0.8172    1.9755 C   0  0  2  0  0  0  0  0  0  0  0  0
    4.5429   -1.7643    2.9989 C   0  0  1  0  0  0  0  0  0  0  0  0
    4.0430   -1.5304    4.3024 O   0  0  0  0  0  0  0  0  0  0  0  0
    4.0827   -3.1627    2.5348 C   0  0  1  0  0  0  0  0  0  0  0  0
    2.9686   -2.8693    1.5258 C   0  0  2  0  0  0  0  0  0  0  0  0
    2.2136   -4.0356    1.1433 O   0  0  0  0  0  0  0  0  0  0  0  0
    2.6471   -3.2154    0.0921 C   0  0  2  0  0  0  0  0  0  0  0  0
    3.6687   -3.5661   -0.9013 C   0  0  1  0  0  0  0  0  0  0  0  0
    3.6317   -2.5815   -2.0784 C   0  0  1  0  0  0  0  0  0  0  0  0
    3.4072   -3.0955   -3.4924 C   0  0  0  0  0  0  0  0  0  0  0  0
    3.0172   -1.3214   -1.9244 O   0  0  0  0  0  0  0  0  0  0  0  0
    4.9004   -2.7384   -1.2472 C   0  0  1  0  0  0  0  0  0  0  0  0
    5.9865   -3.3420   -2.1370 C   0  0  0  0  0  0  0  0  0  0  0  0
    2.5074   -1.4614    1.7503 C   0  0  1  0  0  0  0  0  0  0  0  0
    1.6477   -1.3561    2.8718 O   0  0  0  0  0  0  0  0  0  0  0  0
    6.1506   -3.8346    4.2487 H   0  0  0  0  0  0  0  0  0  0  0  0
    6.4972   -5.4229    3.5880 H   0  0  0  0  0  0  0  0  0  0  0  0
    4.9176   -5.0782    4.2754 H   0  0  0  0  0  0  0  0  0  0  0  0
    5.6538   -6.8021    0.0863 H   0  0  0  0  0  0  0  0  0  0  0  0
    7.3572   -3.8421    2.0617 H   0  0  0  0  0  0  0  0  0  0  0  0
    7.5785   -5.0276   -0.1083 H   0  0  0  0  0  0  0  0  0  0  0  0
    6.8423   -1.6222    1.5052 H   0  0  0  0  0  0  0  0  0  0  0  0
    7.9740   -2.9795   -0.5394 H   0  0  0  0  0  0  0  0  0  0  0  0
    6.0540   -1.0864   -0.8341 H   0  0  0  0  0  0  0  0  0  0  0  0
    5.4112    0.1137    0.8608 H   0  0  0  0  0  0  0  0  0  0  0  0
    4.0249   -0.1172   -0.0828 H   0  0  0  0  0  0  0  0  0  0  0  0
    3.7435    0.1780    2.4073 H   0  0  0  0  0  0  0  0  0  0  0  0
    5.6129   -1.6466    3.0870 H   0  0  0  0  0  0  0  0  0  0  0  0
    4.2788   -0.6465    4.5532 H   0  0  0  0  0  0  0  0  0  0  0  0
    3.4944   -3.5985    3.3520 H   0  0  0  0  0  0  0  0  0  0  0  0
    1.7732   -2.7782   -0.3354 H   0  0  0  0  0  0  0  0  0  0  0  0
    3.7014   -4.6282   -1.1411 H   0  0  0  0  0  0  0  0  0  0  0  0
    3.7199   -4.1360   -3.5914 H   0  0  0  0  0  0  0  0  0  0  0  0
    3.9688   -2.4962   -4.2071 H   0  0  0  0  0  0  0  0  0  0  0  0
    2.3476   -3.0519   -3.7468 H   0  0  0  0  0  0  0  0  0  0  0  0
    2.0918   -1.4294   -1.6207 H   0  0  0  0  0  0  0  0  0  0  0  0
    5.6463   -4.2993   -2.5254 H   0  0  0  0  0  0  0  0  0  0  0  0
    6.9251   -3.5467   -1.6491 H   0  0  0  0  0  0  0  0  0  0  0  0
    6.1888   -2.6872   -2.9809 H   0  0  0  0  0  0  0  0  0  0  0  0
    2.0141   -0.9997    0.8972 H   0  0  0  0  0  0  0  0  0  0  0  0
    2.1010   -1.7237    3.6243 H   0  0  0  0  0  0  0  0  0  0  0  0
  1 27  1  0
  1 28  1  0
  1 29  1  0
  2  1  1  1
  2  7  1  0
  2 15  1  0
  2  3  1  0
  3  4  2  0
  3  5  1  0
  5  6  2  0
  5 30  1  0
  6 32  1  0
  6  7  1  0
  7  8  1  0
  7 31  1  1
  8  9  1  0
  8 10  1  0
  8 33  1  1
  9 34  1  0
 10 23  1  0
 10 11  1  0
 10 35  1  6
 11 12  1  0
 11 36  1  0
 11 37  1  0
 12 25  1  0
 12 13  1  0
 12 38  1  1
 13 14  1  0
 13 15  1  0
 13 39  1  1
 14 40  1  0
 15 16  1  0
 15 41  1  1
 16 18  1  0
 16 17  1  1
 16 25  1  0
 17 18  1  0
 18 19  1  0
 18 42  1  6
 19 23  1  0
 19 20  1  0
 19 43  1  6
 20 21  1  0
 20 22  1  1
 20 23  1  0
 21 44  1  0
 21 45  1  0
 21 46  1  0
 22 47  1  0
 23 24  1  6
 24 48  1  0
 24 49  1  0
 24 50  1  0
 25 26  1  0
 25 51  1  6
 26 52  1  0
M  END
>  <i_m_ct_stereo_status>  (40) 
1

>  <s_m_source_file>  (40) 
/var/tmp/pbs.5076255.sched01/tmpbmel7479/053vx75p8.sdf

>  <i_m_source_file_index>  (40) 
16

>  <i_lp_mmshare_version>  (40) 
48012

>  <i_f3d_flags>  (40) 
0

>  <s_epik_input>  (40) 
Tz1DMVtDSDJdW0NIXT1DKFtDQEBdMShbQ0gzXSlbQ0BASF0yW0NAXTM0NSlbQ0BASF0oW09IXSlbQ0BIXShbQ0gyXVtDQEhdKFtDQEhdMltPSF0pW0NAQEhdNVtPSF0pW0NAQF02KFtDSDNdKVtDQEBIXShbQ0BIXTRPMylbQ0BAXTYoW0NIM10pW09IXQ==

>  <s_epik_cmdline>  (40) 
J2VwaWtfcHl0aG9uJywgJy1waHQnLCAnMi4wJywgJy1waCcsICc3LjAnLCAnLXRuJywgJzgnLCAnLW1hJywgJzIwMCcsICctaW1hZScsICc8aW5maWxlLm1hZT4nLCAnLW9tYWUnLCAnPG91dGZpbGUubWFlPic=

>  <r_lp_tautomer_probability>  (40) 
1

>  <r_epik_Ionization_Penalty>  (40) 
2.90089e-07

>  <r_epik_Ionization_Penalty_Charging>  (40) 
0

>  <r_epik_Ionization_Penalty_Neutral>  (40) 
2.90089e-07

>  <r_epik_State_Penalty>  (40) 
-0

>  <r_epik_Charging_Adjusted_Penalty>  (40) 
0

>  <i_epik_Tot_Q>  (40) 
0

>  <i_epik_Tot_abs_Q>  (40) 
0

>  <s_lp_Force_Field>  (40) 
OPLS3e

>  <r_lp_Energy>  (40) 
96.6935

>  <b_lp_Chiralities_Consistent>  (40) 
1

>  <s_lp_Variant>  (40) 
10:0-1

>  <s_i_glide_gridfile>  (40) 
pfpi4k_grid

>  <i_i_glide_lignum>  (40) 
16

>  <i_i_glide_rotatable_bonds>  (40) 
4

>  <r_i_docking_score>  (40) 
-4.49856

>  <r_i_glide_ligand_efficiency>  (40) 
-0.173022

>  <r_i_glide_ligand_efficiency_sa>  (40) 
-0.512576

>  <r_i_glide_ligand_efficiency_ln>  (40) 
-1.05647

>  <r_i_glide_gscore>  (40) 
-4.49856

>  <r_i_glide_lipo>  (40) 
-1.0215

>  <r_i_glide_hbond>  (40) 
-0.166773

>  <r_i_glide_metal>  (40) 
-0

>  <r_i_glide_rewards>  (40) 
-1.48572

>  <r_i_glide_evdw>  (40) 
-20.6209

>  <r_i_glide_ecoul>  (40) 
-5.29013

>  <r_i_glide_erotb>  (40) 
0

>  <r_i_glide_esite>  (40) 
0

>  <r_i_glide_emodel>  (40) 
-37.792

>  <r_i_glide_energy>  (40) 
-25.911

>  <r_i_glide_einternal>  (40) 
0.738165

>  <r_i_glide_intrahb_reward>  (40) 
-0.5

>  <i_i_glide_confnum>  (40) 
2

>  <i_i_glide_posenum>  (40) 
38

>  <r_i_glide_eff_state_penalty>  (40) 
0

>  <ligand_id>  (40) 
10

>  <original_smiles>  (40) 
CC12C(=O)CC=C1C(O)C1CC3C(O)C2C2(OC2C2C(C)(O)C12C)C3O

>  <smiles>  (40) 
[H]OC1([H])C2([H])C([H])([H])C3([H])C([H])(O[H])C4([H])C([H])=C([H])C(=O)C4(C([H])([H])[H])C1([H])C1(OC1([H])C1([H])C(O[H])(C([H])([H])[H])C31C([H])([H])[H])C2([H])O[H]

$$$$
10:0:2
     RDKit          3D

 52 57  0  0  1  0  0  0  0  0999 V2000
    5.7444   -4.6532    3.6107 C   0  0  0  0  0  0  0  0  0  0  0  0
    5.2717   -4.1441    2.2225 C   0  0  2  0  0  0  0  0  0  0  0  0
    4.8599   -5.4183    1.4708 C   0  0  0  0  0  0  0  0  0  0  0  0
    3.8652   -6.0799    1.7458 O   0  0  0  0  0  0  0  0  0  0  0  0
    5.8455   -5.7600    0.4760 C   0  0  0  0  0  0  0  0  0  0  0  0
    6.7953   -4.8266    0.4783 C   0  0  0  0  0  0  0  0  0  0  0  0
    6.5397   -3.6774    1.4124 C   0  0  1  0  0  0  0  0  0  0  0  0
    6.6892   -2.2544    0.7670 C   0  0  1  0  0  0  0  0  0  0  0  0
    7.9515   -2.1409    0.1276 O   0  0  0  0  0  0  0  0  0  0  0  0
    5.5720   -1.6488   -0.1412 C   0  0  2  0  0  0  0  0  0  0  0  0
    4.6945   -0.5748    0.6582 C   0  0  0  0  0  0  0  0  0  0  0  0
    3.8833   -0.7979    1.9990 C   0  0  2  0  0  0  0  0  0  0  0  0
    4.5377   -1.7764    2.9962 C   0  0  1  0  0  0  0  0  0  0  0  0
    4.0393   -1.5825    4.3077 O   0  0  0  0  0  0  0  0  0  0  0  0
    4.0931   -3.1594    2.4846 C   0  0  1  0  0  0  0  0  0  0  0  0
    3.0022   -2.8505    1.4509 C   0  0  2  0  0  0  0  0  0  0  0  0
    2.2531   -4.0116    1.0264 O   0  0  0  0  0  0  0  0  0  0  0  0
    2.7027   -3.1548    0.0009 C   0  0  2  0  0  0  0  0  0  0  0  0
    3.7723   -3.4607   -0.9762 C   0  0  1  0  0  0  0  0  0  0  0  0
    3.7627   -2.4519   -2.1156 C   0  0  1  0  0  0  0  0  0  0  0  0
    3.5617   -2.9184   -3.5501 C   0  0  0  0  0  0  0  0  0  0  0  0
    3.2016   -1.1749   -1.9293 O   0  0  0  0  0  0  0  0  0  0  0  0
    5.0040   -2.6198   -1.2525 C   0  0  1  0  0  0  0  0  0  0  0  0
    6.1135   -3.1851   -2.1336 C   0  0  0  0  0  0  0  0  0  0  0  0
    2.5234   -1.4537    1.7299 C   0  0  1  0  0  0  0  0  0  0  0  0
    1.6697   -1.3996    2.8696 O   0  0  0  0  0  0  0  0  0  0  0  0
    6.1486   -3.8481    4.2206 H   0  0  0  0  0  0  0  0  0  0  0  0
    6.5298   -5.4049    3.5154 H   0  0  0  0  0  0  0  0  0  0  0  0
    4.9352   -5.1149    4.1794 H   0  0  0  0  0  0  0  0  0  0  0  0
    5.7895   -6.6476   -0.1143 H   0  0  0  0  0  0  0  0  0  0  0  0
    7.3936   -3.7753    2.0715 H   0  0  0  0  0  0  0  0  0  0  0  0
    7.6796   -4.8621   -0.1395 H   0  0  0  0  0  0  0  0  0  0  0  0
    6.8677   -1.5430    1.5646 H   0  0  0  0  0  0  0  0  0  0  0  0
    8.6218   -2.4606    0.7110 H   0  0  0  0  0  0  0  0  0  0  0  0
    6.1207   -0.9483   -0.7734 H   0  0  0  0  0  0  0  0  0  0  0  0
    5.4239    0.1809    0.9422 H   0  0  0  0  0  0  0  0  0  0  0  0
    4.0646   -0.0200   -0.0278 H   0  0  0  0  0  0  0  0  0  0  0  0
    3.7273    0.1823    2.4614 H   0  0  0  0  0  0  0  0  0  0  0  0
    5.6026   -1.6397    3.1111 H   0  0  0  0  0  0  0  0  0  0  0  0
    3.0979   -1.7104    4.2601 H   0  0  0  0  0  0  0  0  0  0  0  0
    3.5004   -3.6298    3.2705 H   0  0  0  0  0  0  0  0  0  0  0  0
    1.8302   -2.6989   -0.4417 H   0  0  0  0  0  0  0  0  0  0  0  0
    3.8293   -4.5068   -1.2706 H   0  0  0  0  0  0  0  0  0  0  0  0
    3.8829   -3.9525   -3.6727 H   0  0  0  0  0  0  0  0  0  0  0  0
    4.1292   -2.2862   -4.2334 H   0  0  0  0  0  0  0  0  0  0  0  0
    2.5043   -2.8697   -3.8207 H   0  0  0  0  0  0  0  0  0  0  0  0
    2.3187   -1.2538   -1.5718 H   0  0  0  0  0  0  0  0  0  0  0  0
    5.8016   -4.1389   -2.5561 H   0  0  0  0  0  0  0  0  0  0  0  0
    7.0519   -3.3745   -1.6401 H   0  0  0  0  0  0  0  0  0  0  0  0
    6.3058   -2.5185   -2.9649 H   0  0  0  0  0  0  0  0  0  0  0  0
    2.0314   -0.9738    0.8882 H   0  0  0  0  0  0  0  0  0  0  0  0
    1.2640   -0.5450    2.8875 H   0  0  0  0  0  0  0  0  0  0  0  0
  1 27  1  0
  1 28  1  0
  1 29  1  0
  2  1  1  1
  2  7  1  0
  2 15  1  0
  2  3  1  0
  3  4  2  0
  3  5  1  0
  5  6  2  0
  5 30  1  0
  6 32  1  0
  6  7  1  0
  7  8  1  0
  7 31  1  1
  8  9  1  0
  8 10  1  0
  8 33  1  1
  9 34  1  0
 10 23  1  0
 10 11  1  0
 10 35  1  6
 11 12  1  0
 11 36  1  0
 11 37  1  0
 12 25  1  0
 12 13  1  0
 12 38  1  1
 13 14  1  0
 13 15  1  0
 13 39  1  1
 14 40  1  0
 15 16  1  0
 15 41  1  1
 16 18  1  0
 16 17  1  1
 16 25  1  0
 17 18  1  0
 18 19  1  0
 18 42  1  6
 19 23  1  0
 19 20  1  0
 19 43  1  6
 20 21  1  0
 20 22  1  1
 20 23  1  0
 21 44  1  0
 21 45  1  0
 21 46  1  0
 22 47  1  0
 23 24  1  6
 24 48  1  0
 24 49  1  0
 24 50  1  0
 25 26  1  0
 25 51  1  6
 26 52  1  0
M  END
>  <i_m_ct_stereo_status>  (41) 
1

>  <s_m_source_file>  (41) 
/var/tmp/pbs.5076255.sched01/tmpbmel7479/053vx75p8.sdf

>  <i_m_source_file_index>  (41) 
16

>  <i_lp_mmshare_version>  (41) 
48012

>  <i_f3d_flags>  (41) 
0

>  <s_epik_input>  (41) 
Tz1DMVtDSDJdW0NIXT1DKFtDQEBdMShbQ0gzXSlbQ0BASF0yW0NAXTM0NSlbQ0BASF0oW09IXSlbQ0BIXShbQ0gyXVtDQEhdKFtDQEhdMltPSF0pW0NAQEhdNVtPSF0pW0NAQF02KFtDSDNdKVtDQEBIXShbQ0BIXTRPMylbQ0BAXTYoW0NIM10pW09IXQ==

>  <s_epik_cmdline>  (41) 
J2VwaWtfcHl0aG9uJywgJy1waHQnLCAnMi4wJywgJy1waCcsICc3LjAnLCAnLXRuJywgJzgnLCAnLW1hJywgJzIwMCcsICctaW1hZScsICc8aW5maWxlLm1hZT4nLCAnLW9tYWUnLCAnPG91dGZpbGUubWFlPic=

>  <r_lp_tautomer_probability>  (41) 
1

>  <r_epik_Ionization_Penalty>  (41) 
2.90089e-07

>  <r_epik_Ionization_Penalty_Charging>  (41) 
0

>  <r_epik_Ionization_Penalty_Neutral>  (41) 
2.90089e-07

>  <r_epik_State_Penalty>  (41) 
-0

>  <r_epik_Charging_Adjusted_Penalty>  (41) 
0

>  <i_epik_Tot_Q>  (41) 
0

>  <i_epik_Tot_abs_Q>  (41) 
0

>  <s_lp_Force_Field>  (41) 
OPLS3e

>  <r_lp_Energy>  (41) 
96.6935

>  <b_lp_Chiralities_Consistent>  (41) 
1

>  <s_lp_Variant>  (41) 
10:0-1

>  <s_i_glide_gridfile>  (41) 
pfpi4k_grid

>  <i_i_glide_lignum>  (41) 
16

>  <i_i_glide_rotatable_bonds>  (41) 
4

>  <r_i_docking_score>  (41) 
-4.42489

>  <r_i_glide_ligand_efficiency>  (41) 
-0.170188

>  <r_i_glide_ligand_efficiency_sa>  (41) 
-0.504182

>  <r_i_glide_ligand_efficiency_ln>  (41) 
-1.03917

>  <r_i_glide_gscore>  (41) 
-4.42489

>  <r_i_glide_lipo>  (41) 
-1.0087

>  <r_i_glide_hbond>  (41) 
-0.18209

>  <r_i_glide_metal>  (41) 
-0

>  <r_i_glide_rewards>  (41) 
-1.49246

>  <r_i_glide_evdw>  (41) 
-20.7418

>  <r_i_glide_ecoul>  (41) 
-4.69704

>  <r_i_glide_erotb>  (41) 
0

>  <r_i_glide_esite>  (41) 
0

>  <r_i_glide_emodel>  (41) 
-36.7904

>  <r_i_glide_energy>  (41) 
-25.4389

>  <r_i_glide_einternal>  (41) 
1.25186

>  <r_i_glide_intrahb_reward>  (41) 
-0.5

>  <i_i_glide_confnum>  (41) 
2

>  <i_i_glide_posenum>  (41) 
14

>  <r_i_glide_eff_state_penalty>  (41) 
0

>  <ligand_id>  (41) 
10

>  <original_smiles>  (41) 
CC12C(=O)CC=C1C(O)C1CC3C(O)C2C2(OC2C2C(C)(O)C12C)C3O

>  <smiles>  (41) 
[H]OC1([H])C2([H])C([H])([H])C3([H])C([H])(O[H])C4([H])C([H])=C([H])C(=O)C4(C([H])([H])[H])C1([H])C1(OC1([H])C1([H])C(O[H])(C([H])([H])[H])C31C([H])([H])[H])C2([H])O[H]

$$$$
11:0:0
     RDKit          3D

 46 50  0  0  1  0  0  0  0  0999 V2000
   -2.1828   -0.3455    6.0586 O   0  0  0  0  0  0  0  0  0  0  0  0
   -1.1857    0.0954    5.4942 C   0  0  0  0  0  0  0  0  0  0  0  0
   -1.1813    1.5299    5.0328 C   0  0  0  0  0  0  0  0  0  0  0  0
   -1.3807    1.7676    3.6502 C   0  0  0  0  0  0  0  0  0  0  0  0
   -1.3230    3.0698    3.1351 C   0  0  0  0  0  0  0  0  0  0  0  0
   -1.0594    4.1574    3.9779 C   0  0  0  0  0  0  0  0  0  0  0  0
   -0.8816    3.9436    5.3592 C   0  0  0  0  0  0  0  0  0  0  0  0
   -0.9509    2.6387    5.9111 C   0  0  0  0  0  0  0  0  0  0  0  0
   -0.7514    2.5129    7.3189 N   0  0  0  0  0  0  0  0  0  0  0  0
    0.1086    3.3160    8.0083 N   0  0  0  0  0  0  0  0  0  0  0  0
   -0.0462    2.9382    9.2530 C   0  0  0  0  0  0  0  0  0  0  0  0
   -1.0016    1.8975    9.3087 C   0  0  0  0  0  0  0  0  0  0  0  0
   -1.4503    1.6482    8.1034 N   0  0  0  0  0  0  0  0  0  0  0  0
   -0.0666   -0.6481    5.2904 N   0  0  0  0  0  0  0  0  0  0  0  0
    1.1414   -0.1723    4.5621 C   0  0  0  0  0  0  0  0  0  0  0  0
    1.5818   -1.1863    3.4882 C   0  0  0  0  0  0  0  0  0  0  0  0
    1.7953   -2.5366    4.1693 C   0  0  2  0  0  0  0  0  0  0  0  0
    2.2021   -3.7373    3.3204 C   0  0  0  0  0  0  0  0  0  0  0  0
    1.5259   -4.8920    3.9197 N   0  0  0  0  0  0  0  0  0  0  0  0
    1.0372   -5.9057    3.0655 C   0  0  0  0  0  0  0  0  0  0  0  0
    1.5413   -6.1451    1.7457 C   0  0  0  0  0  0  0  0  0  0  0  0
    0.8463   -6.9967    1.0307 N   0  0  0  0  0  0  0  0  0  0  0  0
   -0.3075   -7.6154    2.0667 S   0  0  0  0  0  0  0  0  0  0  0  0
    0.0199   -6.6660    3.4078 N   0  0  0  0  0  0  0  0  0  0  0  0
    0.7613   -4.4390    5.0847 C   0  0  0  0  0  0  0  0  0  0  0  0
    0.4811   -2.9752    4.7682 C   0  0  1  0  0  0  0  0  0  0  0  0
    0.0479   -2.0098    5.8756 C   0  0  0  0  0  0  0  0  0  0  0  0
   -1.5319    0.9411    2.9725 H   0  0  0  0  0  0  0  0  0  0  0  0
   -1.4289    3.2361    2.0793 H   0  0  0  0  0  0  0  0  0  0  0  0
   -0.9741    5.1482    3.5531 H   0  0  0  0  0  0  0  0  0  0  0  0
   -0.6780    4.7943    5.9904 H   0  0  0  0  0  0  0  0  0  0  0  0
    0.5031    3.4149   10.0551 H   0  0  0  0  0  0  0  0  0  0  0  0
   -1.3796    1.3560   10.1667 H   0  0  0  0  0  0  0  0  0  0  0  0
    1.0127    0.7758    4.0428 H   0  0  0  0  0  0  0  0  0  0  0  0
    1.9374   -0.0119    5.2890 H   0  0  0  0  0  0  0  0  0  0  0  0
    0.8095   -1.2776    2.7144 H   0  0  0  0  0  0  0  0  0  0  0  0
    2.4876   -0.8397    2.9944 H   0  0  0  0  0  0  0  0  0  0  0  0
    2.5291   -2.4233    4.9662 H   0  0  0  0  0  0  0  0  0  0  0  0
    1.8774   -3.5765    2.2908 H   0  0  0  0  0  0  0  0  0  0  0  0
    3.2906   -3.8490    3.3145 H   0  0  0  0  0  0  0  0  0  0  0  0
    2.3635   -5.6299    1.2609 H   0  0  0  0  0  0  0  0  0  0  0  0
   -0.1764   -4.9712    5.2390 H   0  0  0  0  0  0  0  0  0  0  0  0
    1.3577   -4.5542    5.9967 H   0  0  0  0  0  0  0  0  0  0  0  0
   -0.2833   -2.9703    3.9886 H   0  0  0  0  0  0  0  0  0  0  0  0
    0.7857   -2.0027    6.6759 H   0  0  0  0  0  0  0  0  0  0  0  0
   -0.8871   -2.3660    6.3164 H   0  0  0  0  0  0  0  0  0  0  0  0
  1  2  2  0
  2  3  1  0
  2 14  1  0
  3  8  1  0
  3  4  2  0
  4  5  1  0
  4 28  1  0
  5  6  2  0
  5 29  1  0
  6  7  1  0
  6 30  1  0
  7  8  2  0
  7 31  1  0
  8  9  1  0
  9 13  1  0
  9 10  1  0
 10 11  2  0
 11 12  1  0
 11 32  1  0
 12 13  2  0
 12 33  1  0
 14 27  1  0
 14 15  1  0
 15 16  1  0
 15 34  1  0
 15 35  1  0
 16 17  1  0
 16 36  1  0
 16 37  1  0
 17 26  1  0
 17 18  1  0
 17 38  1  1
 18 19  1  0
 18 39  1  0
 18 40  1  0
 19 20  1  0
 19 25  1  0
 20 24  2  0
 20 21  1  0
 21 22  2  0
 21 41  1  0
 22 23  1  0
 23 24  1  0
 25 26  1  0
 25 42  1  0
 25 43  1  0
 26 27  1  0
 26 44  1  6
 27 45  1  0
 27 46  1  0
M  END
>  <i_m_ct_stereo_status>  (42) 
1

>  <s_m_source_file>  (42) 
/var/tmp/pbs.5076255.sched01/tmpbmel7479/053vx75p8.sdf

>  <i_m_source_file_index>  (42) 
17

>  <i_lp_mmshare_version>  (42) 
48012

>  <i_f3d_flags>  (42) 
0

>  <s_epik_input>  (42) 
bjFzbltjSF1jMU4oW0NIMl0yKVtDSDJdW0NASF0oW0NAQEhdMjMpW0NIMl1OKFtDSDJdW0NIMl0zKUMoPU8pYzRbY0hdW2NIXVtjSF1bY0hdYzQtbjVuW2NIXVtjSF1uNQ==

>  <s_epik_cmdline>  (42) 
J2VwaWtfcHl0aG9uJywgJy1waHQnLCAnMi4wJywgJy1waCcsICc3LjAnLCAnLXRuJywgJzgnLCAnLW1hJywgJzIwMCcsICctaW1hZScsICc8aW5maWxlLm1hZT4nLCAnLW9tYWUnLCAnPG91dGZpbGUubWFlPic=

>  <r_lp_tautomer_probability>  (42) 
1

>  <r_epik_Ionization_Penalty>  (42) 
6.06715e-05

>  <r_epik_Ionization_Penalty_Charging>  (42) 
0

>  <r_epik_Ionization_Penalty_Neutral>  (42) 
6.06715e-05

>  <r_epik_State_Penalty>  (42) 
-0

>  <r_epik_Charging_Adjusted_Penalty>  (42) 
0

>  <i_epik_Tot_Q>  (42) 
0

>  <i_epik_Tot_abs_Q>  (42) 
0

>  <s_lp_Force_Field>  (42) 
OPLS3e

>  <r_lp_Energy>  (42) 
38.706

>  <b_lp_Chiralities_Consistent>  (42) 
1

>  <s_lp_Variant>  (42) 
11:0-1

>  <s_i_glide_gridfile>  (42) 
pfpi4k_grid

>  <i_i_glide_lignum>  (42) 
17

>  <i_i_glide_rotatable_bonds>  (42) 
4

>  <r_i_docking_score>  (42) 
-2.91338

>  <r_i_glide_ligand_efficiency>  (42) 
-0.107903

>  <r_i_glide_ligand_efficiency_sa>  (42) 
-0.323709

>  <r_i_glide_ligand_efficiency_ln>  (42) 
-0.678187

>  <r_i_glide_gscore>  (42) 
-2.91338

>  <r_i_glide_lipo>  (42) 
-0.0221858

>  <r_i_glide_hbond>  (42) 
-0.176601

>  <r_i_glide_metal>  (42) 
-0

>  <r_i_glide_rewards>  (42) 
-0.808256

>  <r_i_glide_evdw>  (42) 
-27.8368

>  <r_i_glide_ecoul>  (42) 
-6.55207

>  <r_i_glide_erotb>  (42) 
0.533612

>  <r_i_glide_esite>  (42) 
-0.0653013

>  <r_i_glide_emodel>  (42) 
-39.783

>  <r_i_glide_energy>  (42) 
-34.3888

>  <r_i_glide_einternal>  (42) 
2.33

>  <r_i_glide_intrahb_reward>  (42) 
-0

>  <i_i_glide_confnum>  (42) 
6

>  <i_i_glide_posenum>  (42) 
40

>  <r_i_glide_eff_state_penalty>  (42) 
0

>  <ligand_id>  (42) 
11

>  <original_smiles>  (42) 
O=C(c1ccccc1-n1nccn1)N1CCC2CN(c3cnsn3)CC2C1

>  <smiles>  (42) 
[H]c1nn(-c2c([H])c([H])c([H])c([H])c2C(=O)N2C([H])([H])C([H])([H])C3([H])C([H])([H])N(c4nsnc4[H])C([H])([H])C3([H])C2([H])[H])nc1[H]

$$$$
11:0:1
     RDKit          3D

 46 50  0  0  1  0  0  0  0  0999 V2000
    0.6342   -6.2372    0.4279 O   0  0  0  0  0  0  0  0  0  0  0  0
    1.3587   -6.5163    1.3886 C   0  0  0  0  0  0  0  0  0  0  0  0
    1.1081   -7.8114    2.1181 C   0  0  0  0  0  0  0  0  0  0  0  0
   -0.2239   -8.0882    2.4893 C   0  0  0  0  0  0  0  0  0  0  0  0
   -0.5545   -9.2428    3.2120 C   0  0  0  0  0  0  0  0  0  0  0  0
    0.4606  -10.1286    3.5857 C   0  0  0  0  0  0  0  0  0  0  0  0
    1.7884   -9.8881    3.2013 C   0  0  0  0  0  0  0  0  0  0  0  0
    2.1460   -8.7552    2.4328 C   0  0  0  0  0  0  0  0  0  0  0  0
    3.5148   -8.6099    2.0530 N   0  0  0  0  0  0  0  0  0  0  0  0
    4.5293   -9.2513    2.7022 N   0  0  0  0  0  0  0  0  0  0  0  0
    5.6155   -8.8125    2.1256 C   0  0  0  0  0  0  0  0  0  0  0  0
    5.2490   -7.8686    1.1406 C   0  0  0  0  0  0  0  0  0  0  0  0
    3.9608   -7.8001    1.0469 N   0  0  0  0  0  0  0  0  0  0  0  0
    2.3193   -5.6780    1.8403 N   0  0  0  0  0  0  0  0  0  0  0  0
    3.0230   -5.8626    3.1355 C   0  0  0  0  0  0  0  0  0  0  0  0
    3.1354   -4.5648    3.9406 C   0  0  0  0  0  0  0  0  0  0  0  0
    3.8042   -3.5201    3.0458 C   0  0  2  0  0  0  0  0  0  0  0  0
    4.0073   -2.1140    3.5972 C   0  0  0  0  0  0  0  0  0  0  0  0
    3.8156   -1.2042    2.4635 N   0  0  0  0  0  0  0  0  0  0  0  0
    3.1028   -0.0097    2.7060 C   0  0  0  0  0  0  0  0  0  0  0  0
    3.0472    0.6275    3.9918 C   0  0  0  0  0  0  0  0  0  0  0  0
    2.2863    1.7009    4.0382 N   0  0  0  0  0  0  0  0  0  0  0  0
    1.6910    1.9050    2.4862 S   0  0  0  0  0  0  0  0  0  0  0  0
    2.4264    0.5981    1.7545 N   0  0  0  0  0  0  0  0  0  0  0  0
    3.4974   -2.0061    1.2757 C   0  0  0  0  0  0  0  0  0  0  0  0
    2.9134   -3.2919    1.8514 C   0  0  1  0  0  0  0  0  0  0  0  0
    2.8332   -4.5641    0.9940 C   0  0  0  0  0  0  0  0  0  0  0  0
   -1.0217   -7.4156    2.2219 H   0  0  0  0  0  0  0  0  0  0  0  0
   -1.5753   -9.4481    3.4810 H   0  0  0  0  0  0  0  0  0  0  0  0
    0.2242  -11.0070    4.1567 H   0  0  0  0  0  0  0  0  0  0  0  0
    2.5437  -10.5902    3.5137 H   0  0  0  0  0  0  0  0  0  0  0  0
    6.5915   -9.1348    2.4429 H   0  0  0  0  0  0  0  0  0  0  0  0
    5.8772   -7.2409    0.5415 H   0  0  0  0  0  0  0  0  0  0  0  0
    2.5189   -6.5849    3.7992 H   0  0  0  0  0  0  0  0  0  0  0  0
    4.0340   -6.2266    2.9035 H   0  0  0  0  0  0  0  0  0  0  0  0
    2.1504   -4.2078    4.2803 H   0  0  0  0  0  0  0  0  0  0  0  0
    3.7201   -4.7278    4.8404 H   0  0  0  0  0  0  0  0  0  0  0  0
    4.7744   -3.8945    2.7136 H   0  0  0  0  0  0  0  0  0  0  0  0
    3.2736   -1.9485    4.3851 H   0  0  0  0  0  0  0  0  0  0  0  0
    4.9974   -2.0112    4.0377 H   0  0  0  0  0  0  0  0  0  0  0  0
    3.5370    0.3025    4.8978 H   0  0  0  0  0  0  0  0  0  0  0  0
    2.7798   -1.5527    0.5964 H   0  0  0  0  0  0  0  0  0  0  0  0
    4.4016   -2.1983    0.7037 H   0  0  0  0  0  0  0  0  0  0  0  0
    1.9014   -3.0501    2.1879 H   0  0  0  0  0  0  0  0  0  0  0  0
    3.8286   -4.8423    0.6371 H   0  0  0  0  0  0  0  0  0  0  0  0
    2.2222   -4.3699    0.0993 H   0  0  0  0  0  0  0  0  0  0  0  0
  1  2  2  0
  2  3  1  0
  2 14  1  0
  3  8  1  0
  3  4  2  0
  4  5  1  0
  4 28  1  0
  5  6  2  0
  5 29  1  0
  6  7  1  0
  6 30  1  0
  7  8  2  0
  7 31  1  0
  8  9  1  0
  9 13  1  0
  9 10  1  0
 10 11  2  0
 11 12  1  0
 11 32  1  0
 12 13  2  0
 12 33  1  0
 14 27  1  0
 14 15  1  0
 15 16  1  0
 15 34  1  0
 15 35  1  0
 16 17  1  0
 16 36  1  0
 16 37  1  0
 17 26  1  0
 17 18  1  0
 17 38  1  6
 18 19  1  0
 18 39  1  0
 18 40  1  0
 19 20  1  0
 19 25  1  0
 20 24  2  0
 20 21  1  0
 21 22  2  0
 21 41  1  0
 22 23  1  0
 23 24  1  0
 25 26  1  0
 25 42  1  0
 25 43  1  0
 26 27  1  0
 26 44  1  1
 27 45  1  0
 27 46  1  0
M  END
>  <i_m_ct_stereo_status>  (43) 
1

>  <s_m_source_file>  (43) 
/var/tmp/pbs.5076255.sched01/tmpbmel7479/053vx75p8.sdf

>  <i_m_source_file_index>  (43) 
17

>  <i_lp_mmshare_version>  (43) 
48012

>  <i_f3d_flags>  (43) 
0

>  <s_epik_input>  (43) 
bjFzbltjSF1jMU4oW0NIMl0yKVtDSDJdW0NASF0oW0NAQEhdMjMpW0NIMl1OKFtDSDJdW0NIMl0zKUMoPU8pYzRbY0hdW2NIXVtjSF1bY0hdYzQtbjVuW2NIXVtjSF1uNQ==

>  <s_epik_cmdline>  (43) 
J2VwaWtfcHl0aG9uJywgJy1waHQnLCAnMi4wJywgJy1waCcsICc3LjAnLCAnLXRuJywgJzgnLCAnLW1hJywgJzIwMCcsICctaW1hZScsICc8aW5maWxlLm1hZT4nLCAnLW9tYWUnLCAnPG91dGZpbGUubWFlPic=

>  <r_lp_tautomer_probability>  (43) 
1

>  <r_epik_Ionization_Penalty>  (43) 
6.06715e-05

>  <r_epik_Ionization_Penalty_Charging>  (43) 
0

>  <r_epik_Ionization_Penalty_Neutral>  (43) 
6.06715e-05

>  <r_epik_State_Penalty>  (43) 
-0

>  <r_epik_Charging_Adjusted_Penalty>  (43) 
0

>  <i_epik_Tot_Q>  (43) 
0

>  <i_epik_Tot_abs_Q>  (43) 
0

>  <s_lp_Force_Field>  (43) 
OPLS3e

>  <r_lp_Energy>  (43) 
38.706

>  <b_lp_Chiralities_Consistent>  (43) 
1

>  <s_lp_Variant>  (43) 
11:0-1

>  <s_i_glide_gridfile>  (43) 
pfpi4k_grid

>  <i_i_glide_lignum>  (43) 
17

>  <i_i_glide_rotatable_bonds>  (43) 
4

>  <r_i_docking_score>  (43) 
-2.84314

>  <r_i_glide_ligand_efficiency>  (43) 
-0.105301

>  <r_i_glide_ligand_efficiency_sa>  (43) 
-0.315904

>  <r_i_glide_ligand_efficiency_ln>  (43) 
-0.661835

>  <r_i_glide_gscore>  (43) 
-2.84314

>  <r_i_glide_lipo>  (43) 
-0.112215

>  <r_i_glide_hbond>  (43) 
-0.260714

>  <r_i_glide_metal>  (43) 
-0

>  <r_i_glide_rewards>  (43) 
-0.813145

>  <r_i_glide_evdw>  (43) 
-31.1237

>  <r_i_glide_ecoul>  (43) 
-3.55033

>  <r_i_glide_erotb>  (43) 
0.533612

>  <r_i_glide_esite>  (43) 
-0.101942

>  <r_i_glide_emodel>  (43) 
-38.4379

>  <r_i_glide_energy>  (43) 
-34.674

>  <r_i_glide_einternal>  (43) 
2.65469

>  <r_i_glide_intrahb_reward>  (43) 
-0

>  <i_i_glide_confnum>  (43) 
6

>  <i_i_glide_posenum>  (43) 
9

>  <r_i_glide_eff_state_penalty>  (43) 
0

>  <ligand_id>  (43) 
11

>  <original_smiles>  (43) 
O=C(c1ccccc1-n1nccn1)N1CCC2CN(c3cnsn3)CC2C1

>  <smiles>  (43) 
[H]c1nn(-c2c([H])c([H])c([H])c([H])c2C(=O)N2C([H])([H])C([H])([H])C3([H])C([H])([H])N(c4nsnc4[H])C([H])([H])C3([H])C2([H])[H])nc1[H]

$$$$
11:0:2
     RDKit          3D

 46 50  0  0  1  0  0  0  0  0999 V2000
   -0.7588   -1.5346    4.4781 O   0  0  0  0  0  0  0  0  0  0  0  0
   -0.1115   -0.4988    4.3138 C   0  0  0  0  0  0  0  0  0  0  0  0
   -0.7700    0.8146    4.6400 C   0  0  0  0  0  0  0  0  0  0  0  0
   -1.3858    1.5217    3.5822 C   0  0  0  0  0  0  0  0  0  0  0  0
   -1.9956    2.7697    3.8045 C   0  0  0  0  0  0  0  0  0  0  0  0
   -1.9742    3.3328    5.0903 C   0  0  0  0  0  0  0  0  0  0  0  0
   -1.3480    2.6496    6.1484 C   0  0  0  0  0  0  0  0  0  0  0  0
   -0.7459    1.3831    5.9481 C   0  0  0  0  0  0  0  0  0  0  0  0
   -0.1412    0.7553    7.0817 N   0  0  0  0  0  0  0  0  0  0  0  0
    0.4646    1.4690    8.0763 N   0  0  0  0  0  0  0  0  0  0  0  0
    0.8397    0.5483    8.9260 C   0  0  0  0  0  0  0  0  0  0  0  0
    0.4684   -0.7266    8.4348 C   0  0  0  0  0  0  0  0  0  0  0  0
   -0.1754   -0.5904    7.3063 N   0  0  0  0  0  0  0  0  0  0  0  0
    1.1636   -0.4653    3.8479 N   0  0  0  0  0  0  0  0  0  0  0  0
    2.0000    0.7640    3.8178 C   0  0  0  0  0  0  0  0  0  0  0  0
    2.6949    0.9509    2.4549 C   0  0  0  0  0  0  0  0  0  0  0  0
    3.4890   -0.3155    2.1406 C   0  0  2  0  0  0  0  0  0  0  0  0
    4.2498   -0.4137    0.8207 C   0  0  0  0  0  0  0  0  0  0  0  0
    4.1386   -1.8135    0.3973 N   0  0  0  0  0  0  0  0  0  0  0  0
    3.9394   -2.0751   -0.9821 C   0  0  0  0  0  0  0  0  0  0  0  0
    4.3677   -1.1949   -2.0348 C   0  0  0  0  0  0  0  0  0  0  0  0
    4.0603   -1.5792   -3.2542 N   0  0  0  0  0  0  0  0  0  0  0  0
    3.2244   -3.0144   -3.0656 S   0  0  0  0  0  0  0  0  0  0  0  0
    3.3294   -3.1640   -1.4016 N   0  0  0  0  0  0  0  0  0  0  0  0
    3.3711   -2.5447    1.4102 C   0  0  0  0  0  0  0  0  0  0  0  0
    2.5142   -1.4680    2.0596 C   0  0  1  0  0  0  0  0  0  0  0  0
    1.8660   -1.7068    3.4326 C   0  0  0  0  0  0  0  0  0  0  0  0
   -1.4059    1.1073    2.5861 H   0  0  0  0  0  0  0  0  0  0  0  0
   -2.4776    3.2918    2.9919 H   0  0  0  0  0  0  0  0  0  0  0  0
   -2.4395    4.2860    5.2735 H   0  0  0  0  0  0  0  0  0  0  0  0
   -1.3369    3.1091    7.1258 H   0  0  0  0  0  0  0  0  0  0  0  0
    1.3458    0.8139    9.8432 H   0  0  0  0  0  0  0  0  0  0  0  0
    0.6260   -1.7057    8.8639 H   0  0  0  0  0  0  0  0  0  0  0  0
    1.4556    1.6886    4.0172 H   0  0  0  0  0  0  0  0  0  0  0  0
    2.7512    0.6855    4.6059 H   0  0  0  0  0  0  0  0  0  0  0  0
    1.9485    1.1318    1.6751 H   0  0  0  0  0  0  0  0  0  0  0  0
    3.3423    1.8248    2.4777 H   0  0  0  0  0  0  0  0  0  0  0  0
    4.2005   -0.5018    2.9462 H   0  0  0  0  0  0  0  0  0  0  0  0
    3.7998    0.2399    0.0803 H   0  0  0  0  0  0  0  0  0  0  0  0
    5.2882   -0.0987    0.9389 H   0  0  0  0  0  0  0  0  0  0  0  0
    4.8911   -0.2544   -1.9156 H   0  0  0  0  0  0  0  0  0  0  0  0
    2.7318   -3.3274    1.0093 H   0  0  0  0  0  0  0  0  0  0  0  0
    4.0478   -3.0113    2.1266 H   0  0  0  0  0  0  0  0  0  0  0  0
    1.7264   -1.2211    1.3414 H   0  0  0  0  0  0  0  0  0  0  0  0
    2.6293   -1.9630    4.1706 H   0  0  0  0  0  0  0  0  0  0  0  0
    1.1912   -2.5647    3.3661 H   0  0  0  0  0  0  0  0  0  0  0  0
  1  2  2  0
  2  3  1  0
  2 14  1  0
  3  8  1  0
  3  4  2  0
  4  5  1  0
  4 28  1  0
  5  6  2  0
  5 29  1  0
  6  7  1  0
  6 30  1  0
  7  8  2  0
  7 31  1  0
  8  9  1  0
  9 13  1  0
  9 10  1  0
 10 11  2  0
 11 12  1  0
 11 32  1  0
 12 13  2  0
 12 33  1  0
 14 27  1  0
 14 15  1  0
 15 16  1  0
 15 34  1  0
 15 35  1  0
 16 17  1  0
 16 36  1  0
 16 37  1  0
 17 26  1  0
 17 18  1  0
 17 38  1  1
 18 19  1  0
 18 39  1  0
 18 40  1  0
 19 20  1  0
 19 25  1  0
 20 24  2  0
 20 21  1  0
 21 22  2  0
 21 41  1  0
 22 23  1  0
 23 24  1  0
 25 26  1  0
 25 42  1  0
 25 43  1  0
 26 27  1  0
 26 44  1  6
 27 45  1  0
 27 46  1  0
M  END
>  <i_m_ct_stereo_status>  (44) 
1

>  <s_m_source_file>  (44) 
/var/tmp/pbs.5076255.sched01/tmpbmel7479/053vx75p8.sdf

>  <i_m_source_file_index>  (44) 
17

>  <i_lp_mmshare_version>  (44) 
48012

>  <i_f3d_flags>  (44) 
0

>  <s_epik_input>  (44) 
bjFzbltjSF1jMU4oW0NIMl0yKVtDSDJdW0NASF0oW0NAQEhdMjMpW0NIMl1OKFtDSDJdW0NIMl0zKUMoPU8pYzRbY0hdW2NIXVtjSF1bY0hdYzQtbjVuW2NIXVtjSF1uNQ==

>  <s_epik_cmdline>  (44) 
J2VwaWtfcHl0aG9uJywgJy1waHQnLCAnMi4wJywgJy1waCcsICc3LjAnLCAnLXRuJywgJzgnLCAnLW1hJywgJzIwMCcsICctaW1hZScsICc8aW5maWxlLm1hZT4nLCAnLW9tYWUnLCAnPG91dGZpbGUubWFlPic=

>  <r_lp_tautomer_probability>  (44) 
1

>  <r_epik_Ionization_Penalty>  (44) 
6.06715e-05

>  <r_epik_Ionization_Penalty_Charging>  (44) 
0

>  <r_epik_Ionization_Penalty_Neutral>  (44) 
6.06715e-05

>  <r_epik_State_Penalty>  (44) 
-0

>  <r_epik_Charging_Adjusted_Penalty>  (44) 
0

>  <i_epik_Tot_Q>  (44) 
0

>  <i_epik_Tot_abs_Q>  (44) 
0

>  <s_lp_Force_Field>  (44) 
OPLS3e

>  <r_lp_Energy>  (44) 
38.706

>  <b_lp_Chiralities_Consistent>  (44) 
1

>  <s_lp_Variant>  (44) 
11:0-1

>  <s_i_glide_gridfile>  (44) 
pfpi4k_grid

>  <i_i_glide_lignum>  (44) 
17

>  <i_i_glide_rotatable_bonds>  (44) 
4

>  <r_i_docking_score>  (44) 
-2.43695

>  <r_i_glide_ligand_efficiency>  (44) 
-0.0902573

>  <r_i_glide_ligand_efficiency_sa>  (44) 
-0.270772

>  <r_i_glide_ligand_efficiency_ln>  (44) 
-0.567281

>  <r_i_glide_gscore>  (44) 
-2.43695

>  <r_i_glide_lipo>  (44) 
-0.211547

>  <r_i_glide_hbond>  (44) 
0

>  <r_i_glide_metal>  (44) 
-0

>  <r_i_glide_rewards>  (44) 
-0.808256

>  <r_i_glide_evdw>  (44) 
-33.5308

>  <r_i_glide_ecoul>  (44) 
-1.3951

>  <r_i_glide_erotb>  (44) 
0.533612

>  <r_i_glide_esite>  (44) 
-0.0649476

>  <r_i_glide_emodel>  (44) 
-38.7227

>  <r_i_glide_energy>  (44) 
-34.9259

>  <r_i_glide_einternal>  (44) 
3.47688

>  <r_i_glide_intrahb_reward>  (44) 
-0

>  <i_i_glide_confnum>  (44) 
6

>  <i_i_glide_posenum>  (44) 
12

>  <r_i_glide_eff_state_penalty>  (44) 
0

>  <ligand_id>  (44) 
11

>  <original_smiles>  (44) 
O=C(c1ccccc1-n1nccn1)N1CCC2CN(c3cnsn3)CC2C1

>  <smiles>  (44) 
[H]c1nn(-c2c([H])c([H])c([H])c([H])c2C(=O)N2C([H])([H])C([H])([H])C3([H])C([H])([H])N(c4nsnc4[H])C([H])([H])C3([H])C2([H])[H])nc1[H]

$$$$
12:0:0
     RDKit          3D

 88 96  0  0  1  0  0  0  0  0999 V2000
    5.5381   -3.3757   -0.6750 C   0  0  0  0  0  0  0  0  0  0  0  0
    4.4733   -3.8251    0.3128 C   0  0  0  0  0  0  0  0  0  0  0  0
    4.3698   -5.1205    0.6627 C   0  0  0  0  0  0  0  0  0  0  0  0
    3.3165   -5.6951    1.5926 C   0  0  2  0  0  0  0  0  0  0  0  0
    2.4333   -4.6111    2.3517 C   0  0  1  0  0  0  0  0  0  0  0  0
    1.8208   -4.9128    3.7641 C   0  0  0  0  0  0  0  0  0  0  0  0
    1.5338   -6.2910    3.9167 O   0  0  0  0  0  0  0  0  0  0  0  0
    0.7293   -6.7569    5.0021 C   0  0  1  0  0  0  0  0  0  0  0  0
    0.0109   -8.0625    4.5496 C   0  0  2  0  0  0  0  0  0  0  0  0
    0.3517   -9.0849    5.6829 C   0  0  1  0  0  0  0  0  0  0  0  0
    0.2736  -10.4522    5.3929 O   0  0  0  0  0  0  0  0  0  0  0  0
    1.6506   -8.6752    6.4229 C   0  0  1  0  0  0  0  0  0  0  0  0
    1.4611   -9.0563    7.7748 O   0  0  0  0  0  0  0  0  0  0  0  0
    3.0639   -9.2421    5.9802 C   0  0  1  0  0  0  0  0  0  0  0  0
    3.0661  -10.5222    5.3864 O   0  0  0  0  0  0  0  0  0  0  0  0
    3.7972   -8.1130    5.2138 C   0  0  1  0  0  0  0  0  0  0  0  0
    3.9411   -7.0403    6.3277 C   0  0  0  0  0  0  0  0  0  0  0  0
    2.7094   -6.3306    6.4411 O   0  0  0  0  0  0  0  0  0  0  0  0
    1.5092   -7.1098    6.3225 C   0  0  1  0  0  0  0  0  0  0  0  0
    4.9357   -8.2808    4.1280 C   0  0  1  0  0  0  0  0  0  0  0  0
    6.2541   -8.7334    4.7977 C   0  0  0  0  0  0  0  0  0  0  0  0
    4.5638   -9.2354    2.9692 C   0  0  0  0  0  0  0  0  0  0  0  0
    4.7934  -10.4443    2.9871 O   0  0  0  0  0  0  0  0  0  0  0  0
    3.9482   -8.4805    1.8089 C   0  0  1  0  0  0  0  0  0  0  0  0
    2.5643   -8.1101    1.9012 C   0  0  1  0  0  0  0  0  0  0  0  0
    1.5831   -9.0074    2.6782 C   0  0  0  0  0  0  0  0  0  0  0  0
    0.1507   -8.4957    3.0266 C   0  0  0  0  0  0  0  0  0  0  0  0
   -0.8462   -9.6497    2.7537 C   0  0  0  0  0  0  0  0  0  0  0  0
   -0.3449   -7.3980    2.0519 C   0  0  0  0  0  0  0  0  0  0  0  0
    3.6963   -7.0436    2.3071 C   0  0  2  0  0  0  0  0  0  0  0  0
    5.0233   -6.9926    3.1942 C   0  0  0  0  0  0  0  0  0  0  0  0
    5.2342   -5.6495    3.9109 C   0  0  0  0  0  0  0  0  0  0  0  0
    6.3516   -7.0598    2.3307 C   0  0  0  0  0  0  0  0  0  0  0  0
    2.9660   -3.1465    2.2574 C   0  0  1  0  0  0  0  0  0  0  0  0
    3.9913   -2.9176    3.2044 O   0  0  0  0  0  0  0  0  0  0  0  0
    3.7515   -1.5042    3.6804 O   0  0  0  0  0  0  0  0  0  0  0  0
    2.6340   -1.0803    2.9301 C   0  0  1  0  0  0  0  0  0  0  0  0
    1.7459   -0.1746    3.7947 C   0  0  0  0  0  0  0  0  0  0  0  0
    3.1442   -0.3778    1.6528 C   0  0  0  0  0  0  0  0  0  0  0  0
    4.0525   -1.3248    0.8473 C   0  0  0  0  0  0  0  0  0  0  0  0
    3.5047   -2.7743    0.8465 C   0  0  1  0  0  0  0  0  0  0  0  0
    1.9180   -2.2373    2.5417 O   0  0  0  0  0  0  0  0  0  0  0  0
    5.1030   -2.8443   -1.5234 H   0  0  0  0  0  0  0  0  0  0  0  0
    6.0800   -4.2370   -1.0619 H   0  0  0  0  0  0  0  0  0  0  0  0
    6.2651   -2.7292   -0.1828 H   0  0  0  0  0  0  0  0  0  0  0  0
    5.0191   -5.8418    0.1939 H   0  0  0  0  0  0  0  0  0  0  0  0
    2.6315   -5.9974    0.8033 H   0  0  0  0  0  0  0  0  0  0  0  0
    1.5433   -4.5771    1.7290 H   0  0  0  0  0  0  0  0  0  0  0  0
    2.4374   -4.5518    4.5831 H   0  0  0  0  0  0  0  0  0  0  0  0
    0.8839   -4.3598    3.8539 H   0  0  0  0  0  0  0  0  0  0  0  0
   -0.0265   -6.0005    5.2196 H   0  0  0  0  0  0  0  0  0  0  0  0
   -1.0532   -7.8652    4.6714 H   0  0  0  0  0  0  0  0  0  0  0  0
   -0.4567   -8.9555    6.4062 H   0  0  0  0  0  0  0  0  0  0  0  0
   -0.6712  -10.6656    5.2766 H   0  0  0  0  0  0  0  0  0  0  0  0
    1.4537  -10.0064    7.7990 H   0  0  0  0  0  0  0  0  0  0  0  0
    3.6484   -9.4582    6.8759 H   0  0  0  0  0  0  0  0  0  0  0  0
    2.5484  -11.1147    5.9162 H   0  0  0  0  0  0  0  0  0  0  0  0
    3.0491   -7.7648    4.5478 H   0  0  0  0  0  0  0  0  0  0  0  0
    4.1454   -7.4907    7.3009 H   0  0  0  0  0  0  0  0  0  0  0  0
    4.7714   -6.3532    6.2283 H   0  0  0  0  0  0  0  0  0  0  0  0
    0.8593   -6.7909    7.1381 H   0  0  0  0  0  0  0  0  0  0  0  0
    6.7440   -7.9182    5.3261 H   0  0  0  0  0  0  0  0  0  0  0  0
    6.9684   -9.1431    4.0786 H   0  0  0  0  0  0  0  0  0  0  0  0
    6.0583   -9.5277    5.5187 H   0  0  0  0  0  0  0  0  0  0  0  0
    4.4012   -8.5922    0.8203 H   0  0  0  0  0  0  0  0  0  0  0  0
    2.1327   -7.9846    0.9112 H   0  0  0  0  0  0  0  0  0  0  0  0
    1.4881   -9.8996    2.0594 H   0  0  0  0  0  0  0  0  0  0  0  0
    2.0287   -9.3926    3.5716 H   0  0  0  0  0  0  0  0  0  0  0  0
   -1.0003   -9.8189    1.6860 H   0  0  0  0  0  0  0  0  0  0  0  0
   -1.8311   -9.4554    3.1791 H   0  0  0  0  0  0  0  0  0  0  0  0
   -0.5013  -10.6104    3.1266 H   0  0  0  0  0  0  0  0  0  0  0  0
   -0.4203   -7.7776    1.0318 H   0  0  0  0  0  0  0  0  0  0  0  0
    0.3055   -6.5345    1.9819 H   0  0  0  0  0  0  0  0  0  0  0  0
   -1.3346   -7.0487    2.3393 H   0  0  0  0  0  0  0  0  0  0  0  0
    5.4975   -4.8512    3.2189 H   0  0  0  0  0  0  0  0  0  0  0  0
    6.0605   -5.7054    4.6178 H   0  0  0  0  0  0  0  0  0  0  0  0
    4.3565   -5.3114    4.4379 H   0  0  0  0  0  0  0  0  0  0  0  0
    6.5025   -6.1752    1.7114 H   0  0  0  0  0  0  0  0  0  0  0  0
    6.4510   -7.9193    1.6629 H   0  0  0  0  0  0  0  0  0  0  0  0
    7.2320   -7.0799    2.9771 H   0  0  0  0  0  0  0  0  0  0  0  0
    1.4002   -0.7048    4.6812 H   0  0  0  0  0  0  0  0  0  0  0  0
    0.8679    0.1605    3.2402 H   0  0  0  0  0  0  0  0  0  0  0  0
    2.2875    0.7116    4.1283 H   0  0  0  0  0  0  0  0  0  0  0  0
    2.2885   -0.0695    1.0474 H   0  0  0  0  0  0  0  0  0  0  0  0
    3.6934    0.5331    1.9072 H   0  0  0  0  0  0  0  0  0  0  0  0
    4.1369   -0.9499   -0.1724 H   0  0  0  0  0  0  0  0  0  0  0  0
    5.0562   -1.3041    1.2798 H   0  0  0  0  0  0  0  0  0  0  0  0
    2.6536   -2.7823    0.1580 H   0  0  0  0  0  0  0  0  0  0  0  0
  1  2  1  0
  1 43  1  0
  1 44  1  0
  1 45  1  0
  2 41  1  0
  2  3  2  0
  3  4  1  0
  3 46  1  0
  4 30  1  0
  4  5  1  0
  4 47  1  6
  5  6  1  0
  5 34  1  0
  5 48  1  6
  6  7  1  0
  6 49  1  0
  6 50  1  0
  7  8  1  0
  8 19  1  0
  8  9  1  0
  8 51  1  1
  9 27  1  0
  9 10  1  0
  9 52  1  1
 10 11  1  0
 10 12  1  0
 10 53  1  1
 11 54  1  0
 12 19  1  0
 12 13  1  1
 12 14  1  0
 13 55  1  0
 14 15  1  0
 14 16  1  0
 14 56  1  1
 15 57  1  0
 16 17  1  0
 16 20  1  0
 16 58  1  6
 17 18  1  0
 17 59  1  0
 17 60  1  0
 18 19  1  0
 19 61  1  1
 20 31  1  0
 20 21  1  1
 20 22  1  0
 21 62  1  0
 21 63  1  0
 21 64  1  0
 22 23  2  0
 22 24  1  0
 24 30  1  0
 24 25  1  0
 24 65  1  6
 25 26  1  0
 25 30  1  0
 25 66  1  6
 26 27  1  0
 26 67  1  0
 26 68  1  0
 27 28  1  0
 27 29  1  0
 28 69  1  0
 28 70  1  0
 28 71  1  0
 29 72  1  0
 29 73  1  0
 29 74  1  0
 30 31  1  1
 31 32  1  0
 31 33  1  0
 32 75  1  0
 32 76  1  0
 32 77  1  0
 33 78  1  0
 33 79  1  0
 33 80  1  0
 34 41  1  0
 34 42  1  0
 34 35  1  1
 35 36  1  0
 36 37  1  0
 37 38  1  1
 37 39  1  0
 37 42  1  0
 38 81  1  0
 38 82  1  0
 38 83  1  0
 39 40  1  0
 39 84  1  0
 39 85  1  0
 40 41  1  0
 40 86  1  0
 40 87  1  0
 41 88  1  6
M  END
>  <i_m_ct_stereo_status>  (45) 
1

>  <s_m_source_file>  (45) 
/var/tmp/pbs.5076255.sched01/tmpbmel7479/053vx75p8.sdf

>  <i_m_source_file_index>  (45) 
18

>  <i_lp_mmshare_version>  (45) 
48012

>  <i_f3d_flags>  (45) 
0

>  <s_epik_input>  (45) 
TzFPW0NAQF0oTzIpKFtDSDNdKVtDSDJdW0NIMl1bQ0BASF0oQyhbQ0gzXSk9W0NIXTMpW0NAQF0xMltDQEBIXShbQ0BASF0zW0NAXTQ1NilbQ0gyXU9bQ0BIXTdbQ0BASF04W0NAQEhdKFtPSF0pW0NAXTkoW09IXSlbQ0BIXTdPW0NIMl1bQ0BIXShbQ0BASF05W09IXSlbQ0BdKFtDSDNdKShDNihbQ0gzXSlbQ0gzXSlDKD1PKVtDQEhdNFtDQEBIXTVbQ0gyXUM4KFtDSDNdKVtDSDNd

>  <s_epik_cmdline>  (45) 
J2VwaWtfcHl0aG9uJywgJy1waHQnLCAnMi4wJywgJy1waCcsICc3LjAnLCAnLXRuJywgJzgnLCAnLW1hJywgJzIwMCcsICctaW1hZScsICc8aW5maWxlLm1hZT4nLCAnLW9tYWUnLCAnPG91dGZpbGUubWFlPic=

>  <r_lp_tautomer_probability>  (45) 
1

>  <r_epik_Ionization_Penalty>  (45) 
1.35282e-07

>  <r_epik_Ionization_Penalty_Charging>  (45) 
0

>  <r_epik_Ionization_Penalty_Neutral>  (45) 
1.35282e-07

>  <r_epik_State_Penalty>  (45) 
-0

>  <r_epik_Charging_Adjusted_Penalty>  (45) 
0

>  <i_epik_Tot_Q>  (45) 
0

>  <i_epik_Tot_abs_Q>  (45) 
0

>  <s_lp_Force_Field>  (45) 
OPLS3e

>  <r_lp_Energy>  (45) 
167.354

>  <b_lp_Chiralities_Consistent>  (45) 
1

>  <s_lp_Variant>  (45) 
12:0-1

>  <s_i_glide_gridfile>  (45) 
pfpi4k_grid

>  <i_i_glide_lignum>  (45) 
18

>  <i_i_glide_rotatable_bonds>  (45) 
3

>  <r_i_docking_score>  (45) 
-2.88907

>  <r_i_glide_ligand_efficiency>  (45) 
-0.0687874

>  <r_i_glide_ligand_efficiency_sa>  (45) 
-0.239107

>  <r_i_glide_ligand_efficiency_ln>  (45) 
-0.609808

>  <r_i_glide_gscore>  (45) 
-2.88907

>  <r_i_glide_lipo>  (45) 
-0.214355

>  <r_i_glide_hbond>  (45) 
0

>  <r_i_glide_metal>  (45) 
-0

>  <r_i_glide_rewards>  (45) 
0

>  <r_i_glide_evdw>  (45) 
-34.6117

>  <r_i_glide_ecoul>  (45) 
-6.15764

>  <r_i_glide_erotb>  (45) 
0

>  <r_i_glide_esite>  (45) 
-0.0204844

>  <r_i_glide_emodel>  (45) 
-48.102

>  <r_i_glide_energy>  (45) 
-40.7693

>  <r_i_glide_einternal>  (45) 
0.818629

>  <r_i_glide_intrahb_reward>  (45) 
-0

>  <i_i_glide_confnum>  (45) 
1

>  <i_i_glide_posenum>  (45) 
1

>  <r_i_glide_eff_state_penalty>  (45) 
0

>  <ligand_id>  (45) 
12

>  <original_smiles>  (45) 
CC1=CC2C(COC3C4C(O)C5(O)C(O)C(COC35)C3(C)C(=O)C5C(CC4(C)C)C25C3(C)C)C23OOC(C)(CCC12)O3

>  <smiles>  (45) 
[H]OC1([H])C2([H])C([H])([H])OC3([H])C4([H])OC([H])([H])C5([H])C67OOC(C([H])([H])[H])(O6)C([H])([H])C([H])([H])C7([H])C(C([H])([H])[H])=C([H])C5([H])C56C([H])(C(=O)C2(C([H])([H])[H])C5(C([H])([H])[H])C([H])([H])[H])C6([H])C([H])([H])C(C([H])([H])[H])(C([H])([H])[H])C4([H])C([H])(O[H])C31O[H]

$$$$
12:0:1
     RDKit          3D

 88 96  0  0  1  0  0  0  0  0999 V2000
    5.5814   -3.1545   -0.5737 C   0  0  0  0  0  0  0  0  0  0  0  0
    4.6551   -3.7805    0.4634 C   0  0  0  0  0  0  0  0  0  0  0  0
    4.6859   -5.0949    0.6973 C   0  0  0  0  0  0  0  0  0  0  0  0
    3.7843   -5.8437    1.6628 C   0  0  2  0  0  0  0  0  0  0  0  0
    2.8907   -4.9079    2.5959 C   0  0  1  0  0  0  0  0  0  0  0  0
    2.4617   -5.3842    4.0283 C   0  0  0  0  0  0  0  0  0  0  0  0
    2.3043   -6.7925    4.0793 O   0  0  0  0  0  0  0  0  0  0  0  0
    1.6482   -7.4183    5.1812 C   0  0  1  0  0  0  0  0  0  0  0  0
    0.9895   -8.7367    4.6781 C   0  0  2  0  0  0  0  0  0  0  0  0
    1.5139   -9.8305    5.6611 C   0  0  1  0  0  0  0  0  0  0  0  0
    1.5338  -11.1529    5.1772 O   0  0  0  0  0  0  0  0  0  0  0  0
    2.8440   -9.3728    6.3263 C   0  0  1  0  0  0  0  0  0  0  0  0
    2.7980   -9.8547    7.6664 O   0  0  0  0  0  0  0  0  0  0  0  0
    4.2460   -9.7694    5.7011 C   0  0  1  0  0  0  0  0  0  0  0  0
    4.2932  -10.9813    4.9824 O   0  0  0  0  0  0  0  0  0  0  0  0
    4.8185   -8.5206    4.9751 C   0  0  1  0  0  0  0  0  0  0  0  0
    4.9935   -7.5436    6.1689 C   0  0  0  0  0  0  0  0  0  0  0  0
    3.7257   -6.9546    6.4606 O   0  0  0  0  0  0  0  0  0  0  0  0
    2.5807   -7.8199    6.3827 C   0  0  1  0  0  0  0  0  0  0  0  0
    5.8483   -8.4982    3.7755 C   0  0  1  0  0  0  0  0  0  0  0  0
    7.2587   -8.8925    4.2672 C   0  0  0  0  0  0  0  0  0  0  0  0
    5.4315   -9.3702    2.5601 C   0  0  0  0  0  0  0  0  0  0  0  0
    5.7689  -10.5491    2.4555 O   0  0  0  0  0  0  0  0  0  0  0  0
    4.6438   -8.5800    1.5573 C   0  0  1  0  0  0  0  0  0  0  0  0
    3.2483   -8.3346    1.8126 C   0  0  1  0  0  0  0  0  0  0  0  0
    2.4291   -9.3732    2.5844 C   0  0  0  0  0  0  0  0  0  0  0  0
    1.0011   -9.0236    3.1176 C   0  0  0  0  0  0  0  0  0  0  0  0
    0.0771  -10.2411    2.8264 C   0  0  0  0  0  0  0  0  0  0  0  0
    0.3281   -7.8760    2.3144 C   0  0  0  0  0  0  0  0  0  0  0  0
    4.3370   -7.2102    2.2015 C   0  0  2  0  0  0  0  0  0  0  0  0
    5.7393   -7.1258    2.9624 C   0  0  0  0  0  0  0  0  0  0  0  0
    5.9215   -5.8407    3.7804 C   0  0  0  0  0  0  0  0  0  0  0  0
    6.9755   -7.0074    1.9742 C   0  0  0  0  0  0  0  0  0  0  0  0
    3.3098   -3.3995    2.6028 C   0  0  1  0  0  0  0  0  0  0  0  0
    4.4078   -3.1759    3.4560 O   0  0  0  0  0  0  0  0  0  0  0  0
    4.1186   -1.8307    4.0944 O   0  0  0  0  0  0  0  0  0  0  0  0
    2.8999   -1.4420    3.4987 C   0  0  1  0  0  0  0  0  0  0  0  0
    2.0385   -0.6915    4.5275 C   0  0  0  0  0  0  0  0  0  0  0  0
    3.2189   -0.5837    2.2488 C   0  0  0  0  0  0  0  0  0  0  0  0
    4.1053   -1.3757    1.2695 C   0  0  0  0  0  0  0  0  0  0  0  0
    3.6689   -2.8630    1.1884 C   0  0  1  0  0  0  0  0  0  0  0  0
    2.2270   -2.6076    3.0615 O   0  0  0  0  0  0  0  0  0  0  0  0
    5.0204   -2.5869   -1.3191 H   0  0  0  0  0  0  0  0  0  0  0  0
    6.1435   -3.9287   -1.0942 H   0  0  0  0  0  0  0  0  0  0  0  0
    6.3034   -2.4952   -0.0933 H   0  0  0  0  0  0  0  0  0  0  0  0
    5.3387   -5.7235    0.1015 H   0  0  0  0  0  0  0  0  0  0  0  0
    3.0417   -6.1317    0.9169 H   0  0  0  0  0  0  0  0  0  0  0  0
    1.9392   -4.8804    2.0687 H   0  0  0  0  0  0  0  0  0  0  0  0
    3.1311   -5.0452    4.8139 H   0  0  0  0  0  0  0  0  0  0  0  0
    1.4971   -4.9266    4.2670 H   0  0  0  0  0  0  0  0  0  0  0  0
    0.8637   -6.7503    5.5429 H   0  0  0  0  0  0  0  0  0  0  0  0
   -0.0724   -8.6402    4.9197 H   0  0  0  0  0  0  0  0  0  0  0  0
    0.7641   -9.8463    6.4571 H   0  0  0  0  0  0  0  0  0  0  0  0
    1.4989  -11.7348    5.9486 H   0  0  0  0  0  0  0  0  0  0  0  0
    2.4696  -10.7489    7.6784 H   0  0  0  0  0  0  0  0  0  0  0  0
    4.9285  -10.0173    6.5098 H   0  0  0  0  0  0  0  0  0  0  0  0
    3.8182  -11.6352    5.4610 H   0  0  0  0  0  0  0  0  0  0  0  0
    3.9835   -8.1793    4.4204 H   0  0  0  0  0  0  0  0  0  0  0  0
    5.3298   -8.0567    7.0699 H   0  0  0  0  0  0  0  0  0  0  0  0
    5.7499   -6.7807    6.0561 H   0  0  0  0  0  0  0  0  0  0  0  0
    1.9981   -7.6187    7.2816 H   0  0  0  0  0  0  0  0  0  0  0  0
    7.7397   -8.0872    4.8199 H   0  0  0  0  0  0  0  0  0  0  0  0
    7.9257   -9.1745    3.4430 H   0  0  0  0  0  0  0  0  0  0  0  0
    7.2003   -9.7603    4.9214 H   0  0  0  0  0  0  0  0  0  0  0  0
    4.9966   -8.5623    0.5200 H   0  0  0  0  0  0  0  0  0  0  0  0
    2.7135   -8.1496    0.8871 H   0  0  0  0  0  0  0  0  0  0  0  0
    2.3412  -10.2161    1.9028 H   0  0  0  0  0  0  0  0  0  0  0  0
    2.9904   -9.7953    3.3939 H   0  0  0  0  0  0  0  0  0  0  0  0
   -0.1782  -10.3286    1.7708 H   0  0  0  0  0  0  0  0  0  0  0  0
   -0.8767  -10.1631    3.3584 H   0  0  0  0  0  0  0  0  0  0  0  0
    0.5160  -11.2043    3.0668 H   0  0  0  0  0  0  0  0  0  0  0  0
    0.1684   -8.1742    1.2802 H   0  0  0  0  0  0  0  0  0  0  0  0
    0.9004   -6.9638    2.2624 H   0  0  0  0  0  0  0  0  0  0  0  0
   -0.6487   -7.6294    2.7291 H   0  0  0  0  0  0  0  0  0  0  0  0
    6.0509   -4.9651    3.1461 H   0  0  0  0  0  0  0  0  0  0  0  0
    6.8201   -5.8874    4.3981 H   0  0  0  0  0  0  0  0  0  0  0  0
    5.0780   -5.6269    4.4183 H   0  0  0  0  0  0  0  0  0  0  0  0
    6.9928   -6.0618    1.4274 H   0  0  0  0  0  0  0  0  0  0  0  0
    7.0720   -7.7924    1.2233 H   0  0  0  0  0  0  0  0  0  0  0  0
    7.9191   -7.0049    2.5245 H   0  0  0  0  0  0  0  0  0  0  0  0
    1.8293   -1.3240    5.3894 H   0  0  0  0  0  0  0  0  0  0  0  0
    1.0848   -0.3845    4.0977 H   0  0  0  0  0  0  0  0  0  0  0  0
    2.5419    0.2067    4.8936 H   0  0  0  0  0  0  0  0  0  0  0  0
    2.2843   -0.2943    1.7625 H   0  0  0  0  0  0  0  0  0  0  0  0
    3.7226    0.3427    2.5348 H   0  0  0  0  0  0  0  0  0  0  0  0
    4.0552   -0.9063    0.2899 H   0  0  0  0  0  0  0  0  0  0  0  0
    5.1445   -1.3083    1.6037 H   0  0  0  0  0  0  0  0  0  0  0  0
    2.7611   -2.8813    0.5835 H   0  0  0  0  0  0  0  0  0  0  0  0
  1  2  1  0
  1 43  1  0
  1 44  1  0
  1 45  1  0
  2 41  1  0
  2  3  2  0
  3  4  1  0
  3 46  1  0
  4 30  1  0
  4  5  1  0
  4 47  1  6
  5  6  1  0
  5 34  1  0
  5 48  1  6
  6  7  1  0
  6 49  1  0
  6 50  1  0
  7  8  1  0
  8 19  1  0
  8  9  1  0
  8 51  1  1
  9 27  1  0
  9 10  1  0
  9 52  1  1
 10 11  1  0
 10 12  1  0
 10 53  1  1
 11 54  1  0
 12 19  1  0
 12 13  1  1
 12 14  1  0
 13 55  1  0
 14 15  1  0
 14 16  1  0
 14 56  1  1
 15 57  1  0
 16 17  1  0
 16 20  1  0
 16 58  1  6
 17 18  1  0
 17 59  1  0
 17 60  1  0
 18 19  1  0
 19 61  1  1
 20 31  1  0
 20 21  1  1
 20 22  1  0
 21 62  1  0
 21 63  1  0
 21 64  1  0
 22 23  2  0
 22 24  1  0
 24 30  1  0
 24 25  1  0
 24 65  1  6
 25 26  1  0
 25 30  1  0
 25 66  1  6
 26 27  1  0
 26 67  1  0
 26 68  1  0
 27 28  1  0
 27 29  1  0
 28 69  1  0
 28 70  1  0
 28 71  1  0
 29 72  1  0
 29 73  1  0
 29 74  1  0
 30 31  1  1
 31 32  1  0
 31 33  1  0
 32 75  1  0
 32 76  1  0
 32 77  1  0
 33 78  1  0
 33 79  1  0
 33 80  1  0
 34 41  1  0
 34 42  1  0
 34 35  1  1
 35 36  1  0
 36 37  1  0
 37 38  1  1
 37 39  1  0
 37 42  1  0
 38 81  1  0
 38 82  1  0
 38 83  1  0
 39 40  1  0
 39 84  1  0
 39 85  1  0
 40 41  1  0
 40 86  1  0
 40 87  1  0
 41 88  1  6
M  END
>  <i_m_ct_stereo_status>  (46) 
1

>  <s_m_source_file>  (46) 
/var/tmp/pbs.5076255.sched01/tmpbmel7479/053vx75p8.sdf

>  <i_m_source_file_index>  (46) 
18

>  <i_lp_mmshare_version>  (46) 
48012

>  <i_f3d_flags>  (46) 
0

>  <s_epik_input>  (46) 
TzFPW0NAQF0oTzIpKFtDSDNdKVtDSDJdW0NIMl1bQ0BASF0oQyhbQ0gzXSk9W0NIXTMpW0NAQF0xMltDQEBIXShbQ0BASF0zW0NAXTQ1NilbQ0gyXU9bQ0BIXTdbQ0BASF04W0NAQEhdKFtPSF0pW0NAXTkoW09IXSlbQ0BIXTdPW0NIMl1bQ0BIXShbQ0BASF05W09IXSlbQ0BdKFtDSDNdKShDNihbQ0gzXSlbQ0gzXSlDKD1PKVtDQEhdNFtDQEBIXTVbQ0gyXUM4KFtDSDNdKVtDSDNd

>  <s_epik_cmdline>  (46) 
J2VwaWtfcHl0aG9uJywgJy1waHQnLCAnMi4wJywgJy1waCcsICc3LjAnLCAnLXRuJywgJzgnLCAnLW1hJywgJzIwMCcsICctaW1hZScsICc8aW5maWxlLm1hZT4nLCAnLW9tYWUnLCAnPG91dGZpbGUubWFlPic=

>  <r_lp_tautomer_probability>  (46) 
1

>  <r_epik_Ionization_Penalty>  (46) 
1.35282e-07

>  <r_epik_Ionization_Penalty_Charging>  (46) 
0

>  <r_epik_Ionization_Penalty_Neutral>  (46) 
1.35282e-07

>  <r_epik_State_Penalty>  (46) 
-0

>  <r_epik_Charging_Adjusted_Penalty>  (46) 
0

>  <i_epik_Tot_Q>  (46) 
0

>  <i_epik_Tot_abs_Q>  (46) 
0

>  <s_lp_Force_Field>  (46) 
OPLS3e

>  <r_lp_Energy>  (46) 
167.354

>  <b_lp_Chiralities_Consistent>  (46) 
1

>  <s_lp_Variant>  (46) 
12:0-1

>  <s_i_glide_gridfile>  (46) 
pfpi4k_grid

>  <i_i_glide_lignum>  (46) 
18

>  <i_i_glide_rotatable_bonds>  (46) 
3

>  <r_i_docking_score>  (46) 
-2.85911

>  <r_i_glide_ligand_efficiency>  (46) 
-0.0680741

>  <r_i_glide_ligand_efficiency_sa>  (46) 
-0.236627

>  <r_i_glide_ligand_efficiency_ln>  (46) 
-0.603485

>  <r_i_glide_gscore>  (46) 
-2.85911

>  <r_i_glide_lipo>  (46) 
-0.310779

>  <r_i_glide_hbond>  (46) 
0

>  <r_i_glide_metal>  (46) 
-0

>  <r_i_glide_rewards>  (46) 
-0.000554093

>  <r_i_glide_evdw>  (46) 
-32.9434

>  <r_i_glide_ecoul>  (46) 
-5.90333

>  <r_i_glide_erotb>  (46) 
0

>  <r_i_glide_esite>  (46) 
-0.0151059

>  <r_i_glide_emodel>  (46) 
-45.4737

>  <r_i_glide_energy>  (46) 
-38.8468

>  <r_i_glide_einternal>  (46) 
1.53012

>  <r_i_glide_intrahb_reward>  (46) 
-0

>  <i_i_glide_confnum>  (46) 
2

>  <i_i_glide_posenum>  (46) 
15

>  <r_i_glide_eff_state_penalty>  (46) 
0

>  <ligand_id>  (46) 
12

>  <original_smiles>  (46) 
CC1=CC2C(COC3C4C(O)C5(O)C(O)C(COC35)C3(C)C(=O)C5C(CC4(C)C)C25C3(C)C)C23OOC(C)(CCC12)O3

>  <smiles>  (46) 
[H]OC1([H])C2([H])C([H])([H])OC3([H])C4([H])OC([H])([H])C5([H])C67OOC(C([H])([H])[H])(O6)C([H])([H])C([H])([H])C7([H])C(C([H])([H])[H])=C([H])C5([H])C56C([H])(C(=O)C2(C([H])([H])[H])C5(C([H])([H])[H])C([H])([H])[H])C6([H])C([H])([H])C(C([H])([H])[H])(C([H])([H])[H])C4([H])C([H])(O[H])C31O[H]

$$$$
12:0:2
     RDKit          3D

 88 96  0  0  1  0  0  0  0  0999 V2000
    4.4555   -8.7563    1.0507 C   0  0  0  0  0  0  0  0  0  0  0  0
    3.8316   -7.7596    2.0260 C   0  0  0  0  0  0  0  0  0  0  0  0
    4.3879   -6.5665    2.2220 C   0  0  0  0  0  0  0  0  0  0  0  0
    3.9025   -5.5145    3.2042 C   0  0  2  0  0  0  0  0  0  0  0  0
    2.4938   -5.8335    3.8776 C   0  0  1  0  0  0  0  0  0  0  0  0
    1.5441   -4.6680    4.3282 C   0  0  0  0  0  0  0  0  0  0  0  0
    2.2819   -3.5298    4.7426 O   0  0  0  0  0  0  0  0  0  0  0  0
    1.6580   -2.4681    5.4572 C   0  0  1  0  0  0  0  0  0  0  0  0
    2.7218   -1.7824    6.3695 C   0  0  2  0  0  0  0  0  0  0  0  0
    2.6046   -0.2625    6.0174 C   0  0  1  0  0  0  0  0  0  0  0  0
    3.7183    0.5583    6.3109 O   0  0  0  0  0  0  0  0  0  0  0  0
    2.0031   -0.0839    4.5864 C   0  0  1  0  0  0  0  0  0  0  0  0
    1.1624    1.0603    4.6226 O   0  0  0  0  0  0  0  0  0  0  0  0
    2.9426    0.0396    3.3250 C   0  0  1  0  0  0  0  0  0  0  0  0
    4.2213    0.5672    3.6044 O   0  0  0  0  0  0  0  0  0  0  0  0
    2.9015   -1.3103    2.5640 C   0  0  1  0  0  0  0  0  0  0  0  0
    1.4162   -1.3597    2.1645 C   0  0  0  0  0  0  0  0  0  0  0  0
    0.6527   -1.8259    3.2846 O   0  0  0  0  0  0  0  0  0  0  0  0
    1.0429   -1.3282    4.5696 C   0  0  1  0  0  0  0  0  0  0  0  0
    3.9892   -1.8891    1.5825 C   0  0  1  0  0  0  0  0  0  0  0  0
    4.0152   -1.1073    0.2537 C   0  0  0  0  0  0  0  0  0  0  0  0
    5.4060   -1.9599    2.2043 C   0  0  0  0  0  0  0  0  0  0  0  0
    6.1908   -1.0159    2.1264 O   0  0  0  0  0  0  0  0  0  0  0  0
    5.6303   -3.2728    2.8556 C   0  0  1  0  0  0  0  0  0  0  0  0
    5.1162   -3.5070    4.1874 C   0  0  1  0  0  0  0  0  0  0  0  0
    4.9779   -2.3312    5.1580 C   0  0  0  0  0  0  0  0  0  0  0  0
    4.1500   -2.4717    6.4754 C   0  0  0  0  0  0  0  0  0  0  0  0
    4.9553   -1.7852    7.6211 C   0  0  0  0  0  0  0  0  0  0  0  0
    4.0617   -3.9448    6.9555 C   0  0  0  0  0  0  0  0  0  0  0  0
    4.3106   -4.0356    2.8948 C   0  0  2  0  0  0  0  0  0  0  0  0
    3.8700   -3.4879    1.4700 C   0  0  0  0  0  0  0  0  0  0  0  0
    2.5315   -4.0276    1.0215 C   0  0  0  0  0  0  0  0  0  0  0  0
    4.7781   -4.0026    0.2779 C   0  0  0  0  0  0  0  0  0  0  0  0
    1.6832   -6.9786    3.1854 C   0  0  1  0  0  0  0  0  0  0  0  0
    1.0241   -6.5132    2.0307 O   0  0  0  0  0  0  0  0  0  0  0  0
   -0.3073   -7.2565    2.0388 O   0  0  0  0  0  0  0  0  0  0  0  0
   -0.2067   -8.0720    3.1897 C   0  0  1  0  0  0  0  0  0  0  0  0
   -1.5844   -8.1827    3.8501 C   0  0  0  0  0  0  0  0  0  0  0  0
    0.3697   -9.4541    2.7817 C   0  0  0  0  0  0  0  0  0  0  0  0
    1.7444   -9.2809    2.1012 C   0  0  0  0  0  0  0  0  0  0  0  0
    2.5823   -8.1888    2.8000 C   0  0  1  0  0  0  0  0  0  0  0  0
    0.7112   -7.4794    4.0844 O   0  0  0  0  0  0  0  0  0  0  0  0
    4.6520   -9.7193    1.5265 H   0  0  0  0  0  0  0  0  0  0  0  0
    5.3947   -8.3677    0.6676 H   0  0  0  0  0  0  0  0  0  0  0  0
    3.8122   -8.9293    0.1942 H   0  0  0  0  0  0  0  0  0  0  0  0
    5.3237   -6.3270    1.7270 H   0  0  0  0  0  0  0  0  0  0  0  0
    4.5669   -5.8153    4.0197 H   0  0  0  0  0  0  0  0  0  0  0  0
    2.7750   -6.2856    4.8289 H   0  0  0  0  0  0  0  0  0  0  0  0
    0.8096   -4.3966    3.5746 H   0  0  0  0  0  0  0  0  0  0  0  0
    0.9553   -5.0185    5.1835 H   0  0  0  0  0  0  0  0  0  0  0  0
    0.8735   -2.8900    6.0874 H   0  0  0  0  0  0  0  0  0  0  0  0
    2.3170   -1.8574    7.3817 H   0  0  0  0  0  0  0  0  0  0  0  0
    1.8406    0.1096    6.7010 H   0  0  0  0  0  0  0  0  0  0  0  0
    4.3466    0.4380    5.6255 H   0  0  0  0  0  0  0  0  0  0  0  0
    0.8206    1.2112    3.7607 H   0  0  0  0  0  0  0  0  0  0  0  0
    2.5539    0.7960    2.6516 H   0  0  0  0  0  0  0  0  0  0  0  0
    4.2372    1.4629    3.3074 H   0  0  0  0  0  0  0  0  0  0  0  0
    3.0379   -2.0127    3.3424 H   0  0  0  0  0  0  0  0  0  0  0  0
    1.0252   -0.3764    1.8811 H   0  0  0  0  0  0  0  0  0  0  0  0
    1.2016   -1.9404    1.2870 H   0  0  0  0  0  0  0  0  0  0  0  0
    0.1196   -1.0345    5.0669 H   0  0  0  0  0  0  0  0  0  0  0  0
    3.1762   -1.3654   -0.3921 H   0  0  0  0  0  0  0  0  0  0  0  0
    4.9379   -1.2826   -0.3121 H   0  0  0  0  0  0  0  0  0  0  0  0
    3.9767   -0.0416    0.4497 H   0  0  0  0  0  0  0  0  0  0  0  0
    6.4939   -3.8628    2.5035 H   0  0  0  0  0  0  0  0  0  0  0  0
    5.7063   -4.2624    4.7019 H   0  0  0  0  0  0  0  0  0  0  0  0
    5.9918   -2.0721    5.4397 H   0  0  0  0  0  0  0  0  0  0  0  0
    4.6414   -1.4548    4.6532 H   0  0  0  0  0  0  0  0  0  0  0  0
    5.8194   -2.3815    7.9208 H   0  0  0  0  0  0  0  0  0  0  0  0
    4.3408   -1.6517    8.5204 H   0  0  0  0  0  0  0  0  0  0  0  0
    5.3657   -0.8186    7.3594 H   0  0  0  0  0  0  0  0  0  0  0  0
    5.0518   -4.3388    7.2049 H   0  0  0  0  0  0  0  0  0  0  0  0
    3.6599   -4.6318    6.2303 H   0  0  0  0  0  0  0  0  0  0  0  0
    3.4499   -4.0259    7.8520 H   0  0  0  0  0  0  0  0  0  0  0  0
    2.5557   -5.0847    0.7603 H   0  0  0  0  0  0  0  0  0  0  0  0
    2.1800   -3.5003    0.1292 H   0  0  0  0  0  0  0  0  0  0  0  0
    1.8031   -3.9184    1.8095 H   0  0  0  0  0  0  0  0  0  0  0  0
    4.6825   -5.0793    0.1075 H   0  0  0  0  0  0  0  0  0  0  0  0
    5.8471   -3.8030    0.3587 H   0  0  0  0  0  0  0  0  0  0  0  0
    4.4568   -3.5629   -0.6672 H   0  0  0  0  0  0  0  0  0  0  0  0
   -1.9592   -7.2031    4.1402 H   0  0  0  0  0  0  0  0  0  0  0  0
   -1.5390   -8.7988    4.7510 H   0  0  0  0  0  0  0  0  0  0  0  0
   -2.3220   -8.6393    3.1797 H   0  0  0  0  0  0  0  0  0  0  0  0
    0.4560  -10.0903    3.6665 H   0  0  0  0  0  0  0  0  0  0  0  0
   -0.3145   -9.9690    2.0989 H   0  0  0  0  0  0  0  0  0  0  0  0
    2.2638  -10.2340    2.0933 H   0  0  0  0  0  0  0  0  0  0  0  0
    1.5940   -8.9872    1.0605 H   0  0  0  0  0  0  0  0  0  0  0  0
    2.9623   -8.6407    3.7203 H   0  0  0  0  0  0  0  0  0  0  0  0
  1  2  1  0
  1 43  1  0
  1 44  1  0
  1 45  1  0
  2 41  1  0
  2  3  2  0
  3  4  1  0
  3 46  1  0
  4 30  1  0
  4  5  1  0
  4 47  1  1
  5  6  1  0
  5 34  1  0
  5 48  1  1
  6  7  1  0
  6 49  1  0
  6 50  1  0
  7  8  1  0
  8 19  1  0
  8  9  1  0
  8 51  1  1
  9 27  1  0
  9 10  1  0
  9 52  1  1
 10 11  1  0
 10 12  1  0
 10 53  1  1
 11 54  1  0
 12 19  1  0
 12 13  1  1
 12 14  1  0
 13 55  1  0
 14 15  1  0
 14 16  1  0
 14 56  1  6
 15 57  1  0
 16 17  1  0
 16 20  1  0
 16 58  1  1
 17 18  1  0
 17 59  1  0
 17 60  1  0
 18 19  1  0
 19 61  1  1
 20 31  1  0
 20 21  1  6
 20 22  1  0
 21 62  1  0
 21 63  1  0
 21 64  1  0
 22 23  2  0
 22 24  1  0
 24 30  1  0
 24 25  1  0
 24 65  1  1
 25 26  1  0
 25 30  1  0
 25 66  1  1
 26 27  1  0
 26 67  1  0
 26 68  1  0
 27 28  1  0
 27 29  1  0
 28 69  1  0
 28 70  1  0
 28 71  1  0
 29 72  1  0
 29 73  1  0
 29 74  1  0
 30 31  1  6
 31 32  1  0
 31 33  1  0
 32 75  1  0
 32 76  1  0
 32 77  1  0
 33 78  1  0
 33 79  1  0
 33 80  1  0
 34 41  1  0
 34 42  1  0
 34 35  1  6
 35 36  1  0
 36 37  1  0
 37 38  1  1
 37 39  1  0
 37 42  1  0
 38 81  1  0
 38 82  1  0
 38 83  1  0
 39 40  1  0
 39 84  1  0
 39 85  1  0
 40 41  1  0
 40 86  1  0
 40 87  1  0
 41 88  1  1
M  END
>  <i_m_ct_stereo_status>  (47) 
1

>  <s_m_source_file>  (47) 
/var/tmp/pbs.5076255.sched01/tmpbmel7479/053vx75p8.sdf

>  <i_m_source_file_index>  (47) 
18

>  <i_lp_mmshare_version>  (47) 
48012

>  <i_f3d_flags>  (47) 
0

>  <s_epik_input>  (47) 
TzFPW0NAQF0oTzIpKFtDSDNdKVtDSDJdW0NIMl1bQ0BASF0oQyhbQ0gzXSk9W0NIXTMpW0NAQF0xMltDQEBIXShbQ0BASF0zW0NAXTQ1NilbQ0gyXU9bQ0BIXTdbQ0BASF04W0NAQEhdKFtPSF0pW0NAXTkoW09IXSlbQ0BIXTdPW0NIMl1bQ0BIXShbQ0BASF05W09IXSlbQ0BdKFtDSDNdKShDNihbQ0gzXSlbQ0gzXSlDKD1PKVtDQEhdNFtDQEBIXTVbQ0gyXUM4KFtDSDNdKVtDSDNd

>  <s_epik_cmdline>  (47) 
J2VwaWtfcHl0aG9uJywgJy1waHQnLCAnMi4wJywgJy1waCcsICc3LjAnLCAnLXRuJywgJzgnLCAnLW1hJywgJzIwMCcsICctaW1hZScsICc8aW5maWxlLm1hZT4nLCAnLW9tYWUnLCAnPG91dGZpbGUubWFlPic=

>  <r_lp_tautomer_probability>  (47) 
1

>  <r_epik_Ionization_Penalty>  (47) 
1.35282e-07

>  <r_epik_Ionization_Penalty_Charging>  (47) 
0

>  <r_epik_Ionization_Penalty_Neutral>  (47) 
1.35282e-07

>  <r_epik_State_Penalty>  (47) 
-0

>  <r_epik_Charging_Adjusted_Penalty>  (47) 
0

>  <i_epik_Tot_Q>  (47) 
0

>  <i_epik_Tot_abs_Q>  (47) 
0

>  <s_lp_Force_Field>  (47) 
OPLS3e

>  <r_lp_Energy>  (47) 
167.354

>  <b_lp_Chiralities_Consistent>  (47) 
1

>  <s_lp_Variant>  (47) 
12:0-1

>  <s_i_glide_gridfile>  (47) 
pfpi4k_grid

>  <i_i_glide_lignum>  (47) 
18

>  <i_i_glide_rotatable_bonds>  (47) 
3

>  <r_i_docking_score>  (47) 
-2.79227

>  <r_i_glide_ligand_efficiency>  (47) 
-0.0664827

>  <r_i_glide_ligand_efficiency_sa>  (47) 
-0.231096

>  <r_i_glide_ligand_efficiency_ln>  (47) 
-0.589377

>  <r_i_glide_gscore>  (47) 
-2.79227

>  <r_i_glide_lipo>  (47) 
-0.221318

>  <r_i_glide_hbond>  (47) 
-0.0134511

>  <r_i_glide_metal>  (47) 
-0

>  <r_i_glide_rewards>  (47) 
-0.604746

>  <r_i_glide_evdw>  (47) 
-30.538

>  <r_i_glide_ecoul>  (47) 
-2.46067

>  <r_i_glide_erotb>  (47) 
0

>  <r_i_glide_esite>  (47) 
-0.0567538

>  <r_i_glide_emodel>  (47) 
-44.5668

>  <r_i_glide_energy>  (47) 
-32.9987

>  <r_i_glide_einternal>  (47) 
1.29273

>  <r_i_glide_intrahb_reward>  (47) 
-0.5

>  <i_i_glide_confnum>  (47) 
2

>  <i_i_glide_posenum>  (47) 
3

>  <r_i_glide_eff_state_penalty>  (47) 
0

>  <ligand_id>  (47) 
12

>  <original_smiles>  (47) 
CC1=CC2C(COC3C4C(O)C5(O)C(O)C(COC35)C3(C)C(=O)C5C(CC4(C)C)C25C3(C)C)C23OOC(C)(CCC12)O3

>  <smiles>  (47) 
[H]OC1([H])C2([H])C([H])([H])OC3([H])C4([H])OC([H])([H])C5([H])C67OOC(C([H])([H])[H])(O6)C([H])([H])C([H])([H])C7([H])C(C([H])([H])[H])=C([H])C5([H])C56C([H])(C(=O)C2(C([H])([H])[H])C5(C([H])([H])[H])C([H])([H])[H])C6([H])C([H])([H])C(C([H])([H])[H])(C([H])([H])[H])C4([H])C([H])(O[H])C31O[H]

$$$$
12:1:0
     RDKit          3D

 88 96  0  0  1  0  0  0  0  0999 V2000
    5.3135   -3.2426   -0.7823 C   0  0  0  0  0  0  0  0  0  0  0  0
    4.3052   -3.7169    0.2539 C   0  0  0  0  0  0  0  0  0  0  0  0
    4.2578   -5.0112    0.6133 C   0  0  0  0  0  0  0  0  0  0  0  0
    3.2732   -5.6160    1.5961 C   0  0  2  0  0  0  0  0  0  0  0  0
    2.3547   -4.5596    2.3456 C   0  0  1  0  0  0  0  0  0  0  0  0
    1.7548   -4.9007    3.7454 C   0  0  0  0  0  0  0  0  0  0  0  0
    1.5984   -6.3013    3.8936 O   0  0  0  0  0  0  0  0  0  0  0  0
    0.8531   -6.8267    4.9894 C   0  0  1  0  0  0  0  0  0  0  0  0
    0.0832   -8.1141    4.5583 C   0  0  2  0  0  0  0  0  0  0  0  0
    0.4362   -9.1109    5.7067 C   0  0  1  0  0  0  0  0  0  0  0  0
    0.2283  -10.4859    5.4952 O   0  0  0  0  0  0  0  0  0  0  0  0
    1.8175   -8.7496    6.3182 C   0  0  1  0  0  0  0  0  0  0  0  0
    1.6837   -9.0417    7.7025 O   0  0  0  0  0  0  0  0  0  0  0  0
    3.1731   -9.4341    5.8450 C   0  0  1  0  0  0  0  0  0  0  0  0
    3.0755  -10.6174    5.0878 O   0  0  0  0  0  0  0  0  0  0  0  0
    4.3637   -8.4636    5.4998 C   0  0  2  0  0  0  0  0  0  0  0  0
    4.1781   -7.2533    6.4329 C   0  0  0  0  0  0  0  0  0  0  0  0
    3.0221   -6.5264    6.0592 O   0  0  0  0  0  0  0  0  0  0  0  0
    1.7773   -7.2002    6.1892 C   0  0  1  0  0  0  0  0  0  0  0  0
    5.1089   -8.2545    4.0471 C   0  0  1  0  0  0  0  0  0  0  0  0
    6.6038   -8.6644    4.3147 C   0  0  0  0  0  0  0  0  0  0  0  0
    4.6702   -9.1508    2.8832 C   0  0  0  0  0  0  0  0  0  0  0  0
    4.8940  -10.3535    2.8464 O   0  0  0  0  0  0  0  0  0  0  0  0
    4.0185   -8.3520    1.7630 C   0  0  1  0  0  0  0  0  0  0  0  0
    2.6219   -8.0520    1.9048 C   0  0  1  0  0  0  0  0  0  0  0  0
    1.7546   -8.9157    2.7933 C   0  0  0  0  0  0  0  0  0  0  0  0
    0.2689   -8.5607    3.0470 C   0  0  0  0  0  0  0  0  0  0  0  0
   -0.5910   -9.8145    2.7578 C   0  0  0  0  0  0  0  0  0  0  0  0
   -0.3018   -7.5014    2.0651 C   0  0  0  0  0  0  0  0  0  0  0  0
    3.7033   -6.9494    2.3160 C   0  0  2  0  0  0  0  0  0  0  0  0
    4.9952   -6.8651    3.2459 C   0  0  0  0  0  0  0  0  0  0  0  0
    5.1278   -5.5708    4.0709 C   0  0  0  0  0  0  0  0  0  0  0  0
    6.2857   -6.6951    2.3363 C   0  0  0  0  0  0  0  0  0  0  0  0
    2.8389   -3.0852    2.2484 C   0  0  1  0  0  0  0  0  0  0  0  0
    3.8860   -2.8275    3.1715 O   0  0  0  0  0  0  0  0  0  0  0  0
    3.6228   -1.4256    3.6607 O   0  0  0  0  0  0  0  0  0  0  0  0
    2.4731   -1.0240    2.9366 C   0  0  1  0  0  0  0  0  0  0  0  0
    1.5836   -0.1457    3.8237 C   0  0  0  0  0  0  0  0  0  0  0  0
    2.9422   -0.3066    1.6554 C   0  0  0  0  0  0  0  0  0  0  0  0
    3.8514   -1.2296    0.8237 C   0  0  0  0  0  0  0  0  0  0  0  0
    3.3348   -2.6895    0.8303 C   0  0  1  0  0  0  0  0  0  0  0  0
    1.7734   -2.1965    2.5537 O   0  0  0  0  0  0  0  0  0  0  0  0
    4.8270   -2.7255   -1.6106 H   0  0  0  0  0  0  0  0  0  0  0  0
    5.8582   -4.0920   -1.1934 H   0  0  0  0  0  0  0  0  0  0  0  0
    6.0471   -2.5770   -0.3257 H   0  0  0  0  0  0  0  0  0  0  0  0
    4.9099   -5.7189    0.1235 H   0  0  0  0  0  0  0  0  0  0  0  0
    2.5792   -5.9557    0.8313 H   0  0  0  0  0  0  0  0  0  0  0  0
    1.4637   -4.5566    1.7223 H   0  0  0  0  0  0  0  0  0  0  0  0
    2.3342   -4.4815    4.5661 H   0  0  0  0  0  0  0  0  0  0  0  0
    0.7715   -4.4286    3.8215 H   0  0  0  0  0  0  0  0  0  0  0  0
    0.1239   -6.0834    5.3153 H   0  0  0  0  0  0  0  0  0  0  0  0
   -0.9814   -7.9105    4.6655 H   0  0  0  0  0  0  0  0  0  0  0  0
   -0.2981   -8.8778    6.4846 H   0  0  0  0  0  0  0  0  0  0  0  0
   -0.7189  -10.6564    5.3202 H   0  0  0  0  0  0  0  0  0  0  0  0
    1.6513   -9.9892    7.7861 H   0  0  0  0  0  0  0  0  0  0  0  0
    3.5409   -9.9100    6.7554 H   0  0  0  0  0  0  0  0  0  0  0  0
    2.4696  -11.2108    5.5196 H   0  0  0  0  0  0  0  0  0  0  0  0
    5.1475   -8.9667    6.0634 H   0  0  0  0  0  0  0  0  0  0  0  0
    4.0571   -7.5830    7.4691 H   0  0  0  0  0  0  0  0  0  0  0  0
    5.0545   -6.6122    6.4581 H   0  0  0  0  0  0  0  0  0  0  0  0
    1.2916   -6.7919    7.0802 H   0  0  0  0  0  0  0  0  0  0  0  0
    7.1322   -7.9192    4.9095 H   0  0  0  0  0  0  0  0  0  0  0  0
    7.1792   -8.8404    3.4021 H   0  0  0  0  0  0  0  0  0  0  0  0
    6.6812   -9.6181    4.8393 H   0  0  0  0  0  0  0  0  0  0  0  0
    4.4622   -8.3952    0.7792 H   0  0  0  0  0  0  0  0  0  0  0  0
    2.1607   -7.9814    0.9189 H   0  0  0  0  0  0  0  0  0  0  0  0
    1.8729   -9.9525    2.4777 H   0  0  0  0  0  0  0  0  0  0  0  0
    2.2258   -8.8345    3.7417 H   0  0  0  0  0  0  0  0  0  0  0  0
   -0.7156  -10.0022    1.6862 H   0  0  0  0  0  0  0  0  0  0  0  0
   -1.5949   -9.7185    3.1715 H   0  0  0  0  0  0  0  0  0  0  0  0
   -0.1542  -10.7312    3.1477 H   0  0  0  0  0  0  0  0  0  0  0  0
   -0.2993   -7.8589    1.0353 H   0  0  0  0  0  0  0  0  0  0  0  0
    0.2519   -6.5721    2.0355 H   0  0  0  0  0  0  0  0  0  0  0  0
   -1.3362   -7.2650    2.3116 H   0  0  0  0  0  0  0  0  0  0  0  0
    5.3525   -4.7055    3.4505 H   0  0  0  0  0  0  0  0  0  0  0  0
    5.9563   -5.6446    4.7726 H   0  0  0  0  0  0  0  0  0  0  0  0
    4.2445   -5.3028    4.6153 H   0  0  0  0  0  0  0  0  0  0  0  0
    6.3149   -5.7562    1.7885 H   0  0  0  0  0  0  0  0  0  0  0  0
    6.4476   -7.4846    1.5974 H   0  0  0  0  0  0  0  0  0  0  0  0
    7.1985   -6.6335    2.9331 H   0  0  0  0  0  0  0  0  0  0  0  0
    1.2709   -0.6861    4.7157 H   0  0  0  0  0  0  0  0  0  0  0  0
    0.6854    0.1691    3.2909 H   0  0  0  0  0  0  0  0  0  0  0  0
    2.1094    0.7522    4.1486 H   0  0  0  0  0  0  0  0  0  0  0  0
    2.0680   -0.0129    1.0694 H   0  0  0  0  0  0  0  0  0  0  0  0
    3.4740    0.6154    1.8988 H   0  0  0  0  0  0  0  0  0  0  0  0
    3.9046   -0.8475   -0.1959 H   0  0  0  0  0  0  0  0  0  0  0  0
    4.8668   -1.1889    1.2284 H   0  0  0  0  0  0  0  0  0  0  0  0
    2.4734   -2.7097    0.1600 H   0  0  0  0  0  0  0  0  0  0  0  0
  1  2  1  0
  1 43  1  0
  1 44  1  0
  1 45  1  0
  2 41  1  0
  2  3  2  0
  3  4  1  0
  3 46  1  0
  4 30  1  0
  4  5  1  0
  4 47  1  6
  5  6  1  0
  5 34  1  0
  5 48  1  6
  6  7  1  0
  6 49  1  0
  6 50  1  0
  7  8  1  0
  8 19  1  0
  8  9  1  0
  8 51  1  1
  9 27  1  0
  9 10  1  0
  9 52  1  6
 10 11  1  0
 10 12  1  0
 10 53  1  1
 11 54  1  0
 12 19  1  0
 12 13  1  1
 12 14  1  0
 13 55  1  0
 14 15  1  0
 14 16  1  0
 14 56  1  1
 15 57  1  0
 16 17  1  0
 16 20  1  0
 16 58  1  1
 17 18  1  0
 17 59  1  0
 17 60  1  0
 18 19  1  0
 19 61  1  1
 20 31  1  0
 20 21  1  1
 20 22  1  0
 21 62  1  0
 21 63  1  0
 21 64  1  0
 22 23  2  0
 22 24  1  0
 24 30  1  0
 24 25  1  0
 24 65  1  6
 25 26  1  0
 25 30  1  0
 25 66  1  6
 26 27  1  0
 26 67  1  0
 26 68  1  0
 27 28  1  0
 27 29  1  0
 28 69  1  0
 28 70  1  0
 28 71  1  0
 29 72  1  0
 29 73  1  0
 29 74  1  0
 30 31  1  1
 31 32  1  0
 31 33  1  0
 32 75  1  0
 32 76  1  0
 32 77  1  0
 33 78  1  0
 33 79  1  0
 33 80  1  0
 34 41  1  0
 34 42  1  0
 34 35  1  1
 35 36  1  0
 36 37  1  0
 37 38  1  1
 37 39  1  0
 37 42  1  0
 38 81  1  0
 38 82  1  0
 38 83  1  0
 39 40  1  0
 39 84  1  0
 39 85  1  0
 40 41  1  0
 40 86  1  0
 40 87  1  0
 41 88  1  6
M  END
>  <i_m_ct_stereo_status>  (48) 
1

>  <s_m_source_file>  (48) 
/var/tmp/pbs.5076255.sched01/tmpbmel7479/053vx75p8.sdf

>  <i_m_source_file_index>  (48) 
19

>  <i_lp_mmshare_version>  (48) 
48012

>  <i_f3d_flags>  (48) 
0

>  <s_epik_input>  (48) 
TzFPW0NAQF0oTzIpKFtDSDNdKVtDSDJdW0NIMl1bQ0BASF0oQyhbQ0gzXSk9W0NIXTMpW0NAQF0xMltDQEBIXShbQ0BASF0zW0NAXTQ1NilbQ0gyXU9bQ0BIXTdbQ0BASF04W0NAQEhdKFtPSF0pW0NAXTkoW09IXSlbQ0BIXTdPW0NIMl1bQ0BIXShbQ0BASF05W09IXSlbQ0BdKFtDSDNdKShDNihbQ0gzXSlbQ0gzXSlDKD1PKVtDQEhdNFtDQEBIXTVbQ0gyXUM4KFtDSDNdKVtDSDNd

>  <s_epik_cmdline>  (48) 
J2VwaWtfcHl0aG9uJywgJy1waHQnLCAnMi4wJywgJy1waCcsICc3LjAnLCAnLXRuJywgJzgnLCAnLW1hJywgJzIwMCcsICctaW1hZScsICc8aW5maWxlLm1hZT4nLCAnLW9tYWUnLCAnPG91dGZpbGUubWFlPic=

>  <r_lp_tautomer_probability>  (48) 
1

>  <r_epik_Ionization_Penalty>  (48) 
1.35282e-07

>  <r_epik_Ionization_Penalty_Charging>  (48) 
0

>  <r_epik_Ionization_Penalty_Neutral>  (48) 
1.35282e-07

>  <r_epik_State_Penalty>  (48) 
-0

>  <r_epik_Charging_Adjusted_Penalty>  (48) 
0

>  <i_epik_Tot_Q>  (48) 
0

>  <i_epik_Tot_abs_Q>  (48) 
0

>  <s_lp_Force_Field>  (48) 
OPLS3e

>  <r_lp_Energy>  (48) 
171.094

>  <b_lp_Chiralities_Consistent>  (48) 
1

>  <s_lp_Variant>  (48) 
12:0-2

>  <s_i_glide_gridfile>  (48) 
pfpi4k_grid

>  <i_i_glide_lignum>  (48) 
19

>  <i_i_glide_rotatable_bonds>  (48) 
3

>  <r_i_docking_score>  (48) 
-2.79325

>  <r_i_glide_ligand_efficiency>  (48) 
-0.066506

>  <r_i_glide_ligand_efficiency_sa>  (48) 
-0.231177

>  <r_i_glide_ligand_efficiency_ln>  (48) 
-0.589583

>  <r_i_glide_gscore>  (48) 
-2.79325

>  <r_i_glide_lipo>  (48) 
-0.162983

>  <r_i_glide_hbond>  (48) 
0

>  <r_i_glide_metal>  (48) 
-0

>  <r_i_glide_rewards>  (48) 
0

>  <r_i_glide_evdw>  (48) 
-33.7117

>  <r_i_glide_ecoul>  (48) 
-6.14382

>  <r_i_glide_erotb>  (48) 
0

>  <r_i_glide_esite>  (48) 
-0.0231086

>  <r_i_glide_emodel>  (48) 
-46.5794

>  <r_i_glide_energy>  (48) 
-39.8555

>  <r_i_glide_einternal>  (48) 
0.753567

>  <r_i_glide_intrahb_reward>  (48) 
-0

>  <i_i_glide_confnum>  (48) 
1

>  <i_i_glide_posenum>  (48) 
8

>  <r_i_glide_eff_state_penalty>  (48) 
0

>  <ligand_id>  (48) 
12

>  <original_smiles>  (48) 
CC1=CC2C(COC3C4C(O)C5(O)C(O)C(COC35)C3(C)C(=O)C5C(CC4(C)C)C25C3(C)C)C23OOC(C)(CCC12)O3

>  <smiles>  (48) 
[H]OC1([H])C2([H])C([H])([H])OC3([H])C4([H])OC([H])([H])C5([H])C67OOC(C([H])([H])[H])(O6)C([H])([H])C([H])([H])C7([H])C(C([H])([H])[H])=C([H])C5([H])C56C([H])(C(=O)C2(C([H])([H])[H])C5(C([H])([H])[H])C([H])([H])[H])C6([H])C([H])([H])C(C([H])([H])[H])(C([H])([H])[H])C4([H])C([H])(O[H])C31O[H]

$$$$
12:1:1
     RDKit          3D

 88 96  0  0  1  0  0  0  0  0999 V2000
    4.9943   -2.9036   -0.6437 C   0  0  0  0  0  0  0  0  0  0  0  0
    4.1145   -3.5309    0.4196 C   0  0  0  0  0  0  0  0  0  0  0  0
    4.1817   -4.8528    0.6798 C   0  0  0  0  0  0  0  0  0  0  0  0
    3.3195   -5.6027    1.6768 C   0  0  2  0  0  0  0  0  0  0  0  0
    2.3795   -4.6795    2.5662 C   0  0  1  0  0  0  0  0  0  0  0  0
    1.9229   -5.1723    3.9765 C   0  0  0  0  0  0  0  0  0  0  0  0
    1.8867   -6.5862    4.0270 O   0  0  0  0  0  0  0  0  0  0  0  0
    1.2604   -7.2460    5.1190 C   0  0  1  0  0  0  0  0  0  0  0  0
    0.5662   -8.5618    4.6427 C   0  0  2  0  0  0  0  0  0  0  0  0
    1.0852   -9.6205    5.6658 C   0  0  1  0  0  0  0  0  0  0  0  0
    1.0313  -10.9869    5.3170 O   0  0  0  0  0  0  0  0  0  0  0  0
    2.4585   -9.1754    6.2256 C   0  0  1  0  0  0  0  0  0  0  0  0
    2.4367   -9.5457    7.6016 O   0  0  0  0  0  0  0  0  0  0  0  0
    3.8261   -9.7147    5.6091 C   0  0  1  0  0  0  0  0  0  0  0  0
    3.7712  -10.8408    4.7587 O   0  0  0  0  0  0  0  0  0  0  0  0
    4.9146   -8.6338    5.2540 C   0  0  2  0  0  0  0  0  0  0  0  0
    4.7101   -7.5169    6.2894 C   0  0  0  0  0  0  0  0  0  0  0  0
    3.4771   -6.8581    6.0559 O   0  0  0  0  0  0  0  0  0  0  0  0
    2.2951   -7.6312    6.2110 C   0  0  1  0  0  0  0  0  0  0  0  0
    5.5320   -8.2549    3.7810 C   0  0  1  0  0  0  0  0  0  0  0  0
    7.0661   -8.5667    3.8999 C   0  0  0  0  0  0  0  0  0  0  0  0
    5.0778   -9.0928    2.5773 C   0  0  0  0  0  0  0  0  0  0  0  0
    5.4010  -10.2709    2.4050 O   0  0  0  0  0  0  0  0  0  0  0  0
    4.2830   -8.2702    1.5760 C   0  0  1  0  0  0  0  0  0  0  0  0
    2.8754   -8.0960    1.8378 C   0  0  1  0  0  0  0  0  0  0  0  0
    2.1467   -9.0920    2.7088 C   0  0  0  0  0  0  0  0  0  0  0  0
    0.6601   -8.8800    3.0961 C   0  0  0  0  0  0  0  0  0  0  0  0
   -0.1307  -10.1699    2.7664 C   0  0  0  0  0  0  0  0  0  0  0  0
   -0.0597   -7.7936    2.2475 C   0  0  0  0  0  0  0  0  0  0  0  0
    3.8980   -6.9425    2.2626 C   0  0  2  0  0  0  0  0  0  0  0  0
    5.2554   -6.8267    3.0933 C   0  0  0  0  0  0  0  0  0  0  0  0
    5.3514   -5.5903    4.0080 C   0  0  0  0  0  0  0  0  0  0  0  0
    6.4518   -6.4894    2.1122 C   0  0  0  0  0  0  0  0  0  0  0  0
    2.7546   -3.1668    2.5556 C   0  0  1  0  0  0  0  0  0  0  0  0
    3.8376   -2.9003    3.4261 O   0  0  0  0  0  0  0  0  0  0  0  0
    3.5144   -1.5668    4.0339 O   0  0  0  0  0  0  0  0  0  0  0  0
    2.2919   -1.2027    3.4292 C   0  0  1  0  0  0  0  0  0  0  0  0
    1.4111   -0.4645    4.4448 C   0  0  0  0  0  0  0  0  0  0  0  0
    2.6046   -0.3578    2.1763 C   0  0  0  0  0  0  0  0  0  0  0  0
    3.5211   -1.1382    1.2164 C   0  0  0  0  0  0  0  0  0  0  0  0
    3.1132   -2.6299    1.1412 C   0  0  1  0  0  0  0  0  0  0  0  0
    1.6558   -2.3946    3.0112 O   0  0  0  0  0  0  0  0  0  0  0  0
    4.4050   -2.3642   -1.3888 H   0  0  0  0  0  0  0  0  0  0  0  0
    5.5700   -3.6710   -1.1615 H   0  0  0  0  0  0  0  0  0  0  0  0
    5.7050   -2.2130   -0.1874 H   0  0  0  0  0  0  0  0  0  0  0  0
    4.8441   -5.4652    0.0849 H   0  0  0  0  0  0  0  0  0  0  0  0
    2.5981   -5.9365    0.9336 H   0  0  0  0  0  0  0  0  0  0  0  0
    1.4418   -4.6921    2.0115 H   0  0  0  0  0  0  0  0  0  0  0  0
    2.5328   -4.7661    4.7812 H   0  0  0  0  0  0  0  0  0  0  0  0
    0.9180   -4.7861    4.1606 H   0  0  0  0  0  0  0  0  0  0  0  0
    0.5081   -6.5927    5.5546 H   0  0  0  0  0  0  0  0  0  0  0  0
   -0.4996   -8.4541    4.8422 H   0  0  0  0  0  0  0  0  0  0  0  0
    0.3764   -9.5284    6.4921 H   0  0  0  0  0  0  0  0  0  0  0  0
    1.0114  -11.4888    6.1345 H   0  0  0  0  0  0  0  0  0  0  0  0
    2.2531  -10.4775    7.6609 H   0  0  0  0  0  0  0  0  0  0  0  0
    4.2855  -10.2272    6.4579 H   0  0  0  0  0  0  0  0  0  0  0  0
    3.1236  -11.4479    5.0931 H   0  0  0  0  0  0  0  0  0  0  0  0
    5.7695   -9.1207    5.7157 H   0  0  0  0  0  0  0  0  0  0  0  0
    4.6933   -7.9335    7.2992 H   0  0  0  0  0  0  0  0  0  0  0  0
    5.5386   -6.8145    6.3005 H   0  0  0  0  0  0  0  0  0  0  0  0
    1.8571   -7.3272    7.1613 H   0  0  0  0  0  0  0  0  0  0  0  0
    7.5798   -7.8299    4.5147 H   0  0  0  0  0  0  0  0  0  0  0  0
    7.5811   -8.6264    2.9378 H   0  0  0  0  0  0  0  0  0  0  0  0
    7.2515   -9.5488    4.3367 H   0  0  0  0  0  0  0  0  0  0  0  0
    4.6384   -8.2122    0.5506 H   0  0  0  0  0  0  0  0  0  0  0  0
    2.3290   -7.9823    0.9026 H   0  0  0  0  0  0  0  0  0  0  0  0
    2.3142  -10.0890    2.2974 H   0  0  0  0  0  0  0  0  0  0  0  0
    2.6857   -9.0463    3.6296 H   0  0  0  0  0  0  0  0  0  0  0  0
   -0.3178  -10.2886    1.7014 H   0  0  0  0  0  0  0  0  0  0  0  0
   -1.1011  -10.1681    3.2611 H   0  0  0  0  0  0  0  0  0  0  0  0
    0.3886  -11.0828    3.0477 H   0  0  0  0  0  0  0  0  0  0  0  0
   -0.1060   -8.0892    1.2026 H   0  0  0  0  0  0  0  0  0  0  0  0
    0.4193   -6.8213    2.2494 H   0  0  0  0  0  0  0  0  0  0  0  0
   -1.0869   -7.6558    2.5840 H   0  0  0  0  0  0  0  0  0  0  0  0
    5.4621   -4.6682    3.4422 H   0  0  0  0  0  0  0  0  0  0  0  0
    6.2372   -5.6492    4.6397 H   0  0  0  0  0  0  0  0  0  0  0  0
    4.4955   -5.4331    4.6351 H   0  0  0  0  0  0  0  0  0  0  0  0
    6.3707   -5.5162    1.6400 H   0  0  0  0  0  0  0  0  0  0  0  0
    6.6120   -7.2088    1.3061 H   0  0  0  0  0  0  0  0  0  0  0  0
    7.3987   -6.4034    2.6459 H   0  0  0  0  0  0  0  0  0  0  0  0
    1.2091   -1.0925    5.3110 H   0  0  0  0  0  0  0  0  0  0  0  0
    0.4533   -0.1811    4.0038 H   0  0  0  0  0  0  0  0  0  0  0  0
    1.8963    0.4465    4.8014 H   0  0  0  0  0  0  0  0  0  0  0  0
    1.6695   -0.0950    1.6761 H   0  0  0  0  0  0  0  0  0  0  0  0
    3.0851    0.5841    2.4588 H   0  0  0  0  0  0  0  0  0  0  0  0
    3.4657   -0.6843    0.2292 H   0  0  0  0  0  0  0  0  0  0  0  0
    4.5547   -1.0489    1.5581 H   0  0  0  0  0  0  0  0  0  0  0  0
    2.2068   -2.6687    0.5301 H   0  0  0  0  0  0  0  0  0  0  0  0
  1  2  1  0
  1 43  1  0
  1 44  1  0
  1 45  1  0
  2 41  1  0
  2  3  2  0
  3  4  1  0
  3 46  1  0
  4 30  1  0
  4  5  1  0
  4 47  1  6
  5  6  1  0
  5 34  1  0
  5 48  1  6
  6  7  1  0
  6 49  1  0
  6 50  1  0
  7  8  1  0
  8 19  1  0
  8  9  1  0
  8 51  1  1
  9 27  1  0
  9 10  1  0
  9 52  1  1
 10 11  1  0
 10 12  1  0
 10 53  1  1
 11 54  1  0
 12 19  1  0
 12 13  1  1
 12 14  1  0
 13 55  1  0
 14 15  1  0
 14 16  1  0
 14 56  1  1
 15 57  1  0
 16 17  1  0
 16 20  1  0
 16 58  1  1
 17 18  1  0
 17 59  1  0
 17 60  1  0
 18 19  1  0
 19 61  1  1
 20 31  1  0
 20 21  1  1
 20 22  1  0
 21 62  1  0
 21 63  1  0
 21 64  1  0
 22 23  2  0
 22 24  1  0
 24 30  1  0
 24 25  1  0
 24 65  1  6
 25 26  1  0
 25 30  1  0
 25 66  1  6
 26 27  1  0
 26 67  1  0
 26 68  1  0
 27 28  1  0
 27 29  1  0
 28 69  1  0
 28 70  1  0
 28 71  1  0
 29 72  1  0
 29 73  1  0
 29 74  1  0
 30 31  1  1
 31 32  1  0
 31 33  1  0
 32 75  1  0
 32 76  1  0
 32 77  1  0
 33 78  1  0
 33 79  1  0
 33 80  1  0
 34 41  1  0
 34 42  1  0
 34 35  1  1
 35 36  1  0
 36 37  1  0
 37 38  1  1
 37 39  1  0
 37 42  1  0
 38 81  1  0
 38 82  1  0
 38 83  1  0
 39 40  1  0
 39 84  1  0
 39 85  1  0
 40 41  1  0
 40 86  1  0
 40 87  1  0
 41 88  1  6
M  END
>  <i_m_ct_stereo_status>  (49) 
1

>  <s_m_source_file>  (49) 
/var/tmp/pbs.5076255.sched01/tmpbmel7479/053vx75p8.sdf

>  <i_m_source_file_index>  (49) 
19

>  <i_lp_mmshare_version>  (49) 
48012

>  <i_f3d_flags>  (49) 
0

>  <s_epik_input>  (49) 
TzFPW0NAQF0oTzIpKFtDSDNdKVtDSDJdW0NIMl1bQ0BASF0oQyhbQ0gzXSk9W0NIXTMpW0NAQF0xMltDQEBIXShbQ0BASF0zW0NAXTQ1NilbQ0gyXU9bQ0BIXTdbQ0BASF04W0NAQEhdKFtPSF0pW0NAXTkoW09IXSlbQ0BIXTdPW0NIMl1bQ0BIXShbQ0BASF05W09IXSlbQ0BdKFtDSDNdKShDNihbQ0gzXSlbQ0gzXSlDKD1PKVtDQEhdNFtDQEBIXTVbQ0gyXUM4KFtDSDNdKVtDSDNd

>  <s_epik_cmdline>  (49) 
J2VwaWtfcHl0aG9uJywgJy1waHQnLCAnMi4wJywgJy1waCcsICc3LjAnLCAnLXRuJywgJzgnLCAnLW1hJywgJzIwMCcsICctaW1hZScsICc8aW5maWxlLm1hZT4nLCAnLW9tYWUnLCAnPG91dGZpbGUubWFlPic=

>  <r_lp_tautomer_probability>  (49) 
1

>  <r_epik_Ionization_Penalty>  (49) 
1.35282e-07

>  <r_epik_Ionization_Penalty_Charging>  (49) 
0

>  <r_epik_Ionization_Penalty_Neutral>  (49) 
1.35282e-07

>  <r_epik_State_Penalty>  (49) 
-0

>  <r_epik_Charging_Adjusted_Penalty>  (49) 
0

>  <i_epik_Tot_Q>  (49) 
0

>  <i_epik_Tot_abs_Q>  (49) 
0

>  <s_lp_Force_Field>  (49) 
OPLS3e

>  <r_lp_Energy>  (49) 
171.094

>  <b_lp_Chiralities_Consistent>  (49) 
1

>  <s_lp_Variant>  (49) 
12:0-2

>  <s_i_glide_gridfile>  (49) 
pfpi4k_grid

>  <i_i_glide_lignum>  (49) 
19

>  <i_i_glide_rotatable_bonds>  (49) 
3

>  <r_i_docking_score>  (49) 
-2.64957

>  <r_i_glide_ligand_efficiency>  (49) 
-0.063085

>  <r_i_glide_ligand_efficiency_sa>  (49) 
-0.219285

>  <r_i_glide_ligand_efficiency_ln>  (49) 
-0.559256

>  <r_i_glide_gscore>  (49) 
-2.64957

>  <r_i_glide_lipo>  (49) 
-0.189071

>  <r_i_glide_hbond>  (49) 
0

>  <r_i_glide_metal>  (49) 
-0

>  <r_i_glide_rewards>  (49) 
0

>  <r_i_glide_evdw>  (49) 
-33.1459

>  <r_i_glide_ecoul>  (49) 
-5.25002

>  <r_i_glide_erotb>  (49) 
0

>  <r_i_glide_esite>  (49) 
-0.0157007

>  <r_i_glide_emodel>  (49) 
-44.6326

>  <r_i_glide_energy>  (49) 
-38.3959

>  <r_i_glide_einternal>  (49) 
0.973194

>  <r_i_glide_intrahb_reward>  (49) 
-0

>  <i_i_glide_confnum>  (49) 
1

>  <i_i_glide_posenum>  (49) 
1

>  <r_i_glide_eff_state_penalty>  (49) 
0

>  <ligand_id>  (49) 
12

>  <original_smiles>  (49) 
CC1=CC2C(COC3C4C(O)C5(O)C(O)C(COC35)C3(C)C(=O)C5C(CC4(C)C)C25C3(C)C)C23OOC(C)(CCC12)O3

>  <smiles>  (49) 
[H]OC1([H])C2([H])C([H])([H])OC3([H])C4([H])OC([H])([H])C5([H])C67OOC(C([H])([H])[H])(O6)C([H])([H])C([H])([H])C7([H])C(C([H])([H])[H])=C([H])C5([H])C56C([H])(C(=O)C2(C([H])([H])[H])C5(C([H])([H])[H])C([H])([H])[H])C6([H])C([H])([H])C(C([H])([H])[H])(C([H])([H])[H])C4([H])C([H])(O[H])C31O[H]

$$$$
12:1:2
     RDKit          3D

 88 96  0  0  1  0  0  0  0  0999 V2000
    3.6778   -1.8138    8.2244 C   0  0  0  0  0  0  0  0  0  0  0  0
    3.4899   -2.6645    6.9788 C   0  0  0  0  0  0  0  0  0  0  0  0
    3.5828   -4.0024    7.0418 C   0  0  0  0  0  0  0  0  0  0  0  0
    3.4641   -4.9525    5.8642 C   0  0  2  0  0  0  0  0  0  0  0  0
    3.0611   -4.2623    4.4924 C   0  0  1  0  0  0  0  0  0  0  0  0
    2.3267   -5.1011    3.3982 C   0  0  0  0  0  0  0  0  0  0  0  0
    2.6570   -6.4769    3.5081 O   0  0  0  0  0  0  0  0  0  0  0  0
    2.3111   -7.3790    2.4644 C   0  0  1  0  0  0  0  0  0  0  0  0
    3.4057   -8.4821    2.2908 C   0  0  2  0  0  0  0  0  0  0  0  0
    2.5607   -9.7988    2.2709 C   0  0  1  0  0  0  0  0  0  0  0  0
    3.2286  -11.0275    2.4802 O   0  0  0  0  0  0  0  0  0  0  0  0
    1.2530   -9.5896    3.0907 C   0  0  1  0  0  0  0  0  0  0  0  0
    0.2092  -10.3028    2.4435 O   0  0  0  0  0  0  0  0  0  0  0  0
    1.1195  -10.0120    4.6244 C   0  0  1  0  0  0  0  0  0  0  0  0
    2.1393  -10.8266    5.1726 O   0  0  0  0  0  0  0  0  0  0  0  0
    0.5049   -8.9185    5.5740 C   0  0  2  0  0  0  0  0  0  0  0  0
   -0.4794   -8.1192    4.6980 C   0  0  0  0  0  0  0  0  0  0  0  0
    0.2190   -7.3602    3.7260 O   0  0  0  0  0  0  0  0  0  0  0  0
    0.9615   -8.0953    2.7625 C   0  0  1  0  0  0  0  0  0  0  0  0
    1.2389   -8.1907    6.8523 C   0  0  1  0  0  0  0  0  0  0  0  0
    0.3704   -8.6042    8.0904 C   0  0  0  0  0  0  0  0  0  0  0  0
    2.6657   -8.6391    7.2149 C   0  0  0  0  0  0  0  0  0  0  0  0
    2.9460   -9.7461    7.6838 O   0  0  0  0  0  0  0  0  0  0  0  0
    3.6813   -7.5328    7.0274 C   0  0  1  0  0  0  0  0  0  0  0  0
    4.2219   -7.3728    5.7019 C   0  0  1  0  0  0  0  0  0  0  0  0
    4.1900   -8.5342    4.7278 C   0  0  0  0  0  0  0  0  0  0  0  0
    4.6605   -8.3701    3.2582 C   0  0  0  0  0  0  0  0  0  0  0  0
    5.6966   -9.4821    2.9379 C   0  0  0  0  0  0  0  0  0  0  0  0
    5.4662   -7.0619    3.0204 C   0  0  0  0  0  0  0  0  0  0  0  0
    3.0182   -6.4291    6.1802 C   0  0  2  0  0  0  0  0  0  0  0  0
    1.5733   -6.6134    6.8334 C   0  0  0  0  0  0  0  0  0  0  0  0
    0.4822   -5.6864    6.2703 C   0  0  0  0  0  0  0  0  0  0  0  0
    1.5906   -6.0821    8.3288 C   0  0  0  0  0  0  0  0  0  0  0  0
    2.4726   -2.8268    4.6418 C   0  0  1  0  0  0  0  0  0  0  0  0
    1.1150   -2.8672    5.0308 O   0  0  0  0  0  0  0  0  0  0  0  0
    0.4712   -1.7309    4.2760 O   0  0  0  0  0  0  0  0  0  0  0  0
    1.5407   -1.1498    3.5609 C   0  0  1  0  0  0  0  0  0  0  0  0
    1.0523   -0.6603    2.1945 C   0  0  0  0  0  0  0  0  0  0  0  0
    2.1444   -0.0153    4.4088 C   0  0  0  0  0  0  0  0  0  0  0  0
    2.5966   -0.5508    5.7774 C   0  0  0  0  0  0  0  0  0  0  0  0
    3.2565   -1.9446    5.6531 C   0  0  1  0  0  0  0  0  0  0  0  0
    2.5288   -2.1487    3.3984 O   0  0  0  0  0  0  0  0  0  0  0  0
    4.4587   -1.0630    8.0911 H   0  0  0  0  0  0  0  0  0  0  0  0
    3.9574   -2.4392    9.0705 H   0  0  0  0  0  0  0  0  0  0  0  0
    2.7479   -1.3123    8.4895 H   0  0  0  0  0  0  0  0  0  0  0  0
    3.8272   -4.4653    7.9883 H   0  0  0  0  0  0  0  0  0  0  0  0
    4.5370   -5.0409    5.7142 H   0  0  0  0  0  0  0  0  0  0  0  0
    4.0296   -4.0690    4.0293 H   0  0  0  0  0  0  0  0  0  0  0  0
    1.2488   -4.9588    3.4156 H   0  0  0  0  0  0  0  0  0  0  0  0
    2.6461   -4.7360    2.4197 H   0  0  0  0  0  0  0  0  0  0  0  0
    2.2259   -6.8289    1.5269 H   0  0  0  0  0  0  0  0  0  0  0  0
    3.8186   -8.3734    1.2874 H   0  0  0  0  0  0  0  0  0  0  0  0
    2.2440   -9.8723    1.2284 H   0  0  0  0  0  0  0  0  0  0  0  0
    3.5517  -11.3719    1.6329 H   0  0  0  0  0  0  0  0  0  0  0  0
    0.2353  -10.1347    1.5076 H   0  0  0  0  0  0  0  0  0  0  0  0
    0.3320  -10.7714    4.6110 H   0  0  0  0  0  0  0  0  0  0  0  0
    1.8134  -11.3147    5.9250 H   0  0  0  0  0  0  0  0  0  0  0  0
   -0.2237   -9.5502    6.0802 H   0  0  0  0  0  0  0  0  0  0  0  0
   -1.1630   -8.7961    4.1802 H   0  0  0  0  0  0  0  0  0  0  0  0
   -1.1294   -7.4786    5.2830 H   0  0  0  0  0  0  0  0  0  0  0  0
    0.3856   -8.0461    1.8330 H   0  0  0  0  0  0  0  0  0  0  0  0
   -0.5854   -8.0850    8.0999 H   0  0  0  0  0  0  0  0  0  0  0  0
    0.8603   -8.4279    9.0524 H   0  0  0  0  0  0  0  0  0  0  0  0
    0.1671   -9.6751    8.1080 H   0  0  0  0  0  0  0  0  0  0  0  0
    4.2662   -7.2141    7.8873 H   0  0  0  0  0  0  0  0  0  0  0  0
    5.2394   -6.9866    5.7723 H   0  0  0  0  0  0  0  0  0  0  0  0
    4.6574   -9.3972    5.2028 H   0  0  0  0  0  0  0  0  0  0  0  0
    3.1515   -8.7525    4.6594 H   0  0  0  0  0  0  0  0  0  0  0  0
    6.6669   -9.2795    3.3933 H   0  0  0  0  0  0  0  0  0  0  0  0
    5.8595   -9.5772    1.8630 H   0  0  0  0  0  0  0  0  0  0  0  0
    5.4112  -10.4620    3.3151 H   0  0  0  0  0  0  0  0  0  0  0  0
    6.3986   -7.0599    3.5886 H   0  0  0  0  0  0  0  0  0  0  0  0
    4.9494   -6.1520    3.3008 H   0  0  0  0  0  0  0  0  0  0  0  0
    5.7357   -6.9620    1.9703 H   0  0  0  0  0  0  0  0  0  0  0  0
    0.6321   -4.6509    6.5663 H   0  0  0  0  0  0  0  0  0  0  0  0
   -0.4981   -5.9590    6.6580 H   0  0  0  0  0  0  0  0  0  0  0  0
    0.4328   -5.6641    5.1988 H   0  0  0  0  0  0  0  0  0  0  0  0
    1.7664   -5.0127    8.4053 H   0  0  0  0  0  0  0  0  0  0  0  0
    2.3207   -6.5584    8.9850 H   0  0  0  0  0  0  0  0  0  0  0  0
    0.6164   -6.1862    8.8089 H   0  0  0  0  0  0  0  0  0  0  0  0
    0.6400   -1.4915    1.6291 H   0  0  0  0  0  0  0  0  0  0  0  0
    1.8615   -0.2347    1.6002 H   0  0  0  0  0  0  0  0  0  0  0  0
    0.2658    0.0899    2.2832 H   0  0  0  0  0  0  0  0  0  0  0  0
    2.9878    0.4195    3.8701 H   0  0  0  0  0  0  0  0  0  0  0  0
    1.4169    0.7849    4.5458 H   0  0  0  0  0  0  0  0  0  0  0  0
    3.2873    0.1609    6.2230 H   0  0  0  0  0  0  0  0  0  0  0  0
    1.7320   -0.6051    6.4407 H   0  0  0  0  0  0  0  0  0  0  0  0
    4.2500   -1.7786    5.2362 H   0  0  0  0  0  0  0  0  0  0  0  0
  1  2  1  0
  1 43  1  0
  1 44  1  0
  1 45  1  0
  2 41  1  0
  2  3  2  0
  3  4  1  0
  3 46  1  0
  4 30  1  0
  4  5  1  0
  4 47  1  6
  5  6  1  0
  5 34  1  0
  5 48  1  6
  6  7  1  0
  6 49  1  0
  6 50  1  0
  7  8  1  0
  8 19  1  0
  8  9  1  0
  8 51  1  6
  9 27  1  0
  9 10  1  0
  9 52  1  6
 10 11  1  0
 10 12  1  0
 10 53  1  6
 11 54  1  0
 12 19  1  0
 12 13  1  6
 12 14  1  0
 13 55  1  0
 14 15  1  0
 14 16  1  0
 14 56  1  6
 15 57  1  0
 16 17  1  0
 16 20  1  0
 16 58  1  1
 17 18  1  0
 17 59  1  0
 17 60  1  0
 18 19  1  0
 19 61  1  6
 20 31  1  0
 20 21  1  1
 20 22  1  0
 21 62  1  0
 21 63  1  0
 21 64  1  0
 22 23  2  0
 22 24  1  0
 24 30  1  0
 24 25  1  0
 24 65  1  1
 25 26  1  0
 25 30  1  0
 25 66  1  1
 26 27  1  0
 26 67  1  0
 26 68  1  0
 27 28  1  0
 27 29  1  0
 28 69  1  0
 28 70  1  0
 28 71  1  0
 29 72  1  0
 29 73  1  0
 29 74  1  0
 30 31  1  6
 31 32  1  0
 31 33  1  0
 32 75  1  0
 32 76  1  0
 32 77  1  0
 33 78  1  0
 33 79  1  0
 33 80  1  0
 34 41  1  0
 34 42  1  0
 34 35  1  1
 35 36  1  0
 36 37  1  0
 37 38  1  6
 37 39  1  0
 37 42  1  0
 38 81  1  0
 38 82  1  0
 38 83  1  0
 39 40  1  0
 39 84  1  0
 39 85  1  0
 40 41  1  0
 40 86  1  0
 40 87  1  0
 41 88  1  6
M  END
>  <i_m_ct_stereo_status>  (50) 
1

>  <s_m_source_file>  (50) 
/var/tmp/pbs.5076255.sched01/tmpbmel7479/053vx75p8.sdf

>  <i_m_source_file_index>  (50) 
19

>  <i_lp_mmshare_version>  (50) 
48012

>  <i_f3d_flags>  (50) 
0

>  <s_epik_input>  (50) 
TzFPW0NAQF0oTzIpKFtDSDNdKVtDSDJdW0NIMl1bQ0BASF0oQyhbQ0gzXSk9W0NIXTMpW0NAQF0xMltDQEBIXShbQ0BASF0zW0NAXTQ1NilbQ0gyXU9bQ0BIXTdbQ0BASF04W0NAQEhdKFtPSF0pW0NAXTkoW09IXSlbQ0BIXTdPW0NIMl1bQ0BIXShbQ0BASF05W09IXSlbQ0BdKFtDSDNdKShDNihbQ0gzXSlbQ0gzXSlDKD1PKVtDQEhdNFtDQEBIXTVbQ0gyXUM4KFtDSDNdKVtDSDNd

>  <s_epik_cmdline>  (50) 
J2VwaWtfcHl0aG9uJywgJy1waHQnLCAnMi4wJywgJy1waCcsICc3LjAnLCAnLXRuJywgJzgnLCAnLW1hJywgJzIwMCcsICctaW1hZScsICc8aW5maWxlLm1hZT4nLCAnLW9tYWUnLCAnPG91dGZpbGUubWFlPic=

>  <r_lp_tautomer_probability>  (50) 
1

>  <r_epik_Ionization_Penalty>  (50) 
1.35282e-07

>  <r_epik_Ionization_Penalty_Charging>  (50) 
0

>  <r_epik_Ionization_Penalty_Neutral>  (50) 
1.35282e-07

>  <r_epik_State_Penalty>  (50) 
-0

>  <r_epik_Charging_Adjusted_Penalty>  (50) 
0

>  <i_epik_Tot_Q>  (50) 
0

>  <i_epik_Tot_abs_Q>  (50) 
0

>  <s_lp_Force_Field>  (50) 
OPLS3e

>  <r_lp_Energy>  (50) 
171.094

>  <b_lp_Chiralities_Consistent>  (50) 
1

>  <s_lp_Variant>  (50) 
12:0-2

>  <s_i_glide_gridfile>  (50) 
pfpi4k_grid

>  <i_i_glide_lignum>  (50) 
19

>  <i_i_glide_rotatable_bonds>  (50) 
3

>  <r_i_docking_score>  (50) 
-2.61657

>  <r_i_glide_ligand_efficiency>  (50) 
-0.0622993

>  <r_i_glide_ligand_efficiency_sa>  (50) 
-0.216554

>  <r_i_glide_ligand_efficiency_ln>  (50) 
-0.552291

>  <r_i_glide_gscore>  (50) 
-2.61657

>  <r_i_glide_lipo>  (50) 
-0.0325383

>  <r_i_glide_hbond>  (50) 
0

>  <r_i_glide_metal>  (50) 
-0

>  <r_i_glide_rewards>  (50) 
0

>  <r_i_glide_evdw>  (50) 
-28.1095

>  <r_i_glide_ecoul>  (50) 
-7.67415

>  <r_i_glide_erotb>  (50) 
0

>  <r_i_glide_esite>  (50) 
-0.0274361

>  <r_i_glide_emodel>  (50) 
-41.5365

>  <r_i_glide_energy>  (50) 
-35.7837

>  <r_i_glide_einternal>  (50) 
1.33466

>  <r_i_glide_intrahb_reward>  (50) 
-0

>  <i_i_glide_confnum>  (50) 
2

>  <i_i_glide_posenum>  (50) 
22

>  <r_i_glide_eff_state_penalty>  (50) 
0

>  <ligand_id>  (50) 
12

>  <original_smiles>  (50) 
CC1=CC2C(COC3C4C(O)C5(O)C(O)C(COC35)C3(C)C(=O)C5C(CC4(C)C)C25C3(C)C)C23OOC(C)(CCC12)O3

>  <smiles>  (50) 
[H]OC1([H])C2([H])C([H])([H])OC3([H])C4([H])OC([H])([H])C5([H])C67OOC(C([H])([H])[H])(O6)C([H])([H])C([H])([H])C7([H])C(C([H])([H])[H])=C([H])C5([H])C56C([H])(C(=O)C2(C([H])([H])[H])C5(C([H])([H])[H])C([H])([H])[H])C6([H])C([H])([H])C(C([H])([H])[H])(C([H])([H])[H])C4([H])C([H])(O[H])C31O[H]

$$$$
12:2:0
     RDKit          3D

 88 96  0  0  1  0  0  0  0  0999 V2000
    4.9986   -1.4370    4.5053 C   0  0  0  0  0  0  0  0  0  0  0  0
    4.7647   -2.7733    3.8206 C   0  0  0  0  0  0  0  0  0  0  0  0
    4.5798   -3.8909    4.5422 C   0  0  0  0  0  0  0  0  0  0  0  0
    4.3835   -5.2875    3.9808 C   0  0  2  0  0  0  0  0  0  0  0  0
    4.1755   -5.3364    2.3959 C   0  0  1  0  0  0  0  0  0  0  0  0
    3.3221   -6.4782    1.7302 C   0  0  0  0  0  0  0  0  0  0  0  0
    3.3392   -7.6238    2.5596 O   0  0  0  0  0  0  0  0  0  0  0  0
    3.1297   -8.9493    2.0921 C   0  0  1  0  0  0  0  0  0  0  0  0
    4.2479   -9.8377    2.7282 C   0  0  2  0  0  0  0  0  0  0  0  0
    3.5041  -10.8861    3.6225 C   0  0  1  0  0  0  0  0  0  0  0  0
    4.1934  -11.2671    4.7913 O   0  0  0  0  0  0  0  0  0  0  0  0
    1.9959  -10.4825    3.8056 C   0  0  1  0  0  0  0  0  0  0  0  0
    1.2211  -11.6529    3.5954 O   0  0  0  0  0  0  0  0  0  0  0  0
    1.4758   -9.8456    5.1645 C   0  0  1  0  0  0  0  0  0  0  0  0
    2.1691  -10.2434    6.3315 O   0  0  0  0  0  0  0  0  0  0  0  0
    1.2711   -8.3153    4.9661 C   0  0  1  0  0  0  0  0  0  0  0  0
    0.1439   -8.2394    3.9153 C   0  0  0  0  0  0  0  0  0  0  0  0
    0.7062   -8.5673    2.6270 O   0  0  0  0  0  0  0  0  0  0  0  0
    1.7530   -9.5707    2.5421 C   0  0  1  0  0  0  0  0  0  0  0  0
    1.5760   -7.1762    6.0525 C   0  0  1  0  0  0  0  0  0  0  0  0
    0.3286   -6.9731    6.9492 C   0  0  0  0  0  0  0  0  0  0  0  0
    2.8396   -7.4224    6.9242 C   0  0  0  0  0  0  0  0  0  0  0  0
    2.8098   -7.8644    8.0713 O   0  0  0  0  0  0  0  0  0  0  0  0
    4.1055   -6.9720    6.2027 C   0  0  1  0  0  0  0  0  0  0  0  0
    4.3117   -7.7371    4.9697 C   0  0  2  0  0  0  0  0  0  0  0  0
    5.6648   -8.2218    4.4528 C   0  0  0  0  0  0  0  0  0  0  0  0
    5.6411   -9.1743    3.1814 C   0  0  0  0  0  0  0  0  0  0  0  0
    6.6953  -10.2904    3.4318 C   0  0  0  0  0  0  0  0  0  0  0  0
    6.2583   -8.4236    1.9743 C   0  0  0  0  0  0  0  0  0  0  0  0
    3.6287   -6.2869    4.9219 C   0  0  2  0  0  0  0  0  0  0  0  0
    2.1502   -5.8703    5.3489 C   0  0  0  0  0  0  0  0  0  0  0  0
    1.2765   -5.3308    4.2059 C   0  0  0  0  0  0  0  0  0  0  0  0
    2.1591   -4.6654    6.3641 C   0  0  0  0  0  0  0  0  0  0  0  0
    3.9219   -3.9530    1.7234 C   0  0  1  0  0  0  0  0  0  0  0  0
    2.5687   -3.5768    1.8585 O   0  0  0  0  0  0  0  0  0  0  0  0
    2.2368   -2.9070    0.5528 O   0  0  0  0  0  0  0  0  0  0  0  0
    3.4468   -2.9472   -0.1743 C   0  0  1  0  0  0  0  0  0  0  0  0
    3.1516   -3.1619   -1.6611 C   0  0  0  0  0  0  0  0  0  0  0  0
    4.2337   -1.6517    0.0932 C   0  0  0  0  0  0  0  0  0  0  0  0
    4.4624   -1.4694    1.6035 C   0  0  0  0  0  0  0  0  0  0  0  0
    4.8048   -2.8117    2.2961 C   0  0  1  0  0  0  0  0  0  0  0  0
    4.2058   -4.0262    0.3386 O   0  0  0  0  0  0  0  0  0  0  0  0
    5.9093   -0.9525    4.1588 H   0  0  0  0  0  0  0  0  0  0  0  0
    5.0765   -1.5731    5.5837 H   0  0  0  0  0  0  0  0  0  0  0  0
    4.1690   -0.7574    4.3181 H   0  0  0  0  0  0  0  0  0  0  0  0
    4.6347   -3.8328    5.6203 H   0  0  0  0  0  0  0  0  0  0  0  0
    5.4175   -5.5926    4.0808 H   0  0  0  0  0  0  0  0  0  0  0  0
    5.1859   -5.5539    2.0540 H   0  0  0  0  0  0  0  0  0  0  0  0
    2.2961   -6.1799    1.5195 H   0  0  0  0  0  0  0  0  0  0  0  0
    3.7521   -6.7206    0.7566 H   0  0  0  0  0  0  0  0  0  0  0  0
    3.2133   -8.9622    1.0048 H   0  0  0  0  0  0  0  0  0  0  0  0
    4.5605  -10.4501    1.8839 H   0  0  0  0  0  0  0  0  0  0  0  0
    3.5105  -11.8028    3.0259 H   0  0  0  0  0  0  0  0  0  0  0  0
    3.6641  -11.8959    5.2653 H   0  0  0  0  0  0  0  0  0  0  0  0
    1.7969  -12.4085    3.5445 H   0  0  0  0  0  0  0  0  0  0  0  0
    0.4805  -10.2466    5.3675 H   0  0  0  0  0  0  0  0  0  0  0  0
    1.8177  -11.0804    6.6631 H   0  0  0  0  0  0  0  0  0  0  0  0
    2.0323   -8.0076    4.3097 H   0  0  0  0  0  0  0  0  0  0  0  0
   -0.6575   -8.9465    4.1328 H   0  0  0  0  0  0  0  0  0  0  0  0
   -0.3606   -7.2789    3.8581 H   0  0  0  0  0  0  0  0  0  0  0  0
    1.4642  -10.2321    1.7266 H   0  0  0  0  0  0  0  0  0  0  0  0
   -0.4534   -6.4229    6.4308 H   0  0  0  0  0  0  0  0  0  0  0  0
    0.5519   -6.4391    7.8758 H   0  0  0  0  0  0  0  0  0  0  0  0
   -0.0838   -7.9384    7.2418 H   0  0  0  0  0  0  0  0  0  0  0  0
    4.9276   -6.5134    6.7389 H   0  0  0  0  0  0  0  0  0  0  0  0
    3.7546   -8.6504    5.0284 H   0  0  0  0  0  0  0  0  0  0  0  0
    6.3785   -7.4110    4.3326 H   0  0  0  0  0  0  0  0  0  0  0  0
    6.0688   -8.7953    5.2880 H   0  0  0  0  0  0  0  0  0  0  0  0
    7.7020   -9.8768    3.5011 H   0  0  0  0  0  0  0  0  0  0  0  0
    6.7035  -11.0279    2.6285 H   0  0  0  0  0  0  0  0  0  0  0  0
    6.5379  -10.8295    4.3634 H   0  0  0  0  0  0  0  0  0  0  0  0
    7.2305   -7.9952    2.2226 H   0  0  0  0  0  0  0  0  0  0  0  0
    5.6471   -7.6086    1.6200 H   0  0  0  0  0  0  0  0  0  0  0  0
    6.4099   -9.0893    1.1245 H   0  0  0  0  0  0  0  0  0  0  0  0
    1.5910   -4.3401    3.8894 H   0  0  0  0  0  0  0  0  0  0  0  0
    0.2423   -5.2217    4.5288 H   0  0  0  0  0  0  0  0  0  0  0  0
    1.2850   -5.9631    3.3317 H   0  0  0  0  0  0  0  0  0  0  0  0
    2.3993   -3.7159    5.8854 H   0  0  0  0  0  0  0  0  0  0  0  0
    2.8589   -4.7751    7.1955 H   0  0  0  0  0  0  0  0  0  0  0  0
    1.1725   -4.4998    6.7973 H   0  0  0  0  0  0  0  0  0  0  0  0
    2.5775   -4.0760   -1.7958 H   0  0  0  0  0  0  0  0  0  0  0  0
    4.0672   -3.2481   -2.2465 H   0  0  0  0  0  0  0  0  0  0  0  0
    2.5545   -2.3493   -2.0752 H   0  0  0  0  0  0  0  0  0  0  0  0
    5.1856   -1.6904   -0.4369 H   0  0  0  0  0  0  0  0  0  0  0  0
    3.6855   -0.7944   -0.3033 H   0  0  0  0  0  0  0  0  0  0  0  0
    5.2623   -0.7476    1.7570 H   0  0  0  0  0  0  0  0  0  0  0  0
    3.5616   -1.0366    2.0454 H   0  0  0  0  0  0  0  0  0  0  0  0
    5.8394   -3.0442    2.0343 H   0  0  0  0  0  0  0  0  0  0  0  0
  1  2  1  0
  1 43  1  0
  1 44  1  0
  1 45  1  0
  2 41  1  0
  2  3  2  0
  3  4  1  0
  3 46  1  0
  4 30  1  0
  4  5  1  0
  4 47  1  6
  5  6  1  0
  5 34  1  0
  5 48  1  6
  6  7  1  0
  6 49  1  0
  6 50  1  0
  7  8  1  0
  8 19  1  0
  8  9  1  0
  8 51  1  6
  9 27  1  0
  9 10  1  0
  9 52  1  6
 10 11  1  0
 10 12  1  0
 10 53  1  6
 11 54  1  0
 12 19  1  0
 12 13  1  6
 12 14  1  0
 13 55  1  0
 14 15  1  0
 14 16  1  0
 14 56  1  1
 15 57  1  0
 16 17  1  0
 16 20  1  0
 16 58  1  6
 17 18  1  0
 17 59  1  0
 17 60  1  0
 18 19  1  0
 19 61  1  6
 20 31  1  0
 20 21  1  1
 20 22  1  0
 21 62  1  0
 21 63  1  0
 21 64  1  0
 22 23  2  0
 22 24  1  0
 24 30  1  0
 24 25  1  0
 24 65  1  1
 25 26  1  0
 25 30  1  0
 25 66  1  1
 26 27  1  0
 26 67  1  0
 26 68  1  0
 27 28  1  0
 27 29  1  0
 28 69  1  0
 28 70  1  0
 28 71  1  0
 29 72  1  0
 29 73  1  0
 29 74  1  0
 30 31  1  1
 31 32  1  0
 31 33  1  0
 32 75  1  0
 32 76  1  0
 32 77  1  0
 33 78  1  0
 33 79  1  0
 33 80  1  0
 34 41  1  0
 34 42  1  0
 34 35  1  6
 35 36  1  0
 36 37  1  0
 37 38  1  6
 37 39  1  0
 37 42  1  0
 38 81  1  0
 38 82  1  0
 38 83  1  0
 39 40  1  0
 39 84  1  0
 39 85  1  0
 40 41  1  0
 40 86  1  0
 40 87  1  0
 41 88  1  1
M  END
>  <i_m_ct_stereo_status>  (51) 
1

>  <s_m_source_file>  (51) 
/var/tmp/pbs.5076255.sched01/tmpbmel7479/053vx75p8.sdf

>  <i_m_source_file_index>  (51) 
20

>  <i_lp_mmshare_version>  (51) 
48012

>  <i_f3d_flags>  (51) 
0

>  <s_epik_input>  (51) 
TzFPW0NAQF0oTzIpKFtDSDNdKVtDSDJdW0NIMl1bQ0BASF0oQyhbQ0gzXSk9W0NIXTMpW0NAQF0xMltDQEBIXShbQ0BASF0zW0NAXTQ1NilbQ0gyXU9bQ0BIXTdbQ0BASF04W0NAQEhdKFtPSF0pW0NAXTkoW09IXSlbQ0BIXTdPW0NIMl1bQ0BIXShbQ0BASF05W09IXSlbQ0BdKFtDSDNdKShDNihbQ0gzXSlbQ0gzXSlDKD1PKVtDQEhdNFtDQEBIXTVbQ0gyXUM4KFtDSDNdKVtDSDNd

>  <s_epik_cmdline>  (51) 
J2VwaWtfcHl0aG9uJywgJy1waHQnLCAnMi4wJywgJy1waCcsICc3LjAnLCAnLXRuJywgJzgnLCAnLW1hJywgJzIwMCcsICctaW1hZScsICc8aW5maWxlLm1hZT4nLCAnLW9tYWUnLCAnPG91dGZpbGUubWFlPic=

>  <r_lp_tautomer_probability>  (51) 
1

>  <r_epik_Ionization_Penalty>  (51) 
1.35282e-07

>  <r_epik_Ionization_Penalty_Charging>  (51) 
0

>  <r_epik_Ionization_Penalty_Neutral>  (51) 
1.35282e-07

>  <r_epik_State_Penalty>  (51) 
-0

>  <r_epik_Charging_Adjusted_Penalty>  (51) 
0

>  <i_epik_Tot_Q>  (51) 
0

>  <i_epik_Tot_abs_Q>  (51) 
0

>  <s_lp_Force_Field>  (51) 
OPLS3e

>  <r_lp_Energy>  (51) 
166.125

>  <b_lp_Chiralities_Consistent>  (51) 
1

>  <s_lp_Variant>  (51) 
12:0-3

>  <s_i_glide_gridfile>  (51) 
pfpi4k_grid

>  <i_i_glide_lignum>  (51) 
20

>  <i_i_glide_rotatable_bonds>  (51) 
3

>  <r_i_docking_score>  (51) 
-2.96805

>  <r_i_glide_ligand_efficiency>  (51) 
-0.0706678

>  <r_i_glide_ligand_efficiency_sa>  (51) 
-0.245643

>  <r_i_glide_ligand_efficiency_ln>  (51) 
-0.626478

>  <r_i_glide_gscore>  (51) 
-2.96805

>  <r_i_glide_lipo>  (51) 
-0.392511

>  <r_i_glide_hbond>  (51) 
-0.00915107

>  <r_i_glide_metal>  (51) 
-0

>  <r_i_glide_rewards>  (51) 
-0.0103731

>  <r_i_glide_evdw>  (51) 
-31.211

>  <r_i_glide_ecoul>  (51) 
-6.53238

>  <r_i_glide_erotb>  (51) 
0

>  <r_i_glide_esite>  (51) 
-0.0156027

>  <r_i_glide_emodel>  (51) 
-44.5068

>  <r_i_glide_energy>  (51) 
-37.7434

>  <r_i_glide_einternal>  (51) 
2.33602

>  <r_i_glide_intrahb_reward>  (51) 
-0

>  <i_i_glide_confnum>  (51) 
1

>  <i_i_glide_posenum>  (51) 
4

>  <r_i_glide_eff_state_penalty>  (51) 
0

>  <ligand_id>  (51) 
12

>  <original_smiles>  (51) 
CC1=CC2C(COC3C4C(O)C5(O)C(O)C(COC35)C3(C)C(=O)C5C(CC4(C)C)C25C3(C)C)C23OOC(C)(CCC12)O3

>  <smiles>  (51) 
[H]OC1([H])C2([H])C([H])([H])OC3([H])C4([H])OC([H])([H])C5([H])C67OOC(C([H])([H])[H])(O6)C([H])([H])C([H])([H])C7([H])C(C([H])([H])[H])=C([H])C5([H])C56C([H])(C(=O)C2(C([H])([H])[H])C5(C([H])([H])[H])C([H])([H])[H])C6([H])C([H])([H])C(C([H])([H])[H])(C([H])([H])[H])C4([H])C([H])(O[H])C31O[H]

$$$$
12:2:1
     RDKit          3D

 88 96  0  0  1  0  0  0  0  0999 V2000
    5.0070   -1.3145    5.0966 C   0  0  0  0  0  0  0  0  0  0  0  0
    4.7061   -2.6562    4.4501 C   0  0  0  0  0  0  0  0  0  0  0  0
    4.4282   -3.7309    5.2131 C   0  0  0  0  0  0  0  0  0  0  0  0
    4.1580   -5.1326    4.7013 C   0  0  2  0  0  0  0  0  0  0  0  0
    3.9804   -5.2323    3.1174 C   0  0  1  0  0  0  0  0  0  0  0  0
    3.0736   -6.3447    2.4706 C   0  0  0  0  0  0  0  0  0  0  0  0
    2.9977   -7.4567    3.3431 O   0  0  0  0  0  0  0  0  0  0  0  0
    2.7156   -8.7828    2.9192 C   0  0  1  0  0  0  0  0  0  0  0  0
    3.7592   -9.7193    3.6172 C   0  0  2  0  0  0  0  0  0  0  0  0
    2.9222  -10.6686    4.5434 C   0  0  1  0  0  0  0  0  0  0  0  0
    3.5376  -11.0291    5.7641 O   0  0  0  0  0  0  0  0  0  0  0  0
    1.4416  -10.1544    4.6674 C   0  0  1  0  0  0  0  0  0  0  0  0
    0.6150  -11.2890    4.5079 O   0  0  0  0  0  0  0  0  0  0  0  0
    0.9319   -9.4186    5.9706 C   0  0  1  0  0  0  0  0  0  0  0  0
    1.5543   -9.7611    7.1766 O   0  0  0  0  0  0  0  0  0  0  0  0
    0.8328   -7.8989    5.7123 C   0  0  1  0  0  0  0  0  0  0  0  0
   -0.2638   -7.8063    4.6300 C   0  0  0  0  0  0  0  0  0  0  0  0
    0.3003   -8.2320    3.3696 O   0  0  0  0  0  0  0  0  0  0  0  0
    1.2875   -9.2976    3.3536 C   0  0  1  0  0  0  0  0  0  0  0  0
    1.1874   -6.7489    6.7782 C   0  0  1  0  0  0  0  0  0  0  0  0
   -0.0547   -6.4279    7.6369 C   0  0  0  0  0  0  0  0  0  0  0  0
    2.4331   -7.0285    7.6792 C   0  0  0  0  0  0  0  0  0  0  0  0
    2.3368   -7.4398    8.8434 O   0  0  0  0  0  0  0  0  0  0  0  0
    3.7123   -6.7096    6.9767 C   0  0  1  0  0  0  0  0  0  0  0  0
    3.9172   -7.5310    5.7790 C   0  0  2  0  0  0  0  0  0  0  0  0
    5.2334   -8.1241    5.3167 C   0  0  0  0  0  0  0  0  0  0  0  0
    5.1811   -9.1230    4.0814 C   0  0  0  0  0  0  0  0  0  0  0  0
    6.1569  -10.2907    4.4022 C   0  0  0  0  0  0  0  0  0  0  0  0
    5.8736   -8.4590    2.8633 C   0  0  0  0  0  0  0  0  0  0  0  0
    3.3208   -6.0460    5.6633 C   0  0  2  0  0  0  0  0  0  0  0  0
    1.8653   -5.5151    6.0278 C   0  0  0  0  0  0  0  0  0  0  0  0
    1.0478   -4.9733    4.8478 C   0  0  0  0  0  0  0  0  0  0  0  0
    1.9232   -4.2777    7.0003 C   0  0  0  0  0  0  0  0  0  0  0  0
    3.8136   -3.8623    2.3784 C   0  0  1  0  0  0  0  0  0  0  0  0
    2.4871   -3.3905    2.4737 O   0  0  0  0  0  0  0  0  0  0  0  0
    2.2374   -2.7381    1.1270 O   0  0  0  0  0  0  0  0  0  0  0  0
    3.4534   -2.9110    0.4393 C   0  0  1  0  0  0  0  0  0  0  0  0
    3.1876   -3.1793   -1.0522 C   0  0  0  0  0  0  0  0  0  0  0  0
    4.3231   -1.6534    0.6704 C   0  0  0  0  0  0  0  0  0  0  0  0
    4.5311   -1.4248    2.1800 C   0  0  0  0  0  0  0  0  0  0  0  0
    4.7644   -2.7614    2.9287 C   0  0  1  0  0  0  0  0  0  0  0  0
    4.1348   -4.0101    1.0090 O   0  0  0  0  0  0  0  0  0  0  0  0
    5.9615   -0.9072    4.7690 H   0  0  0  0  0  0  0  0  0  0  0  0
    5.0434   -1.4114    6.1829 H   0  0  0  0  0  0  0  0  0  0  0  0
    4.2297   -0.5889    4.8587 H   0  0  0  0  0  0  0  0  0  0  0  0
    4.4637   -3.6354    6.2868 H   0  0  0  0  0  0  0  0  0  0  0  0
    5.1703   -5.5017    4.8356 H   0  0  0  0  0  0  0  0  0  0  0  0
    4.9809   -5.5218    2.8009 H   0  0  0  0  0  0  0  0  0  0  0  0
    2.0743   -5.9938    2.2227 H   0  0  0  0  0  0  0  0  0  0  0  0
    3.5099   -6.6540    1.5191 H   0  0  0  0  0  0  0  0  0  0  0  0
    2.8255   -8.8406    1.8344 H   0  0  0  0  0  0  0  0  0  0  0  0
    4.0463  -10.3879    2.8037 H   0  0  0  0  0  0  0  0  0  0  0  0
    2.8830  -11.6141    4.0000 H   0  0  0  0  0  0  0  0  0  0  0  0
    2.9710  -11.6402    6.2109 H   0  0  0  0  0  0  0  0  0  0  0  0
   -0.2845  -11.0688    4.7597 H   0  0  0  0  0  0  0  0  0  0  0  0
   -0.0820   -9.7609    6.1798 H   0  0  0  0  0  0  0  0  0  0  0  0
    1.4406  -10.7229    7.3079 H   0  0  0  0  0  0  0  0  0  0  0  0
    1.6273   -7.6767    5.0647 H   0  0  0  0  0  0  0  0  0  0  0  0
   -1.1123   -8.4558    4.8628 H   0  0  0  0  0  0  0  0  0  0  0  0
   -0.7089   -6.8204    4.5239 H   0  0  0  0  0  0  0  0  0  0  0  0
    0.9825   -9.9786    2.5580 H   0  0  0  0  0  0  0  0  0  0  0  0
   -0.7985   -5.8584    7.0807 H   0  0  0  0  0  0  0  0  0  0  0  0
    0.1833   -5.8706    8.5457 H   0  0  0  0  0  0  0  0  0  0  0  0
   -0.5248   -7.3541    7.9737 H   0  0  0  0  0  0  0  0  0  0  0  0
    4.5636   -6.2866    7.5197 H   0  0  0  0  0  0  0  0  0  0  0  0
    3.2880   -8.4038    5.8573 H   0  0  0  0  0  0  0  0  0  0  0  0
    6.0020   -7.3646    5.1839 H   0  0  0  0  0  0  0  0  0  0  0  0
    5.5870   -8.6856    6.1820 H   0  0  0  0  0  0  0  0  0  0  0  0
    7.1865   -9.9390    4.4819 H   0  0  0  0  0  0  0  0  0  0  0  0
    6.1399  -11.0585    3.6276 H   0  0  0  0  0  0  0  0  0  0  0  0
    5.9418  -10.7831    5.3485 H   0  0  0  0  0  0  0  0  0  0  0  0
    6.8652   -8.0815    3.1190 H   0  0  0  0  0  0  0  0  0  0  0  0
    5.3244   -7.6216    2.4624 H   0  0  0  0  0  0  0  0  0  0  0  0
    6.0031   -9.1646    2.0425 H   0  0  0  0  0  0  0  0  0  0  0  0
    1.4328   -4.0170    4.5016 H   0  0  0  0  0  0  0  0  0  0  0  0
    0.0150   -4.7892    5.1396 H   0  0  0  0  0  0  0  0  0  0  0  0
    1.0385   -5.6404    3.9986 H   0  0  0  0  0  0  0  0  0  0  0  0
    2.2346   -3.3639    6.4926 H   0  0  0  0  0  0  0  0  0  0  0  0
    2.5951   -4.3975    7.8534 H   0  0  0  0  0  0  0  0  0  0  0  0
    0.9402   -4.0334    7.4029 H   0  0  0  0  0  0  0  0  0  0  0  0
    2.5821   -4.0766   -1.1768 H   0  0  0  0  0  0  0  0  0  0  0  0
    4.1142   -3.3286   -1.6040 H   0  0  0  0  0  0  0  0  0  0  0  0
    2.6485   -2.3527   -1.5147 H   0  0  0  0  0  0  0  0  0  0  0  0
    5.2825   -1.7759    0.1694 H   0  0  0  0  0  0  0  0  0  0  0  0
    3.8458   -0.7757    0.2285 H   0  0  0  0  0  0  0  0  0  0  0  0
    5.3744   -0.7475    2.3269 H   0  0  0  0  0  0  0  0  0  0  0  0
    3.6505   -0.9197    2.5841 H   0  0  0  0  0  0  0  0  0  0  0  0
    5.7911   -3.0680    2.7028 H   0  0  0  0  0  0  0  0  0  0  0  0
  1  2  1  0
  1 43  1  0
  1 44  1  0
  1 45  1  0
  2 41  1  0
  2  3  2  0
  3  4  1  0
  3 46  1  0
  4 30  1  0
  4  5  1  0
  4 47  1  6
  5  6  1  0
  5 34  1  0
  5 48  1  6
  6  7  1  0
  6 49  1  0
  6 50  1  0
  7  8  1  0
  8 19  1  0
  8  9  1  0
  8 51  1  6
  9 27  1  0
  9 10  1  0
  9 52  1  6
 10 11  1  0
 10 12  1  0
 10 53  1  6
 11 54  1  0
 12 19  1  0
 12 13  1  6
 12 14  1  0
 13 55  1  0
 14 15  1  0
 14 16  1  0
 14 56  1  1
 15 57  1  0
 16 17  1  0
 16 20  1  0
 16 58  1  6
 17 18  1  0
 17 59  1  0
 17 60  1  0
 18 19  1  0
 19 61  1  6
 20 31  1  0
 20 21  1  1
 20 22  1  0
 21 62  1  0
 21 63  1  0
 21 64  1  0
 22 23  2  0
 22 24  1  0
 24 30  1  0
 24 25  1  0
 24 65  1  1
 25 26  1  0
 25 30  1  0
 25 66  1  1
 26 27  1  0
 26 67  1  0
 26 68  1  0
 27 28  1  0
 27 29  1  0
 28 69  1  0
 28 70  1  0
 28 71  1  0
 29 72  1  0
 29 73  1  0
 29 74  1  0
 30 31  1  1
 31 32  1  0
 31 33  1  0
 32 75  1  0
 32 76  1  0
 32 77  1  0
 33 78  1  0
 33 79  1  0
 33 80  1  0
 34 41  1  0
 34 42  1  0
 34 35  1  6
 35 36  1  0
 36 37  1  0
 37 38  1  6
 37 39  1  0
 37 42  1  0
 38 81  1  0
 38 82  1  0
 38 83  1  0
 39 40  1  0
 39 84  1  0
 39 85  1  0
 40 41  1  0
 40 86  1  0
 40 87  1  0
 41 88  1  1
M  END
>  <i_m_ct_stereo_status>  (52) 
1

>  <s_m_source_file>  (52) 
/var/tmp/pbs.5076255.sched01/tmpbmel7479/053vx75p8.sdf

>  <i_m_source_file_index>  (52) 
20

>  <i_lp_mmshare_version>  (52) 
48012

>  <i_f3d_flags>  (52) 
0

>  <s_epik_input>  (52) 
TzFPW0NAQF0oTzIpKFtDSDNdKVtDSDJdW0NIMl1bQ0BASF0oQyhbQ0gzXSk9W0NIXTMpW0NAQF0xMltDQEBIXShbQ0BASF0zW0NAXTQ1NilbQ0gyXU9bQ0BIXTdbQ0BASF04W0NAQEhdKFtPSF0pW0NAXTkoW09IXSlbQ0BIXTdPW0NIMl1bQ0BIXShbQ0BASF05W09IXSlbQ0BdKFtDSDNdKShDNihbQ0gzXSlbQ0gzXSlDKD1PKVtDQEhdNFtDQEBIXTVbQ0gyXUM4KFtDSDNdKVtDSDNd

>  <s_epik_cmdline>  (52) 
J2VwaWtfcHl0aG9uJywgJy1waHQnLCAnMi4wJywgJy1waCcsICc3LjAnLCAnLXRuJywgJzgnLCAnLW1hJywgJzIwMCcsICctaW1hZScsICc8aW5maWxlLm1hZT4nLCAnLW9tYWUnLCAnPG91dGZpbGUubWFlPic=

>  <r_lp_tautomer_probability>  (52) 
1

>  <r_epik_Ionization_Penalty>  (52) 
1.35282e-07

>  <r_epik_Ionization_Penalty_Charging>  (52) 
0

>  <r_epik_Ionization_Penalty_Neutral>  (52) 
1.35282e-07

>  <r_epik_State_Penalty>  (52) 
-0

>  <r_epik_Charging_Adjusted_Penalty>  (52) 
0

>  <i_epik_Tot_Q>  (52) 
0

>  <i_epik_Tot_abs_Q>  (52) 
0

>  <s_lp_Force_Field>  (52) 
OPLS3e

>  <r_lp_Energy>  (52) 
166.125

>  <b_lp_Chiralities_Consistent>  (52) 
1

>  <s_lp_Variant>  (52) 
12:0-3

>  <s_i_glide_gridfile>  (52) 
pfpi4k_grid

>  <i_i_glide_lignum>  (52) 
20

>  <i_i_glide_rotatable_bonds>  (52) 
3

>  <r_i_docking_score>  (52) 
-2.83796

>  <r_i_glide_ligand_efficiency>  (52) 
-0.0675704

>  <r_i_glide_ligand_efficiency_sa>  (52) 
-0.234876

>  <r_i_glide_ligand_efficiency_ln>  (52) 
-0.599019

>  <r_i_glide_gscore>  (52) 
-2.83796

>  <r_i_glide_lipo>  (52) 
-0.185487

>  <r_i_glide_hbond>  (52) 
0

>  <r_i_glide_metal>  (52) 
-0

>  <r_i_glide_rewards>  (52) 
-0.00133185

>  <r_i_glide_evdw>  (52) 
-27.9962

>  <r_i_glide_ecoul>  (52) 
-8.22199

>  <r_i_glide_erotb>  (52) 
0

>  <r_i_glide_esite>  (52) 
-0.0180279

>  <r_i_glide_emodel>  (52) 
-43.3496

>  <r_i_glide_energy>  (52) 
-36.2182

>  <r_i_glide_einternal>  (52) 
1.01431

>  <r_i_glide_intrahb_reward>  (52) 
-0

>  <i_i_glide_confnum>  (52) 
1

>  <i_i_glide_posenum>  (52) 
9

>  <r_i_glide_eff_state_penalty>  (52) 
0

>  <ligand_id>  (52) 
12

>  <original_smiles>  (52) 
CC1=CC2C(COC3C4C(O)C5(O)C(O)C(COC35)C3(C)C(=O)C5C(CC4(C)C)C25C3(C)C)C23OOC(C)(CCC12)O3

>  <smiles>  (52) 
[H]OC1([H])C2([H])C([H])([H])OC3([H])C4([H])OC([H])([H])C5([H])C67OOC(C([H])([H])[H])(O6)C([H])([H])C([H])([H])C7([H])C(C([H])([H])[H])=C([H])C5([H])C56C([H])(C(=O)C2(C([H])([H])[H])C5(C([H])([H])[H])C([H])([H])[H])C6([H])C([H])([H])C(C([H])([H])[H])(C([H])([H])[H])C4([H])C([H])(O[H])C31O[H]

$$$$
12:2:2
     RDKit          3D

 88 96  0  0  1  0  0  0  0  0999 V2000
    4.9381   -2.1580    7.5651 C   0  0  0  0  0  0  0  0  0  0  0  0
    4.4212   -2.9401    6.3685 C   0  0  0  0  0  0  0  0  0  0  0  0
    4.3307   -4.2806    6.4175 C   0  0  0  0  0  0  0  0  0  0  0  0
    3.8905   -5.1782    5.2758 C   0  0  2  0  0  0  0  0  0  0  0  0
    3.2849   -4.3958    4.0212 C   0  0  1  0  0  0  0  0  0  0  0  0
    2.2106   -5.0704    3.0924 C   0  0  0  0  0  0  0  0  0  0  0  0
    2.3415   -6.4756    3.1602 O   0  0  0  0  0  0  0  0  0  0  0  0
    1.9230   -7.3661    2.1376 C   0  0  1  0  0  0  0  0  0  0  0  0
    3.0902   -8.3830    1.9132 C   0  0  2  0  0  0  0  0  0  0  0  0
    2.5165   -9.7859    2.2920 C   0  0  1  0  0  0  0  0  0  0  0  0
    3.4500  -10.6823    2.8539 O   0  0  0  0  0  0  0  0  0  0  0  0
    1.1361   -9.6342    3.0311 C   0  0  1  0  0  0  0  0  0  0  0  0
    0.2265  -10.5703    2.4761 O   0  0  0  0  0  0  0  0  0  0  0  0
    1.0218   -9.8430    4.5988 C   0  0  1  0  0  0  0  0  0  0  0  0
    1.9576  -10.7344    5.1732 O   0  0  0  0  0  0  0  0  0  0  0  0
    0.8868   -8.4594    5.2782 C   0  0  1  0  0  0  0  0  0  0  0  0
   -0.4572   -7.9175    4.7357 C   0  0  0  0  0  0  0  0  0  0  0  0
   -0.2646   -7.4822    3.3714 O   0  0  0  0  0  0  0  0  0  0  0  0
    0.6553   -8.2189    2.5257 C   0  0  1  0  0  0  0  0  0  0  0  0
    1.5426   -8.0537    6.6804 C   0  0  1  0  0  0  0  0  0  0  0  0
    0.5801   -8.4476    7.8286 C   0  0  0  0  0  0  0  0  0  0  0  0
    2.9687   -8.6315    6.9390 C   0  0  0  0  0  0  0  0  0  0  0  0
    3.1973   -9.6160    7.6373 O   0  0  0  0  0  0  0  0  0  0  0  0
    4.0390   -7.7896    6.2672 C   0  0  1  0  0  0  0  0  0  0  0  0
    3.8742   -7.7798    4.8138 C   0  0  2  0  0  0  0  0  0  0  0  0
    5.0129   -7.8294    3.7954 C   0  0  0  0  0  0  0  0  0  0  0  0
    4.6010   -7.9668    2.2695 C   0  0  0  0  0  0  0  0  0  0  0  0
    5.5914   -8.9750    1.6161 C   0  0  0  0  0  0  0  0  0  0  0  0
    4.9517   -6.6532    1.5250 C   0  0  0  0  0  0  0  0  0  0  0  0
    3.3159   -6.5725    5.7057 C   0  0  2  0  0  0  0  0  0  0  0  0
    2.0292   -6.5396    6.6478 C   0  0  0  0  0  0  0  0  0  0  0  0
    0.9417   -5.5411    6.2224 C   0  0  0  0  0  0  0  0  0  0  0  0
    2.3853   -6.0558    8.1029 C   0  0  0  0  0  0  0  0  0  0  0  0
    2.9727   -2.8915    4.2711 C   0  0  1  0  0  0  0  0  0  0  0  0
    1.7237   -2.7225    4.9162 O   0  0  0  0  0  0  0  0  0  0  0  0
    1.1363   -1.4875    4.2848 O   0  0  0  0  0  0  0  0  0  0  0  0
    2.1273   -1.0695    3.3678 C   0  0  1  0  0  0  0  0  0  0  0  0
    1.4620   -0.4938    2.1145 C   0  0  0  0  0  0  0  0  0  0  0  0
    3.0590   -0.0612    4.0698 C   0  0  0  0  0  0  0  0  0  0  0  0
    3.6756   -0.6864    5.3336 C   0  0  0  0  0  0  0  0  0  0  0  0
    4.0671   -2.1654    5.1026 C   0  0  1  0  0  0  0  0  0  0  0  0
    2.8937   -2.2090    3.0311 O   0  0  0  0  0  0  0  0  0  0  0  0
    5.7914   -1.5318    7.3003 H   0  0  0  0  0  0  0  0  0  0  0  0
    5.2547   -2.8368    8.3562 H   0  0  0  0  0  0  0  0  0  0  0  0
    4.1503   -1.5284    7.9777 H   0  0  0  0  0  0  0  0  0  0  0  0
    4.6575   -4.7947    7.3082 H   0  0  0  0  0  0  0  0  0  0  0  0
    4.8893   -5.4220    4.9339 H   0  0  0  0  0  0  0  0  0  0  0  0
    4.1568   -4.3271    3.3719 H   0  0  0  0  0  0  0  0  0  0  0  0
    1.1911   -4.7747    3.3358 H   0  0  0  0  0  0  0  0  0  0  0  0
    2.3658   -4.7337    2.0656 H   0  0  0  0  0  0  0  0  0  0  0  0
    1.7342   -6.7983    1.2250 H   0  0  0  0  0  0  0  0  0  0  0  0
    3.1383   -8.4490    0.8323 H   0  0  0  0  0  0  0  0  0  0  0  0
    2.2945  -10.2474    1.3263 H   0  0  0  0  0  0  0  0  0  0  0  0
    3.8001  -11.2231    2.1535 H   0  0  0  0  0  0  0  0  0  0  0  0
    0.2242  -10.4879    1.5320 H   0  0  0  0  0  0  0  0  0  0  0  0
    0.0878  -10.3704    4.7946 H   0  0  0  0  0  0  0  0  0  0  0  0
    1.5908  -11.1513    5.9464 H   0  0  0  0  0  0  0  0  0  0  0  0
    1.4841   -7.8083    4.7106 H   0  0  0  0  0  0  0  0  0  0  0  0
   -1.2329   -8.6853    4.7495 H   0  0  0  0  0  0  0  0  0  0  0  0
   -0.8821   -7.1025    5.3137 H   0  0  0  0  0  0  0  0  0  0  0  0
    0.1196   -8.3633    1.5887 H   0  0  0  0  0  0  0  0  0  0  0  0
   -0.2544   -7.7560    7.9009 H   0  0  0  0  0  0  0  0  0  0  0  0
    1.0711   -8.4722    8.8035 H   0  0  0  0  0  0  0  0  0  0  0  0
    0.1723   -9.4452    7.6615 H   0  0  0  0  0  0  0  0  0  0  0  0
    5.0082   -7.6374    6.7366 H   0  0  0  0  0  0  0  0  0  0  0  0
    3.2758   -8.6225    4.5196 H   0  0  0  0  0  0  0  0  0  0  0  0
    5.7356   -7.0313    3.9444 H   0  0  0  0  0  0  0  0  0  0  0  0
    5.5660   -8.7275    4.0700 H   0  0  0  0  0  0  0  0  0  0  0  0
    6.6135   -8.5942    1.6333 H   0  0  0  0  0  0  0  0  0  0  0  0
    5.3396   -9.1764    0.5743 H   0  0  0  0  0  0  0  0  0  0  0  0
    5.6361   -9.9335    2.1273 H   0  0  0  0  0  0  0  0  0  0  0  0
    5.9860   -6.3558    1.7066 H   0  0  0  0  0  0  0  0  0  0  0  0
    4.3389   -5.8161    1.8207 H   0  0  0  0  0  0  0  0  0  0  0  0
    4.8343   -6.7572    0.4459 H   0  0  0  0  0  0  0  0  0  0  0  0
    1.2473   -4.5151    6.4075 H   0  0  0  0  0  0  0  0  0  0  0  0
    0.0320   -5.6894    6.8021 H   0  0  0  0  0  0  0  0  0  0  0  0
    0.6838   -5.6140    5.1768 H   0  0  0  0  0  0  0  0  0  0  0  0
    2.5744   -4.9842    8.1529 H   0  0  0  0  0  0  0  0  0  0  0  0
    3.2590   -6.5420    8.5435 H   0  0  0  0  0  0  0  0  0  0  0  0
    1.5548   -6.2115    8.7912 H   0  0  0  0  0  0  0  0  0  0  0  0
    0.8195   -1.2417    1.6556 H   0  0  0  0  0  0  0  0  0  0  0  0
    2.2016   -0.1902    1.3708 H   0  0  0  0  0  0  0  0  0  0  0  0
    0.8440    0.3752    2.3440 H   0  0  0  0  0  0  0  0  0  0  0  0
    3.8440    0.2436    3.3747 H   0  0  0  0  0  0  0  0  0  0  0  0
    2.5100    0.8451    4.3351 H   0  0  0  0  0  0  0  0  0  0  0  0
    4.5449   -0.1037    5.6325 H   0  0  0  0  0  0  0  0  0  0  0  0
    2.9525   -0.6151    6.1494 H   0  0  0  0  0  0  0  0  0  0  0  0
    4.9800   -2.1576    4.5013 H   0  0  0  0  0  0  0  0  0  0  0  0
  1  2  1  0
  1 43  1  0
  1 44  1  0
  1 45  1  0
  2 41  1  0
  2  3  2  0
  3  4  1  0
  3 46  1  0
  4 30  1  0
  4  5  1  0
  4 47  1  6
  5  6  1  0
  5 34  1  0
  5 48  1  6
  6  7  1  0
  6 49  1  0
  6 50  1  0
  7  8  1  0
  8 19  1  0
  8  9  1  0
  8 51  1  6
  9 27  1  0
  9 10  1  0
  9 52  1  6
 10 11  1  0
 10 12  1  0
 10 53  1  6
 11 54  1  0
 12 19  1  0
 12 13  1  6
 12 14  1  0
 13 55  1  0
 14 15  1  0
 14 16  1  0
 14 56  1  6
 15 57  1  0
 16 17  1  0
 16 20  1  0
 16 58  1  6
 17 18  1  0
 17 59  1  0
 17 60  1  0
 18 19  1  0
 19 61  1  6
 20 31  1  0
 20 21  1  1
 20 22  1  0
 21 62  1  0
 21 63  1  0
 21 64  1  0
 22 23  2  0
 22 24  1  0
 24 30  1  0
 24 25  1  0
 24 65  1  6
 25 26  1  0
 25 30  1  0
 25 66  1  6
 26 27  1  0
 26 67  1  0
 26 68  1  0
 27 28  1  0
 27 29  1  0
 28 69  1  0
 28 70  1  0
 28 71  1  0
 29 72  1  0
 29 73  1  0
 29 74  1  0
 30 31  1  1
 31 32  1  0
 31 33  1  0
 32 75  1  0
 32 76  1  0
 32 77  1  0
 33 78  1  0
 33 79  1  0
 33 80  1  0
 34 41  1  0
 34 42  1  0
 34 35  1  1
 35 36  1  0
 36 37  1  0
 37 38  1  6
 37 39  1  0
 37 42  1  0
 38 81  1  0
 38 82  1  0
 38 83  1  0
 39 40  1  0
 39 84  1  0
 39 85  1  0
 40 41  1  0
 40 86  1  0
 40 87  1  0
 41 88  1  6
M  END
>  <i_m_ct_stereo_status>  (53) 
1

>  <s_m_source_file>  (53) 
/var/tmp/pbs.5076255.sched01/tmpbmel7479/053vx75p8.sdf

>  <i_m_source_file_index>  (53) 
20

>  <i_lp_mmshare_version>  (53) 
48012

>  <i_f3d_flags>  (53) 
0

>  <s_epik_input>  (53) 
TzFPW0NAQF0oTzIpKFtDSDNdKVtDSDJdW0NIMl1bQ0BASF0oQyhbQ0gzXSk9W0NIXTMpW0NAQF0xMltDQEBIXShbQ0BASF0zW0NAXTQ1NilbQ0gyXU9bQ0BIXTdbQ0BASF04W0NAQEhdKFtPSF0pW0NAXTkoW09IXSlbQ0BIXTdPW0NIMl1bQ0BIXShbQ0BASF05W09IXSlbQ0BdKFtDSDNdKShDNihbQ0gzXSlbQ0gzXSlDKD1PKVtDQEhdNFtDQEBIXTVbQ0gyXUM4KFtDSDNdKVtDSDNd

>  <s_epik_cmdline>  (53) 
J2VwaWtfcHl0aG9uJywgJy1waHQnLCAnMi4wJywgJy1waCcsICc3LjAnLCAnLXRuJywgJzgnLCAnLW1hJywgJzIwMCcsICctaW1hZScsICc8aW5maWxlLm1hZT4nLCAnLW9tYWUnLCAnPG91dGZpbGUubWFlPic=

>  <r_lp_tautomer_probability>  (53) 
1

>  <r_epik_Ionization_Penalty>  (53) 
1.35282e-07

>  <r_epik_Ionization_Penalty_Charging>  (53) 
0

>  <r_epik_Ionization_Penalty_Neutral>  (53) 
1.35282e-07

>  <r_epik_State_Penalty>  (53) 
-0

>  <r_epik_Charging_Adjusted_Penalty>  (53) 
0

>  <i_epik_Tot_Q>  (53) 
0

>  <i_epik_Tot_abs_Q>  (53) 
0

>  <s_lp_Force_Field>  (53) 
OPLS3e

>  <r_lp_Energy>  (53) 
166.125

>  <b_lp_Chiralities_Consistent>  (53) 
1

>  <s_lp_Variant>  (53) 
12:0-3

>  <s_i_glide_gridfile>  (53) 
pfpi4k_grid

>  <i_i_glide_lignum>  (53) 
20

>  <i_i_glide_rotatable_bonds>  (53) 
3

>  <r_i_docking_score>  (53) 
-2.65202

>  <r_i_glide_ligand_efficiency>  (53) 
-0.0631434

>  <r_i_glide_ligand_efficiency_sa>  (53) 
-0.219488

>  <r_i_glide_ligand_efficiency_ln>  (53) 
-0.559774

>  <r_i_glide_gscore>  (53) 
-2.65202

>  <r_i_glide_lipo>  (53) 
-0.119029

>  <r_i_glide_hbond>  (53) 
0

>  <r_i_glide_metal>  (53) 
-0

>  <r_i_glide_rewards>  (53) 
-4.71399e-05

>  <r_i_glide_evdw>  (53) 
-32.3742

>  <r_i_glide_ecoul>  (53) 
-5.98586

>  <r_i_glide_erotb>  (53) 
0

>  <r_i_glide_esite>  (53) 
-0.0163589

>  <r_i_glide_emodel>  (53) 
-44.4276

>  <r_i_glide_energy>  (53) 
-38.3601

>  <r_i_glide_einternal>  (53) 
1.71303

>  <r_i_glide_intrahb_reward>  (53) 
-0

>  <i_i_glide_confnum>  (53) 
1

>  <i_i_glide_posenum>  (53) 
7

>  <r_i_glide_eff_state_penalty>  (53) 
0

>  <ligand_id>  (53) 
12

>  <original_smiles>  (53) 
CC1=CC2C(COC3C4C(O)C5(O)C(O)C(COC35)C3(C)C(=O)C5C(CC4(C)C)C25C3(C)C)C23OOC(C)(CCC12)O3

>  <smiles>  (53) 
[H]OC1([H])C2([H])C([H])([H])OC3([H])C4([H])OC([H])([H])C5([H])C67OOC(C([H])([H])[H])(O6)C([H])([H])C([H])([H])C7([H])C(C([H])([H])[H])=C([H])C5([H])C56C([H])(C(=O)C2(C([H])([H])[H])C5(C([H])([H])[H])C([H])([H])[H])C6([H])C([H])([H])C(C([H])([H])[H])(C([H])([H])[H])C4([H])C([H])(O[H])C31O[H]

$$$$
12:3:0
     RDKit          3D

 88 96  0  0  1  0  0  0  0  0999 V2000
    1.9503   -5.8545    2.5219 C   0  0  0  0  0  0  0  0  0  0  0  0
    2.2135   -4.3588    2.4688 C   0  0  0  0  0  0  0  0  0  0  0  0
    1.6733   -3.5365    3.3859 C   0  0  0  0  0  0  0  0  0  0  0  0
    1.8038   -2.0244    3.4154 C   0  0  2  0  0  0  0  0  0  0  0  0
    2.7469   -1.4381    2.2728 C   0  0  1  0  0  0  0  0  0  0  0  0
    3.3712   -0.0130    2.4482 C   0  0  0  0  0  0  0  0  0  0  0  0
    2.4482    0.7222    3.2129 O   0  0  0  0  0  0  0  0  0  0  0  0
    2.5221    2.1114    3.4717 C   0  0  1  0  0  0  0  0  0  0  0  0
    1.0572    2.6287    3.6335 C   0  0  2  0  0  0  0  0  0  0  0  0
    1.0503    3.3975    4.9930 C   0  0  1  0  0  0  0  0  0  0  0  0
   -0.1897    3.5203    5.6535 O   0  0  0  0  0  0  0  0  0  0  0  0
    2.2547    2.9415    5.8729 C   0  0  1  0  0  0  0  0  0  0  0  0
    2.8307    4.1332    6.3998 O   0  0  0  0  0  0  0  0  0  0  0  0
    2.0569    1.9958    7.1452 C   0  0  1  0  0  0  0  0  0  0  0  0
    0.7343    1.8059    7.5971 O   0  0  0  0  0  0  0  0  0  0  0  0
    2.9976    0.7368    7.2643 C   0  0  2  0  0  0  0  0  0  0  0  0
    4.3082    1.1581    6.5746 C   0  0  0  0  0  0  0  0  0  0  0  0
    4.0793    1.3362    5.1847 O   0  0  0  0  0  0  0  0  0  0  0  0
    3.2745    2.4414    4.7998 C   0  0  1  0  0  0  0  0  0  0  0  0
    2.5325   -0.8375    7.1991 C   0  0  1  0  0  0  0  0  0  0  0  0
    3.0742   -1.4935    8.5136 C   0  0  0  0  0  0  0  0  0  0  0  0
    1.0033   -1.0685    7.1784 C   0  0  0  0  0  0  0  0  0  0  0  0
    0.2770   -1.0805    8.1732 O   0  0  0  0  0  0  0  0  0  0  0  0
    0.5252   -1.3094    5.7767 C   0  0  1  0  0  0  0  0  0  0  0  0
    0.7683   -0.1455    4.9313 C   0  0  2  0  0  0  0  0  0  0  0  0
   -0.3847    0.3564    4.0671 C   0  0  0  0  0  0  0  0  0  0  0  0
   -0.1461    1.6585    3.2149 C   0  0  0  0  0  0  0  0  0  0  0  0
   -1.4841    2.4536    3.1977 C   0  0  0  0  0  0  0  0  0  0  0  0
    0.0198    1.2556    1.7265 C   0  0  0  0  0  0  0  0  0  0  0  0
    1.7353   -1.3731    4.8489 C   0  0  2  0  0  0  0  0  0  0  0  0
    2.8632   -1.7315    5.8989 C   0  0  0  0  0  0  0  0  0  0  0  0
    4.3234   -1.6723    5.4073 C   0  0  0  0  0  0  0  0  0  0  0  0
    2.7502   -3.2613    6.2689 C   0  0  0  0  0  0  0  0  0  0  0  0
    3.7236   -2.4652    1.6364 C   0  0  1  0  0  0  0  0  0  0  0  0
    4.8418   -2.7018    2.4721 O   0  0  0  0  0  0  0  0  0  0  0  0
    5.9985   -2.8528    1.5249 O   0  0  0  0  0  0  0  0  0  0  0  0
    5.4094   -2.7244    0.2475 C   0  0  1  0  0  0  0  0  0  0  0  0
    6.3665   -1.9913   -0.6952 C   0  0  0  0  0  0  0  0  0  0  0  0
    5.0252   -4.1300   -0.2614 C   0  0  0  0  0  0  0  0  0  0  0  0
    4.0760   -4.8214    0.7327 C   0  0  0  0  0  0  0  0  0  0  0  0
    3.0416   -3.8238    1.3036 C   0  0  1  0  0  0  0  0  0  0  0  0
    4.2246   -1.9676    0.4057 O   0  0  0  0  0  0  0  0  0  0  0  0
    1.5236   -6.2222    1.5865 H   0  0  0  0  0  0  0  0  0  0  0  0
    1.2534   -6.0903    3.3266 H   0  0  0  0  0  0  0  0  0  0  0  0
    2.8745   -6.3985    2.7230 H   0  0  0  0  0  0  0  0  0  0  0  0
    1.0379   -3.9539    4.1529 H   0  0  0  0  0  0  0  0  0  0  0  0
    0.8227   -1.7972    3.0103 H   0  0  0  0  0  0  0  0  0  0  0  0
    2.0447   -1.2836    1.4520 H   0  0  0  0  0  0  0  0  0  0  0  0
    4.3590   -0.0218    2.9027 H   0  0  0  0  0  0  0  0  0  0  0  0
    3.4907    0.4624    1.4709 H   0  0  0  0  0  0  0  0  0  0  0  0
    3.0031    2.5995    2.6235 H   0  0  0  0  0  0  0  0  0  0  0  0
    0.9851    3.4233    2.8891 H   0  0  0  0  0  0  0  0  0  0  0  0
    1.2634    4.4270    4.6927 H   0  0  0  0  0  0  0  0  0  0  0  0
   -0.8361    3.7409    5.0005 H   0  0  0  0  0  0  0  0  0  0  0  0
    2.9777    4.7394    5.6921 H   0  0  0  0  0  0  0  0  0  0  0  0
    2.3894    2.6059    7.9852 H   0  0  0  0  0  0  0  0  0  0  0  0
    0.3100    2.6521    7.6251 H   0  0  0  0  0  0  0  0  0  0  0  0
    3.2952    0.8366    8.3078 H   0  0  0  0  0  0  0  0  0  0  0  0
    4.6801    2.0962    6.9960 H   0  0  0  0  0  0  0  0  0  0  0  0
    5.1051    0.4433    6.7546 H   0  0  0  0  0  0  0  0  0  0  0  0
    3.9604    3.2556    4.5576 H   0  0  0  0  0  0  0  0  0  0  0  0
    4.1513   -1.6530    8.4709 H   0  0  0  0  0  0  0  0  0  0  0  0
    2.6039   -2.4527    8.7434 H   0  0  0  0  0  0  0  0  0  0  0  0
    2.8702   -0.8886    9.3968 H   0  0  0  0  0  0  0  0  0  0  0  0
   -0.2985   -1.9938    5.5863 H   0  0  0  0  0  0  0  0  0  0  0  0
    1.2401    0.6975    5.3619 H   0  0  0  0  0  0  0  0  0  0  0  0
   -0.7906   -0.4451    3.4513 H   0  0  0  0  0  0  0  0  0  0  0  0
   -1.1789    0.5626    4.7831 H   0  0  0  0  0  0  0  0  0  0  0  0
   -2.2559    1.9102    2.6529 H   0  0  0  0  0  0  0  0  0  0  0  0
   -1.3740    3.4185    2.6998 H   0  0  0  0  0  0  0  0  0  0  0  0
   -1.9076    2.6223    4.1846 H   0  0  0  0  0  0  0  0  0  0  0  0
   -0.8734    0.7519    1.3560 H   0  0  0  0  0  0  0  0  0  0  0  0
    0.8345    0.5710    1.5283 H   0  0  0  0  0  0  0  0  0  0  0  0
    0.1720    2.1251    1.0898 H   0  0  0  0  0  0  0  0  0  0  0  0
    4.6022   -2.5461    4.8230 H   0  0  0  0  0  0  0  0  0  0  0  0
    5.0105   -1.6712    6.2523 H   0  0  0  0  0  0  0  0  0  0  0  0
    4.5578   -0.8288    4.7858 H   0  0  0  0  0  0  0  0  0  0  0  0
    3.0107   -3.9173    5.4400 H   0  0  0  0  0  0  0  0  0  0  0  0
    1.7592   -3.5731    6.6062 H   0  0  0  0  0  0  0  0  0  0  0  0
    3.4645   -3.5538    7.0388 H   0  0  0  0  0  0  0  0  0  0  0  0
    6.5993   -1.0032   -0.3009 H   0  0  0  0  0  0  0  0  0  0  0  0
    5.9238   -1.8654   -1.6843 H   0  0  0  0  0  0  0  0  0  0  0  0
    7.3042   -2.5365   -0.8130 H   0  0  0  0  0  0  0  0  0  0  0  0
    4.5472   -4.0404   -1.2391 H   0  0  0  0  0  0  0  0  0  0  0  0
    5.9179   -4.7415   -0.4001 H   0  0  0  0  0  0  0  0  0  0  0  0
    3.5776   -5.6472    0.2286 H   0  0  0  0  0  0  0  0  0  0  0  0
    4.6639   -5.2523    1.5481 H   0  0  0  0  0  0  0  0  0  0  0  0
    2.3227   -3.6333    0.5060 H   0  0  0  0  0  0  0  0  0  0  0  0
  1  2  1  0
  1 43  1  0
  1 44  1  0
  1 45  1  0
  2 41  1  0
  2  3  2  0
  3  4  1  0
  3 46  1  0
  4 30  1  0
  4  5  1  0
  4 47  1  6
  5  6  1  0
  5 34  1  0
  5 48  1  6
  6  7  1  0
  6 49  1  0
  6 50  1  0
  7  8  1  0
  8 19  1  0
  8  9  1  0
  8 51  1  6
  9 27  1  0
  9 10  1  0
  9 52  1  6
 10 11  1  0
 10 12  1  0
 10 53  1  6
 11 54  1  0
 12 19  1  0
 12 13  1  1
 12 14  1  0
 13 55  1  0
 14 15  1  0
 14 16  1  0
 14 56  1  1
 15 57  1  0
 16 17  1  0
 16 20  1  0
 16 58  1  1
 17 18  1  0
 17 59  1  0
 17 60  1  0
 18 19  1  0
 19 61  1  6
 20 31  1  0
 20 21  1  1
 20 22  1  0
 21 62  1  0
 21 63  1  0
 21 64  1  0
 22 23  2  0
 22 24  1  0
 24 30  1  0
 24 25  1  0
 24 65  1  1
 25 26  1  0
 25 30  1  0
 25 66  1  1
 26 27  1  0
 26 67  1  0
 26 68  1  0
 27 28  1  0
 27 29  1  0
 28 69  1  0
 28 70  1  0
 28 71  1  0
 29 72  1  0
 29 73  1  0
 29 74  1  0
 30 31  1  1
 31 32  1  0
 31 33  1  0
 32 75  1  0
 32 76  1  0
 32 77  1  0
 33 78  1  0
 33 79  1  0
 33 80  1  0
 34 41  1  0
 34 42  1  0
 34 35  1  1
 35 36  1  0
 36 37  1  0
 37 38  1  6
 37 39  1  0
 37 42  1  0
 38 81  1  0
 38 82  1  0
 38 83  1  0
 39 40  1  0
 39 84  1  0
 39 85  1  0
 40 41  1  0
 40 86  1  0
 40 87  1  0
 41 88  1  6
M  END
>  <i_m_ct_stereo_status>  (54) 
1

>  <s_m_source_file>  (54) 
/var/tmp/pbs.5076255.sched01/tmpbmel7479/053vx75p8.sdf

>  <i_m_source_file_index>  (54) 
21

>  <i_lp_mmshare_version>  (54) 
48012

>  <i_f3d_flags>  (54) 
0

>  <s_epik_input>  (54) 
TzFPW0NAQF0oTzIpKFtDSDNdKVtDSDJdW0NIMl1bQ0BASF0oQyhbQ0gzXSk9W0NIXTMpW0NAQF0xMltDQEBIXShbQ0BASF0zW0NAXTQ1NilbQ0gyXU9bQ0BIXTdbQ0BASF04W0NAQEhdKFtPSF0pW0NAXTkoW09IXSlbQ0BIXTdPW0NIMl1bQ0BIXShbQ0BASF05W09IXSlbQ0BdKFtDSDNdKShDNihbQ0gzXSlbQ0gzXSlDKD1PKVtDQEhdNFtDQEBIXTVbQ0gyXUM4KFtDSDNdKVtDSDNd

>  <s_epik_cmdline>  (54) 
J2VwaWtfcHl0aG9uJywgJy1waHQnLCAnMi4wJywgJy1waCcsICc3LjAnLCAnLXRuJywgJzgnLCAnLW1hJywgJzIwMCcsICctaW1hZScsICc8aW5maWxlLm1hZT4nLCAnLW9tYWUnLCAnPG91dGZpbGUubWFlPic=

>  <r_lp_tautomer_probability>  (54) 
1

>  <r_epik_Ionization_Penalty>  (54) 
1.35282e-07

>  <r_epik_Ionization_Penalty_Charging>  (54) 
0

>  <r_epik_Ionization_Penalty_Neutral>  (54) 
1.35282e-07

>  <r_epik_State_Penalty>  (54) 
-0

>  <r_epik_Charging_Adjusted_Penalty>  (54) 
0

>  <i_epik_Tot_Q>  (54) 
0

>  <i_epik_Tot_abs_Q>  (54) 
0

>  <s_lp_Force_Field>  (54) 
OPLS3e

>  <r_lp_Energy>  (54) 
153.794

>  <b_lp_Chiralities_Consistent>  (54) 
1

>  <s_lp_Variant>  (54) 
12:0-4

>  <s_i_glide_gridfile>  (54) 
pfpi4k_grid

>  <i_i_glide_lignum>  (54) 
21

>  <i_i_glide_rotatable_bonds>  (54) 
3

>  <r_i_docking_score>  (54) 
-2.29833

>  <r_i_glide_ligand_efficiency>  (54) 
-0.0547222

>  <r_i_glide_ligand_efficiency_sa>  (54) 
-0.190216

>  <r_i_glide_ligand_efficiency_ln>  (54) 
-0.485119

>  <r_i_glide_gscore>  (54) 
-2.29833

>  <r_i_glide_lipo>  (54) 
-0.138081

>  <r_i_glide_hbond>  (54) 
-0.0113356

>  <r_i_glide_metal>  (54) 
-0

>  <r_i_glide_rewards>  (54) 
-0.0432899

>  <r_i_glide_evdw>  (54) 
-31.915

>  <r_i_glide_ecoul>  (54) 
-3.30793

>  <r_i_glide_erotb>  (54) 
0

>  <r_i_glide_esite>  (54) 
-0.0136871

>  <r_i_glide_emodel>  (54) 
-40.1581

>  <r_i_glide_energy>  (54) 
-35.2229

>  <r_i_glide_einternal>  (54) 
0.870221

>  <r_i_glide_intrahb_reward>  (54) 
-0

>  <i_i_glide_confnum>  (54) 
2

>  <i_i_glide_posenum>  (54) 
22

>  <r_i_glide_eff_state_penalty>  (54) 
0

>  <ligand_id>  (54) 
12

>  <original_smiles>  (54) 
CC1=CC2C(COC3C4C(O)C5(O)C(O)C(COC35)C3(C)C(=O)C5C(CC4(C)C)C25C3(C)C)C23OOC(C)(CCC12)O3

>  <smiles>  (54) 
[H]OC1([H])C2([H])C([H])([H])OC3([H])C4([H])OC([H])([H])C5([H])C67OOC(C([H])([H])[H])(O6)C([H])([H])C([H])([H])C7([H])C(C([H])([H])[H])=C([H])C5([H])C56C([H])(C(=O)C2(C([H])([H])[H])C5(C([H])([H])[H])C([H])([H])[H])C6([H])C([H])([H])C(C([H])([H])[H])(C([H])([H])[H])C4([H])C([H])(O[H])C31O[H]

$$$$
12:3:1
     RDKit          3D

 88 96  0  0  1  0  0  0  0  0999 V2000
    1.9621   -5.8258    2.7202 C   0  0  0  0  0  0  0  0  0  0  0  0
    2.2086   -4.3291    2.6137 C   0  0  0  0  0  0  0  0  0  0  0  0
    1.6609   -3.4854    3.5067 C   0  0  0  0  0  0  0  0  0  0  0  0
    1.7749   -1.9712    3.4885 C   0  0  2  0  0  0  0  0  0  0  0  0
    2.7056   -1.4111    2.3220 C   0  0  1  0  0  0  0  0  0  0  0  0
    3.3134    0.0263    2.4476 C   0  0  0  0  0  0  0  0  0  0  0  0
    2.3866    0.7743    3.1955 O   0  0  0  0  0  0  0  0  0  0  0  0
    2.4451    2.1720    3.4081 C   0  0  1  0  0  0  0  0  0  0  0  0
    0.9741    2.6756    3.5672 C   0  0  2  0  0  0  0  0  0  0  0  0
    0.9636    3.4929    4.8972 C   0  0  1  0  0  0  0  0  0  0  0  0
   -0.2754    3.6465    5.5608 O   0  0  0  0  0  0  0  0  0  0  0  0
    2.1833    3.0792    5.7800 C   0  0  1  0  0  0  0  0  0  0  0  0
    2.7461    4.2925    6.2684 O   0  0  0  0  0  0  0  0  0  0  0  0
    1.9983    2.1731    7.0790 C   0  0  1  0  0  0  0  0  0  0  0  0
    0.6629    1.9871    7.4982 O   0  0  0  0  0  0  0  0  0  0  0  0
    2.9574    0.9288    7.2375 C   0  0  2  0  0  0  0  0  0  0  0  0
    4.2617    1.3426    6.5288 C   0  0  0  0  0  0  0  0  0  0  0  0
    4.0240    1.4727    5.1358 O   0  0  0  0  0  0  0  0  0  0  0  0
    3.2029    2.5546    4.7183 C   0  0  1  0  0  0  0  0  0  0  0  0
    2.5146   -0.6532    7.2293 C   0  0  1  0  0  0  0  0  0  0  0  0
    3.0722   -1.2599    8.5607 C   0  0  0  0  0  0  0  0  0  0  0  0
    0.9877   -0.9021    7.2257 C   0  0  0  0  0  0  0  0  0  0  0  0
    0.2664   -0.8879    8.2240 O   0  0  0  0  0  0  0  0  0  0  0  0
    0.5040   -1.1949    5.8369 C   0  0  1  0  0  0  0  0  0  0  0  0
    0.7279   -0.0583    4.9500 C   0  0  2  0  0  0  0  0  0  0  0  0
   -0.4373    0.4024    4.0795 C   0  0  0  0  0  0  0  0  0  0  0  0
   -0.2192    1.6792    3.1839 C   0  0  0  0  0  0  0  0  0  0  0  0
   -1.5646    2.4593    3.1485 C   0  0  0  0  0  0  0  0  0  0  0  0
   -0.0562    1.2299    1.7091 C   0  0  0  0  0  0  0  0  0  0  0  0
    1.7081   -1.2774    4.9018 C   0  0  2  0  0  0  0  0  0  0  0  0
    2.8473   -1.5859    5.9559 C   0  0  0  0  0  0  0  0  0  0  0  0
    4.3047   -1.5243    5.4541 C   0  0  0  0  0  0  0  0  0  0  0  0
    2.7557   -3.1042    6.3754 C   0  0  0  0  0  0  0  0  0  0  0  0
    3.6916   -2.4471    1.7128 C   0  0  1  0  0  0  0  0  0  0  0  0
    4.8168   -2.6444    2.5489 O   0  0  0  0  0  0  0  0  0  0  0  0
    5.9706   -2.8090    1.5995 O   0  0  0  0  0  0  0  0  0  0  0  0
    5.3729   -2.7306    0.3223 C   0  0  1  0  0  0  0  0  0  0  0  0
    6.3149   -2.0157   -0.6514 C   0  0  0  0  0  0  0  0  0  0  0  0
    5.0025   -4.1571   -0.1383 C   0  0  0  0  0  0  0  0  0  0  0  0
    4.0661   -4.8272    0.8824 C   0  0  0  0  0  0  0  0  0  0  0  0
    3.0230   -3.8232    1.4262 C   0  0  1  0  0  0  0  0  0  0  0  0
    4.1788   -1.9848    0.4632 O   0  0  0  0  0  0  0  0  0  0  0  0
    1.5341   -6.2319    1.8017 H   0  0  0  0  0  0  0  0  0  0  0  0
    1.2736   -6.0448    3.5371 H   0  0  0  0  0  0  0  0  0  0  0  0
    2.8939   -6.3504    2.9344 H   0  0  0  0  0  0  0  0  0  0  0  0
    1.0372   -3.8851    4.2928 H   0  0  0  0  0  0  0  0  0  0  0  0
    0.7891   -1.7660    3.0824 H   0  0  0  0  0  0  0  0  0  0  0  0
    1.9980   -1.2914    1.5001 H   0  0  0  0  0  0  0  0  0  0  0  0
    4.3034    0.0445    2.8960 H   0  0  0  0  0  0  0  0  0  0  0  0
    3.4205    0.4721    1.4554 H   0  0  0  0  0  0  0  0  0  0  0  0
    2.9130    2.6375    2.5401 H   0  0  0  0  0  0  0  0  0  0  0  0
    0.8897    3.4479    2.8041 H   0  0  0  0  0  0  0  0  0  0  0  0
    1.1672    4.5122    4.5614 H   0  0  0  0  0  0  0  0  0  0  0  0
   -0.5664    2.7892    5.8343 H   0  0  0  0  0  0  0  0  0  0  0  0
    2.8580    4.8884    5.5454 H   0  0  0  0  0  0  0  0  0  0  0  0
    2.3187    2.8081    7.9063 H   0  0  0  0  0  0  0  0  0  0  0  0
    0.2911    2.8428    7.6567 H   0  0  0  0  0  0  0  0  0  0  0  0
    3.2631    1.0667    8.2746 H   0  0  0  0  0  0  0  0  0  0  0  0
    4.6268    2.2974    6.9163 H   0  0  0  0  0  0  0  0  0  0  0  0
    5.0696    0.6440    6.7266 H   0  0  0  0  0  0  0  0  0  0  0  0
    3.8779    3.3685    4.4462 H   0  0  0  0  0  0  0  0  0  0  0  0
    4.1511   -1.4089    8.5167 H   0  0  0  0  0  0  0  0  0  0  0  0
    2.6152   -2.2164    8.8250 H   0  0  0  0  0  0  0  0  0  0  0  0
    2.8676   -0.6287    9.4256 H   0  0  0  0  0  0  0  0  0  0  0  0
   -0.3127   -1.8949    5.6754 H   0  0  0  0  0  0  0  0  0  0  0  0
    1.1989    0.8007    5.3462 H   0  0  0  0  0  0  0  0  0  0  0  0
   -0.8352   -0.4240    3.4923 H   0  0  0  0  0  0  0  0  0  0  0  0
   -1.2326    0.6210    4.7906 H   0  0  0  0  0  0  0  0  0  0  0  0
   -2.3378    1.8945    2.6285 H   0  0  0  0  0  0  0  0  0  0  0  0
   -1.4644    3.4091    2.6207 H   0  0  0  0  0  0  0  0  0  0  0  0
   -1.9775    2.6654    4.1328 H   0  0  0  0  0  0  0  0  0  0  0  0
   -0.9451    0.7036    1.3615 H   0  0  0  0  0  0  0  0  0  0  0  0
    0.7656    0.5495    1.5265 H   0  0  0  0  0  0  0  0  0  0  0  0
    0.0804    2.0784    1.0410 H   0  0  0  0  0  0  0  0  0  0  0  0
    4.5913   -2.4134    4.8975 H   0  0  0  0  0  0  0  0  0  0  0  0
    4.9973   -1.4862    6.2936 H   0  0  0  0  0  0  0  0  0  0  0  0
    4.5245   -0.6995    4.8031 H   0  0  0  0  0  0  0  0  0  0  0  0
    3.0180   -3.7829    5.5659 H   0  0  0  0  0  0  0  0  0  0  0  0
    1.7713   -3.4171    6.7292 H   0  0  0  0  0  0  0  0  0  0  0  0
    3.4778   -3.3640    7.1497 H   0  0  0  0  0  0  0  0  0  0  0  0
    6.5383   -1.0117   -0.2930 H   0  0  0  0  0  0  0  0  0  0  0  0
    5.8649   -1.9285   -1.6412 H   0  0  0  0  0  0  0  0  0  0  0  0
    7.2586   -2.5524   -0.7581 H   0  0  0  0  0  0  0  0  0  0  0  0
    4.5173   -4.1055   -1.1147 H   0  0  0  0  0  0  0  0  0  0  0  0
    5.9004   -4.7636   -0.2666 H   0  0  0  0  0  0  0  0  0  0  0  0
    3.5752   -5.6762    0.4093 H   0  0  0  0  0  0  0  0  0  0  0  0
    4.6623   -5.2253    1.7078 H   0  0  0  0  0  0  0  0  0  0  0  0
    2.2976   -3.6662    0.6265 H   0  0  0  0  0  0  0  0  0  0  0  0
  1  2  1  0
  1 43  1  0
  1 44  1  0
  1 45  1  0
  2 41  1  0
  2  3  2  0
  3  4  1  0
  3 46  1  0
  4 30  1  0
  4  5  1  0
  4 47  1  6
  5  6  1  0
  5 34  1  0
  5 48  1  6
  6  7  1  0
  6 49  1  0
  6 50  1  0
  7  8  1  0
  8 19  1  0
  8  9  1  0
  8 51  1  6
  9 27  1  0
  9 10  1  0
  9 52  1  6
 10 11  1  0
 10 12  1  0
 10 53  1  6
 11 54  1  0
 12 19  1  0
 12 13  1  1
 12 14  1  0
 13 55  1  0
 14 15  1  0
 14 16  1  0
 14 56  1  1
 15 57  1  0
 16 17  1  0
 16 20  1  0
 16 58  1  1
 17 18  1  0
 17 59  1  0
 17 60  1  0
 18 19  1  0
 19 61  1  6
 20 31  1  0
 20 21  1  1
 20 22  1  0
 21 62  1  0
 21 63  1  0
 21 64  1  0
 22 23  2  0
 22 24  1  0
 24 30  1  0
 24 25  1  0
 24 65  1  1
 25 26  1  0
 25 30  1  0
 25 66  1  1
 26 27  1  0
 26 67  1  0
 26 68  1  0
 27 28  1  0
 27 29  1  0
 28 69  1  0
 28 70  1  0
 28 71  1  0
 29 72  1  0
 29 73  1  0
 29 74  1  0
 30 31  1  1
 31 32  1  0
 31 33  1  0
 32 75  1  0
 32 76  1  0
 32 77  1  0
 33 78  1  0
 33 79  1  0
 33 80  1  0
 34 41  1  0
 34 42  1  0
 34 35  1  1
 35 36  1  0
 36 37  1  0
 37 38  1  6
 37 39  1  0
 37 42  1  0
 38 81  1  0
 38 82  1  0
 38 83  1  0
 39 40  1  0
 39 84  1  0
 39 85  1  0
 40 41  1  0
 40 86  1  0
 40 87  1  0
 41 88  1  6
M  END
>  <i_m_ct_stereo_status>  (55) 
1

>  <s_m_source_file>  (55) 
/var/tmp/pbs.5076255.sched01/tmpbmel7479/053vx75p8.sdf

>  <i_m_source_file_index>  (55) 
21

>  <i_lp_mmshare_version>  (55) 
48012

>  <i_f3d_flags>  (55) 
0

>  <s_epik_input>  (55) 
TzFPW0NAQF0oTzIpKFtDSDNdKVtDSDJdW0NIMl1bQ0BASF0oQyhbQ0gzXSk9W0NIXTMpW0NAQF0xMltDQEBIXShbQ0BASF0zW0NAXTQ1NilbQ0gyXU9bQ0BIXTdbQ0BASF04W0NAQEhdKFtPSF0pW0NAXTkoW09IXSlbQ0BIXTdPW0NIMl1bQ0BIXShbQ0BASF05W09IXSlbQ0BdKFtDSDNdKShDNihbQ0gzXSlbQ0gzXSlDKD1PKVtDQEhdNFtDQEBIXTVbQ0gyXUM4KFtDSDNdKVtDSDNd

>  <s_epik_cmdline>  (55) 
J2VwaWtfcHl0aG9uJywgJy1waHQnLCAnMi4wJywgJy1waCcsICc3LjAnLCAnLXRuJywgJzgnLCAnLW1hJywgJzIwMCcsICctaW1hZScsICc8aW5maWxlLm1hZT4nLCAnLW9tYWUnLCAnPG91dGZpbGUubWFlPic=

>  <r_lp_tautomer_probability>  (55) 
1

>  <r_epik_Ionization_Penalty>  (55) 
1.35282e-07

>  <r_epik_Ionization_Penalty_Charging>  (55) 
0

>  <r_epik_Ionization_Penalty_Neutral>  (55) 
1.35282e-07

>  <r_epik_State_Penalty>  (55) 
-0

>  <r_epik_Charging_Adjusted_Penalty>  (55) 
0

>  <i_epik_Tot_Q>  (55) 
0

>  <i_epik_Tot_abs_Q>  (55) 
0

>  <s_lp_Force_Field>  (55) 
OPLS3e

>  <r_lp_Energy>  (55) 
153.794

>  <b_lp_Chiralities_Consistent>  (55) 
1

>  <s_lp_Variant>  (55) 
12:0-4

>  <s_i_glide_gridfile>  (55) 
pfpi4k_grid

>  <i_i_glide_lignum>  (55) 
21

>  <i_i_glide_rotatable_bonds>  (55) 
3

>  <r_i_docking_score>  (55) 
-2.29243

>  <r_i_glide_ligand_efficiency>  (55) 
-0.0545817

>  <r_i_glide_ligand_efficiency_sa>  (55) 
-0.189727

>  <r_i_glide_ligand_efficiency_ln>  (55) 
-0.483873

>  <r_i_glide_gscore>  (55) 
-2.29243

>  <r_i_glide_lipo>  (55) 
-0.134382

>  <r_i_glide_hbond>  (55) 
-0.00283092

>  <r_i_glide_metal>  (55) 
-0

>  <r_i_glide_rewards>  (55) 
-0.0465239

>  <r_i_glide_evdw>  (55) 
-31.6535

>  <r_i_glide_ecoul>  (55) 
-3.41399

>  <r_i_glide_erotb>  (55) 
0

>  <r_i_glide_esite>  (55) 
-0.0139201

>  <r_i_glide_emodel>  (55) 
-40.2144

>  <r_i_glide_energy>  (55) 
-35.0675

>  <r_i_glide_einternal>  (55) 
0.385749

>  <r_i_glide_intrahb_reward>  (55) 
-0

>  <i_i_glide_confnum>  (55) 
2

>  <i_i_glide_posenum>  (55) 
28

>  <r_i_glide_eff_state_penalty>  (55) 
0

>  <ligand_id>  (55) 
12

>  <original_smiles>  (55) 
CC1=CC2C(COC3C4C(O)C5(O)C(O)C(COC35)C3(C)C(=O)C5C(CC4(C)C)C25C3(C)C)C23OOC(C)(CCC12)O3

>  <smiles>  (55) 
[H]OC1([H])C2([H])C([H])([H])OC3([H])C4([H])OC([H])([H])C5([H])C67OOC(C([H])([H])[H])(O6)C([H])([H])C([H])([H])C7([H])C(C([H])([H])[H])=C([H])C5([H])C56C([H])(C(=O)C2(C([H])([H])[H])C5(C([H])([H])[H])C([H])([H])[H])C6([H])C([H])([H])C(C([H])([H])[H])(C([H])([H])[H])C4([H])C([H])(O[H])C31O[H]

$$$$
12:3:2
     RDKit          3D

 88 96  0  0  1  0  0  0  0  0999 V2000
    2.0335   -5.6093    3.0400 C   0  0  0  0  0  0  0  0  0  0  0  0
    2.2033   -4.1113    2.8501 C   0  0  0  0  0  0  0  0  0  0  0  0
    1.7303   -3.2507    3.7692 C   0  0  0  0  0  0  0  0  0  0  0  0
    1.7855   -1.7363    3.6801 C   0  0  2  0  0  0  0  0  0  0  0  0
    2.5491   -1.1942    2.3922 C   0  0  1  0  0  0  0  0  0  0  0  0
    3.1077    0.2682    2.3882 C   0  0  0  0  0  0  0  0  0  0  0  0
    2.2473    1.0148    3.2120 O   0  0  0  0  0  0  0  0  0  0  0  0
    2.2723    2.4220    3.3605 C   0  0  1  0  0  0  0  0  0  0  0  0
    0.8104    2.8787    3.6721 C   0  0  2  0  0  0  0  0  0  0  0  0
    0.9268    3.7546    4.9584 C   0  0  1  0  0  0  0  0  0  0  0  0
   -0.2437    3.9251    5.7317 O   0  0  0  0  0  0  0  0  0  0  0  0
    2.2557    3.4203    5.7117 C   0  0  1  0  0  0  0  0  0  0  0  0
    2.8404    4.6665    6.0741 O   0  0  0  0  0  0  0  0  0  0  0  0
    2.2611    2.5650    7.0576 C   0  0  1  0  0  0  0  0  0  0  0  0
    0.9875    2.3365    7.6250 O   0  0  0  0  0  0  0  0  0  0  0  0
    3.2844    1.3626    7.1487 C   0  0  2  0  0  0  0  0  0  0  0  0
    4.4765    1.7892    6.2721 C   0  0  0  0  0  0  0  0  0  0  0  0
    4.0611    1.8448    4.9163 O   0  0  0  0  0  0  0  0  0  0  0  0
    3.1629    2.8854    4.5568 C   0  0  1  0  0  0  0  0  0  0  0  0
    2.9122   -0.2354    7.2491 C   0  0  1  0  0  0  0  0  0  0  0  0
    3.6471   -0.7648    8.5274 C   0  0  0  0  0  0  0  0  0  0  0  0
    1.4102   -0.5438    7.4377 C   0  0  0  0  0  0  0  0  0  0  0  0
    0.8094   -0.4868    8.5074 O   0  0  0  0  0  0  0  0  0  0  0  0
    0.7757   -0.9121    6.1292 C   0  0  1  0  0  0  0  0  0  0  0  0
    0.8433    0.1973    5.1831 C   0  0  2  0  0  0  0  0  0  0  0  0
   -0.4374    0.5779    4.4428 C   0  0  0  0  0  0  0  0  0  0  0  0
   -0.3800    1.8223    3.4806 C   0  0  0  0  0  0  0  0  0  0  0  0
   -1.7507    2.5542    3.5756 C   0  0  0  0  0  0  0  0  0  0  0  0
   -0.3786    1.3131    2.0179 C   0  0  0  0  0  0  0  0  0  0  0  0
    1.8615   -0.9854    5.0617 C   0  0  2  0  0  0  0  0  0  0  0  0
    3.1291   -1.2087    5.9822 C   0  0  0  0  0  0  0  0  0  0  0  0
    4.5114   -1.1181    5.3066 C   0  0  0  0  0  0  0  0  0  0  0  0
    3.1476   -2.7102    6.4680 C   0  0  0  0  0  0  0  0  0  0  0  0
    3.4996   -2.2173    1.7107 C   0  0  1  0  0  0  0  0  0  0  0  0
    4.7240   -2.3374    2.4105 O   0  0  0  0  0  0  0  0  0  0  0  0
    5.7612   -2.5052    1.3354 O   0  0  0  0  0  0  0  0  0  0  0  0
    5.0113   -2.4996    0.1376 C   0  0  1  0  0  0  0  0  0  0  0  0
    5.8008   -1.7957   -0.9701 C   0  0  0  0  0  0  0  0  0  0  0  0
    4.6465   -3.9572   -0.2205 C   0  0  0  0  0  0  0  0  0  0  0  0
    3.8702   -4.6161    0.9336 C   0  0  0  0  0  0  0  0  0  0  0  0
    2.8607   -3.6276    1.5600 C   0  0  1  0  0  0  0  0  0  0  0  0
    3.8151   -1.7902    0.3956 O   0  0  0  0  0  0  0  0  0  0  0  0
    1.5170   -6.0697    2.1948 H   0  0  0  0  0  0  0  0  0  0  0  0
    1.4567   -5.8170    3.9417 H   0  0  0  0  0  0  0  0  0  0  0  0
    3.0063   -6.0880    3.1594 H   0  0  0  0  0  0  0  0  0  0  0  0
    1.2192   -3.6379    4.6389 H   0  0  0  0  0  0  0  0  0  0  0  0
    0.7513   -1.5821    3.3890 H   0  0  0  0  0  0  0  0  0  0  0  0
    1.7441   -1.1344    1.6588 H   0  0  0  0  0  0  0  0  0  0  0  0
    4.1433    0.3402    2.7124 H   0  0  0  0  0  0  0  0  0  0  0  0
    3.0791    0.6737    1.3730 H   0  0  0  0  0  0  0  0  0  0  0  0
    2.6172    2.8683    2.4271 H   0  0  0  0  0  0  0  0  0  0  0  0
    0.6063    3.6111    2.8907 H   0  0  0  0  0  0  0  0  0  0  0  0
    1.0615    4.7622    4.5601 H   0  0  0  0  0  0  0  0  0  0  0  0
   -0.4044    3.1335    6.2202 H   0  0  0  0  0  0  0  0  0  0  0  0
    2.8514    5.2279    5.3155 H   0  0  0  0  0  0  0  0  0  0  0  0
    2.6513    3.2484    7.8154 H   0  0  0  0  0  0  0  0  0  0  0  0
    0.5338    1.6936    7.1044 H   0  0  0  0  0  0  0  0  0  0  0  0
    3.7037    1.5530    8.1366 H   0  0  0  0  0  0  0  0  0  0  0  0
    4.8454    2.7728    6.5744 H   0  0  0  0  0  0  0  0  0  0  0  0
    5.3294    1.1280    6.3971 H   0  0  0  0  0  0  0  0  0  0  0  0
    3.7736    3.7053    4.1738 H   0  0  0  0  0  0  0  0  0  0  0  0
    4.7182   -0.8759    8.3613 H   0  0  0  0  0  0  0  0  0  0  0  0
    3.2635   -1.7253    8.8819 H   0  0  0  0  0  0  0  0  0  0  0  0
    3.5184   -0.1056    9.3849 H   0  0  0  0  0  0  0  0  0  0  0  0
   -0.0266   -1.6454    6.0922 H   0  0  0  0  0  0  0  0  0  0  0  0
    1.3301    1.0887    5.4756 H   0  0  0  0  0  0  0  0  0  0  0  0
   -0.8718   -0.2849    3.9366 H   0  0  0  0  0  0  0  0  0  0  0  0
   -1.1494    0.7995    5.2360 H   0  0  0  0  0  0  0  0  0  0  0  0
   -2.5607    1.9429    3.1802 H   0  0  0  0  0  0  0  0  0  0  0  0
   -1.7468    3.4830    3.0028 H   0  0  0  0  0  0  0  0  0  0  0  0
   -2.0514    2.7894    4.5931 H   0  0  0  0  0  0  0  0  0  0  0  0
   -1.2820    0.7443    1.7903 H   0  0  0  0  0  0  0  0  0  0  0  0
    0.4464    0.6587    1.7686 H   0  0  0  0  0  0  0  0  0  0  0  0
   -0.3412    2.1414    1.3119 H   0  0  0  0  0  0  0  0  0  0  0  0
    4.7641   -2.0193    4.7528 H   0  0  0  0  0  0  0  0  0  0  0  0
    5.2956   -1.0212    6.0563 H   0  0  0  0  0  0  0  0  0  0  0  0
    4.6203   -0.3134    4.6042 H   0  0  0  0  0  0  0  0  0  0  0  0
    3.3385   -3.4137    5.6585 H   0  0  0  0  0  0  0  0  0  0  0  0
    2.2247   -3.0419    6.9501 H   0  0  0  0  0  0  0  0  0  0  0  0
    3.9663   -2.9091    7.1602 H   0  0  0  0  0  0  0  0  0  0  0  0
    6.0183   -0.7682   -0.6824 H   0  0  0  0  0  0  0  0  0  0  0  0
    5.2333   -1.7674   -1.9009 H   0  0  0  0  0  0  0  0  0  0  0  0
    6.7460   -2.3036   -1.1689 H   0  0  0  0  0  0  0  0  0  0  0  0
    4.0447   -3.9623   -1.1319 H   0  0  0  0  0  0  0  0  0  0  0  0
    5.5472   -4.5348   -0.4342 H   0  0  0  0  0  0  0  0  0  0  0  0
    3.3578   -5.4981    0.5556 H   0  0  0  0  0  0  0  0  0  0  0  0
    4.5771   -4.9570    1.6961 H   0  0  0  0  0  0  0  0  0  0  0  0
    2.0501   -3.5285    0.8387 H   0  0  0  0  0  0  0  0  0  0  0  0
  1  2  1  0
  1 43  1  0
  1 44  1  0
  1 45  1  0
  2 41  1  0
  2  3  2  0
  3  4  1  0
  3 46  1  0
  4 30  1  0
  4  5  1  0
  4 47  1  6
  5  6  1  0
  5 34  1  0
  5 48  1  6
  6  7  1  0
  6 49  1  0
  6 50  1  0
  7  8  1  0
  8 19  1  0
  8  9  1  0
  8 51  1  6
  9 27  1  0
  9 10  1  0
  9 52  1  6
 10 11  1  0
 10 12  1  0
 10 53  1  6
 11 54  1  0
 12 19  1  0
 12 13  1  1
 12 14  1  0
 13 55  1  0
 14 15  1  0
 14 16  1  0
 14 56  1  1
 15 57  1  0
 16 17  1  0
 16 20  1  0
 16 58  1  1
 17 18  1  0
 17 59  1  0
 17 60  1  0
 18 19  1  0
 19 61  1  6
 20 31  1  0
 20 21  1  1
 20 22  1  0
 21 62  1  0
 21 63  1  0
 21 64  1  0
 22 23  2  0
 22 24  1  0
 24 30  1  0
 24 25  1  0
 24 65  1  1
 25 26  1  0
 25 30  1  0
 25 66  1  1
 26 27  1  0
 26 67  1  0
 26 68  1  0
 27 28  1  0
 27 29  1  0
 28 69  1  0
 28 70  1  0
 28 71  1  0
 29 72  1  0
 29 73  1  0
 29 74  1  0
 30 31  1  1
 31 32  1  0
 31 33  1  0
 32 75  1  0
 32 76  1  0
 32 77  1  0
 33 78  1  0
 33 79  1  0
 33 80  1  0
 34 41  1  0
 34 42  1  0
 34 35  1  1
 35 36  1  0
 36 37  1  0
 37 38  1  6
 37 39  1  0
 37 42  1  0
 38 81  1  0
 38 82  1  0
 38 83  1  0
 39 40  1  0
 39 84  1  0
 39 85  1  0
 40 41  1  0
 40 86  1  0
 40 87  1  0
 41 88  1  6
M  END
>  <i_m_ct_stereo_status>  (56) 
1

>  <s_m_source_file>  (56) 
/var/tmp/pbs.5076255.sched01/tmpbmel7479/053vx75p8.sdf

>  <i_m_source_file_index>  (56) 
21

>  <i_lp_mmshare_version>  (56) 
48012

>  <i_f3d_flags>  (56) 
0

>  <s_epik_input>  (56) 
TzFPW0NAQF0oTzIpKFtDSDNdKVtDSDJdW0NIMl1bQ0BASF0oQyhbQ0gzXSk9W0NIXTMpW0NAQF0xMltDQEBIXShbQ0BASF0zW0NAXTQ1NilbQ0gyXU9bQ0BIXTdbQ0BASF04W0NAQEhdKFtPSF0pW0NAXTkoW09IXSlbQ0BIXTdPW0NIMl1bQ0BIXShbQ0BASF05W09IXSlbQ0BdKFtDSDNdKShDNihbQ0gzXSlbQ0gzXSlDKD1PKVtDQEhdNFtDQEBIXTVbQ0gyXUM4KFtDSDNdKVtDSDNd

>  <s_epik_cmdline>  (56) 
J2VwaWtfcHl0aG9uJywgJy1waHQnLCAnMi4wJywgJy1waCcsICc3LjAnLCAnLXRuJywgJzgnLCAnLW1hJywgJzIwMCcsICctaW1hZScsICc8aW5maWxlLm1hZT4nLCAnLW9tYWUnLCAnPG91dGZpbGUubWFlPic=

>  <r_lp_tautomer_probability>  (56) 
1

>  <r_epik_Ionization_Penalty>  (56) 
1.35282e-07

>  <r_epik_Ionization_Penalty_Charging>  (56) 
0

>  <r_epik_Ionization_Penalty_Neutral>  (56) 
1.35282e-07

>  <r_epik_State_Penalty>  (56) 
-0

>  <r_epik_Charging_Adjusted_Penalty>  (56) 
0

>  <i_epik_Tot_Q>  (56) 
0

>  <i_epik_Tot_abs_Q>  (56) 
0

>  <s_lp_Force_Field>  (56) 
OPLS3e

>  <r_lp_Energy>  (56) 
153.794

>  <b_lp_Chiralities_Consistent>  (56) 
1

>  <s_lp_Variant>  (56) 
12:0-4

>  <s_i_glide_gridfile>  (56) 
pfpi4k_grid

>  <i_i_glide_lignum>  (56) 
21

>  <i_i_glide_rotatable_bonds>  (56) 
3

>  <r_i_docking_score>  (56) 
-2.13139

>  <r_i_glide_ligand_efficiency>  (56) 
-0.0507474

>  <r_i_glide_ligand_efficiency_sa>  (56) 
-0.176399

>  <r_i_glide_ligand_efficiency_ln>  (56) 
-0.449882

>  <r_i_glide_gscore>  (56) 
-2.13139

>  <r_i_glide_lipo>  (56) 
-0.125565

>  <r_i_glide_hbond>  (56) 
0

>  <r_i_glide_metal>  (56) 
-0

>  <r_i_glide_rewards>  (56) 
-0.0109546

>  <r_i_glide_evdw>  (56) 
-32.7439

>  <r_i_glide_ecoul>  (56) 
-2.31151

>  <r_i_glide_erotb>  (56) 
0

>  <r_i_glide_esite>  (56) 
-0.01095

>  <r_i_glide_emodel>  (56) 
-39.9697

>  <r_i_glide_energy>  (56) 
-35.0554

>  <r_i_glide_einternal>  (56) 
0.02822

>  <r_i_glide_intrahb_reward>  (56) 
-0

>  <i_i_glide_confnum>  (56) 
2

>  <i_i_glide_posenum>  (56) 
19

>  <r_i_glide_eff_state_penalty>  (56) 
0

>  <ligand_id>  (56) 
12

>  <original_smiles>  (56) 
CC1=CC2C(COC3C4C(O)C5(O)C(O)C(COC35)C3(C)C(=O)C5C(CC4(C)C)C25C3(C)C)C23OOC(C)(CCC12)O3

>  <smiles>  (56) 
[H]OC1([H])C2([H])C([H])([H])OC3([H])C4([H])OC([H])([H])C5([H])C67OOC(C([H])([H])[H])(O6)C([H])([H])C([H])([H])C7([H])C(C([H])([H])[H])=C([H])C5([H])C56C([H])(C(=O)C2(C([H])([H])[H])C5(C([H])([H])[H])C([H])([H])[H])C6([H])C([H])([H])C(C([H])([H])[H])(C([H])([H])[H])C4([H])C([H])(O[H])C31O[H]

$$$$
13:0:0
     RDKit          3D

 48 50  0  0  1  0  0  0  0  0999 V2000
    3.3146    6.3538    4.5053 C   0  0  0  0  0  0  0  0  0  0  0  0
    3.1350    5.6921    3.1050 C   0  0  0  0  0  0  0  0  0  0  0  0
    2.9642    4.1569    3.0636 C   0  0  0  0  0  0  0  0  0  0  0  0
    1.5584    3.7088    3.1867 N   0  0  1  0  0  0  0  0  0  0  0  0
    1.3944    2.2542    2.9667 C   0  0  0  0  0  0  0  0  0  0  0  0
   -0.0773    1.7947    3.1180 C   0  0  1  0  0  0  0  0  0  0  0  0
   -0.1936    0.2830    2.8576 C   0  0  0  0  0  0  0  0  0  0  0  0
   -0.6844    2.2434    4.4859 C   0  0  1  0  0  0  0  0  0  0  0  0
   -2.1825    1.8940    4.6129 C   0  0  0  0  0  0  0  0  0  0  0  0
    0.1469    1.6371    5.6503 C   0  0  0  0  0  0  0  0  0  0  0  0
   -0.1439    0.3505    6.1663 C   0  0  0  0  0  0  0  0  0  0  0  0
    0.6616   -0.2363    7.1472 C   0  0  0  0  0  0  0  0  0  0  0  0
    0.3378   -1.4641    7.6349 O   0  0  0  0  0  0  0  0  0  0  0  0
    1.8088    0.4396    7.6306 C   0  0  0  0  0  0  0  0  0  0  0  0
    2.0973    1.7240    7.1600 C   0  0  0  0  0  0  0  0  0  0  0  0
    1.2582    2.3278    6.1931 C   0  0  0  0  0  0  0  0  0  0  0  0
    1.5938    3.7406    5.7460 C   0  0  0  0  0  0  0  0  0  0  0  0
    0.8976    4.2067    4.4371 C   0  0  2  0  0  0  0  0  0  0  0  0
   -0.5688    3.7880    4.5206 C   0  0  1  0  0  0  0  0  0  0  0  0
   -1.4131    4.6015    3.5198 C   0  0  0  0  0  0  0  0  0  0  0  0
    3.4861    7.4298    4.3924 H   0  0  0  0  0  0  0  0  0  0  0  0
    4.2243    5.9619    4.9761 H   0  0  0  0  0  0  0  0  0  0  0  0
    2.4585    6.2300    5.1711 H   0  0  0  0  0  0  0  0  0  0  0  0
    2.3224    6.1446    2.5331 H   0  0  0  0  0  0  0  0  0  0  0  0
    4.0215    5.9036    2.5161 H   0  0  0  0  0  0  0  0  0  0  0  0
    3.3094    3.8258    2.0850 H   0  0  0  0  0  0  0  0  0  0  0  0
    3.6541    3.6712    3.7627 H   0  0  0  0  0  0  0  0  0  0  0  0
    1.7320    2.0319    1.9499 H   0  0  0  0  0  0  0  0  0  0  0  0
    2.0383    1.6863    3.6456 H   0  0  0  0  0  0  0  0  0  0  0  0
   -0.6530    2.2669    2.3141 H   0  0  0  0  0  0  0  0  0  0  0  0
    0.3676   -0.3133    3.5842 H   0  0  0  0  0  0  0  0  0  0  0  0
    0.1840    0.0418    1.8583 H   0  0  0  0  0  0  0  0  0  0  0  0
   -1.2445   -0.0039    2.9006 H   0  0  0  0  0  0  0  0  0  0  0  0
   -2.7561    2.2889    3.7747 H   0  0  0  0  0  0  0  0  0  0  0  0
   -2.5843    2.3183    5.5339 H   0  0  0  0  0  0  0  0  0  0  0  0
   -2.3701    0.8239    4.6150 H   0  0  0  0  0  0  0  0  0  0  0  0
   -0.9791   -0.2170    5.7788 H   0  0  0  0  0  0  0  0  0  0  0  0
    1.0057   -1.8062    8.2073 H   0  0  0  0  0  0  0  0  0  0  0  0
    2.4529   -0.0265    8.3533 H   0  0  0  0  0  0  0  0  0  0  0  0
    2.9695    2.2483    7.5317 H   0  0  0  0  0  0  0  0  0  0  0  0
    1.2595    4.4063    6.5493 H   0  0  0  0  0  0  0  0  0  0  0  0
    2.6747    3.8506    5.7103 H   0  0  0  0  0  0  0  0  0  0  0  0
    0.9036    5.2954    4.3945 H   0  0  0  0  0  0  0  0  0  0  0  0
   -0.9327    4.1040    5.4949 H   0  0  0  0  0  0  0  0  0  0  0  0
   -1.1544    4.3662    2.4924 H   0  0  0  0  0  0  0  0  0  0  0  0
   -1.1672    5.6582    3.6098 H   0  0  0  0  0  0  0  0  0  0  0  0
   -2.4929    4.4748    3.6168 H   0  0  0  0  0  0  0  0  0  0  0  0
    1.0522    4.1166    2.3980 H   0  0  0  0  0  0  0  0  0  0  0  0
  1  2  1  0
  1 21  1  0
  1 22  1  0
  1 23  1  0
  2  3  1  0
  2 24  1  0
  2 25  1  0
  3  4  1  0
  3 26  1  0
  3 27  1  0
  4 18  1  0
  4  5  1  0
  4 48  1  6
  5  6  1  0
  5 28  1  0
  5 29  1  0
  6  7  1  0
  6  8  1  0
  6 30  1  6
  7 31  1  0
  7 32  1  0
  7 33  1  0
  8 19  1  0
  8  9  1  1
  8 10  1  0
  9 34  1  0
  9 35  1  0
  9 36  1  0
 10 16  2  0
 10 11  1  0
 11 12  2  0
 11 37  1  0
 12 13  1  0
 12 14  1  0
 13 38  1  0
 14 15  2  0
 14 39  1  0
 15 16  1  0
 15 40  1  0
 16 17  1  0
 17 18  1  0
 17 41  1  0
 17 42  1  0
 18 19  1  0
 18 43  1  6
 19 20  1  0
 19 44  1  1
 20 45  1  0
 20 46  1  0
 20 47  1  0
M  CHG  1   4   1
M  END
>  <i_m_ct_stereo_status>  (57) 
1

>  <s_m_source_file>  (57) 
/var/tmp/pbs.5076255.sched01/tmpbmel7479/053vx75p8.sdf

>  <i_m_source_file_index>  (57) 
22

>  <i_lp_mmshare_version>  (57) 
48012

>  <i_f3d_flags>  (57) 
0

>  <s_epik_input>  (57) 
W0NIM11bQ0gyXVtDSDJdTihbQ0gyXVtDQEhdMVtDSDNdKVtDQEBIXShbQ0BIXTJbQ0gzXSlbQ0gyXWMoYzNbQ0BdMTJbQ0gzXSlbY0hdW2NIXWMoW2NIXTMpW09IXQ==

>  <s_epik_cmdline>  (57) 
J2VwaWtfcHl0aG9uJywgJy1waHQnLCAnMi4wJywgJy1waCcsICc3LjAnLCAnLXRuJywgJzgnLCAnLW1hJywgJzIwMCcsICctaW1hZScsICc8aW5maWxlLm1hZT4nLCAnLW9tYWUnLCAnPG91dGZpbGUubWFlPic=

>  <r_lp_tautomer_probability>  (57) 
1

>  <r_epik_Ionization_Penalty>  (57) 
0.0067894

>  <r_epik_Ionization_Penalty_Charging>  (57) 
0.0059231

>  <r_epik_Ionization_Penalty_Neutral>  (57) 
0.000866301

>  <r_epik_State_Penalty>  (57) 
-0

>  <r_epik_Charging_Adjusted_Penalty>  (57) 
0.0059231

>  <i_epik_Tot_Q>  (57) 
1

>  <i_epik_Tot_abs_Q>  (57) 
1

>  <s_lp_Force_Field>  (57) 
OPLS3e

>  <r_lp_Energy>  (57) 
39.6896

>  <b_lp_Chiralities_Consistent>  (57) 
1

>  <s_lp_Variant>  (57) 
13:0-1

>  <s_i_glide_gridfile>  (57) 
pfpi4k_grid

>  <i_i_glide_lignum>  (57) 
22

>  <i_i_glide_rotatable_bonds>  (57) 
3

>  <r_i_docking_score>  (57) 
-3.20819

>  <r_i_glide_ligand_efficiency>  (57) 
-0.16041

>  <r_i_glide_ligand_efficiency_sa>  (57) 
-0.435419

>  <r_i_glide_ligand_efficiency_ln>  (57) 
-0.802905

>  <r_i_glide_gscore>  (57) 
-3.20819

>  <r_i_glide_lipo>  (57) 
-0.0893258

>  <r_i_glide_hbond>  (57) 
-0.2

>  <r_i_glide_metal>  (57) 
-0

>  <r_i_glide_rewards>  (57) 
-1.53804

>  <r_i_glide_evdw>  (57) 
-13.8337

>  <r_i_glide_ecoul>  (57) 
-5.64599

>  <r_i_glide_erotb>  (57) 
0.238445

>  <r_i_glide_esite>  (57) 
-0.0806873

>  <r_i_glide_emodel>  (57) 
-21.6457

>  <r_i_glide_energy>  (57) 
-19.4797

>  <r_i_glide_einternal>  (57) 
4.60012

>  <r_i_glide_intrahb_reward>  (57) 
-0

>  <i_i_glide_confnum>  (57) 
3

>  <i_i_glide_posenum>  (57) 
39

>  <r_i_glide_eff_state_penalty>  (57) 
0

>  <ligand_id>  (57) 
13

>  <original_smiles>  (57) 
CCCN1CC(C)C2(C)c3cc(O)ccc3CC1C2C

>  <smiles>  (57) 
[H]Oc1c([H])c([H])c2c(c1[H])C1(C([H])([H])[H])C([H])(C([H])([H])[H])C([H])([H])[N+]([H])(C([H])([H])C([H])([H])C([H])([H])[H])C([H])(C2([H])[H])C1([H])C([H])([H])[H]

$$$$
13:0:1
     RDKit          3D

 48 50  0  0  1  0  0  0  0  0999 V2000
    2.5451   -2.1003    4.5258 C   0  0  0  0  0  0  0  0  0  0  0  0
    1.7776   -2.4568    3.2408 C   0  0  0  0  0  0  0  0  0  0  0  0
    2.3026   -1.7127    2.0017 C   0  0  0  0  0  0  0  0  0  0  0  0
    3.6763   -2.1074    1.6255 N   0  0  1  0  0  0  0  0  0  0  0  0
    3.7907   -3.4927    1.1147 C   0  0  0  0  0  0  0  0  0  0  0  0
    5.2460   -3.8839    0.7662 C   0  0  1  0  0  0  0  0  0  0  0  0
    5.2922   -5.3503    0.2730 C   0  0  0  0  0  0  0  0  0  0  0  0
    5.8885   -2.8460   -0.2028 C   0  0  1  0  0  0  0  0  0  0  0  0
    7.3819   -3.1671   -0.4745 C   0  0  0  0  0  0  0  0  0  0  0  0
    5.0612   -2.7792   -1.5092 C   0  0  0  0  0  0  0  0  0  0  0  0
    5.3008   -3.6395   -2.5909 C   0  0  0  0  0  0  0  0  0  0  0  0
    4.4573   -3.6808   -3.7178 C   0  0  0  0  0  0  0  0  0  0  0  0
    4.6793   -4.5899   -4.7026 O   0  0  0  0  0  0  0  0  0  0  0  0
    3.3672   -2.8085   -3.8171 C   0  0  0  0  0  0  0  0  0  0  0  0
    3.1338   -1.8887   -2.7724 C   0  0  0  0  0  0  0  0  0  0  0  0
    3.9756   -1.8759   -1.6403 C   0  0  0  0  0  0  0  0  0  0  0  0
    3.7334   -0.8605   -0.5608 C   0  0  0  0  0  0  0  0  0  0  0  0
    4.3572   -1.0997    0.7858 C   0  0  2  0  0  0  0  0  0  0  0  0
    5.8033   -1.4686    0.5126 C   0  0  1  0  0  0  0  0  0  0  0  0
    6.6139   -1.2616    1.7708 C   0  0  0  0  0  0  0  0  0  0  0  0
    2.1565   -2.6612    5.3764 H   0  0  0  0  0  0  0  0  0  0  0  0
    2.4484   -1.0360    4.7541 H   0  0  0  0  0  0  0  0  0  0  0  0
    3.6085   -2.3349    4.4344 H   0  0  0  0  0  0  0  0  0  0  0  0
    1.7627   -3.5406    3.1079 H   0  0  0  0  0  0  0  0  0  0  0  0
    0.7258   -2.1901    3.3734 H   0  0  0  0  0  0  0  0  0  0  0  0
    1.6167   -1.8833    1.1871 H   0  0  0  0  0  0  0  0  0  0  0  0
    2.2483   -0.6413    2.2045 H   0  0  0  0  0  0  0  0  0  0  0  0
    3.4584   -4.1877    1.8730 H   0  0  0  0  0  0  0  0  0  0  0  0
    3.1376   -3.6343    0.2564 H   0  0  0  0  0  0  0  0  0  0  0  0
    5.8200   -3.8941    1.6946 H   0  0  0  0  0  0  0  0  0  0  0  0
    4.7177   -5.5059   -0.6448 H   0  0  0  0  0  0  0  0  0  0  0  0
    4.8762   -6.0258    1.0245 H   0  0  0  0  0  0  0  0  0  0  0  0
    6.3157   -5.6887    0.0923 H   0  0  0  0  0  0  0  0  0  0  0  0
    7.9531   -3.2687    0.4486 H   0  0  0  0  0  0  0  0  0  0  0  0
    7.8602   -2.4090   -1.0912 H   0  0  0  0  0  0  0  0  0  0  0  0
    7.5319   -4.1128   -0.9757 H   0  0  0  0  0  0  0  0  0  0  0  0
    6.1332   -4.2909   -2.5478 H   0  0  0  0  0  0  0  0  0  0  0  0
    4.0423   -4.5666   -5.3902 H   0  0  0  0  0  0  0  0  0  0  0  0
    2.7103   -2.8464   -4.6704 H   0  0  0  0  0  0  0  0  0  0  0  0
    2.2940   -1.2086   -2.8380 H   0  0  0  0  0  0  0  0  0  0  0  0
    4.2480    0.0518   -0.9608 H   0  0  0  0  0  0  0  0  0  0  0  0
    2.6840   -0.6531   -0.4700 H   0  0  0  0  0  0  0  0  0  0  0  0
    4.3331   -0.1459    1.3132 H   0  0  0  0  0  0  0  0  0  0  0  0
    6.2128   -0.7300   -0.1785 H   0  0  0  0  0  0  0  0  0  0  0  0
    6.3780   -1.9809    2.5585 H   0  0  0  0  0  0  0  0  0  0  0  0
    6.5001   -0.2676    2.2009 H   0  0  0  0  0  0  0  0  0  0  0  0
    7.6424   -1.3160    1.4378 H   0  0  0  0  0  0  0  0  0  0  0  0
    4.1930   -2.0858    2.4857 H   0  0  0  0  0  0  0  0  0  0  0  0
  1  2  1  0
  1 21  1  0
  1 22  1  0
  1 23  1  0
  2  3  1  0
  2 24  1  0
  2 25  1  0
  3  4  1  0
  3 26  1  0
  3 27  1  0
  4 18  1  0
  4  5  1  0
  4 48  1  1
  5  6  1  0
  5 28  1  0
  5 29  1  0
  6  7  1  0
  6  8  1  0
  6 30  1  1
  7 31  1  0
  7 32  1  0
  7 33  1  0
  8 19  1  0
  8  9  1  6
  8 10  1  0
  9 34  1  0
  9 35  1  0
  9 36  1  0
 10 16  2  0
 10 11  1  0
 11 12  2  0
 11 37  1  0
 12 13  1  0
 12 14  1  0
 13 38  1  0
 14 15  2  0
 14 39  1  0
 15 16  1  0
 15 40  1  0
 16 17  1  0
 17 18  1  0
 17 41  1  0
 17 42  1  0
 18 19  1  0
 18 43  1  1
 19 20  1  0
 19 44  1  6
 20 45  1  0
 20 46  1  0
 20 47  1  0
M  CHG  1   4   1
M  END
>  <i_m_ct_stereo_status>  (58) 
1

>  <s_m_source_file>  (58) 
/var/tmp/pbs.5076255.sched01/tmpbmel7479/053vx75p8.sdf

>  <i_m_source_file_index>  (58) 
22

>  <i_lp_mmshare_version>  (58) 
48012

>  <i_f3d_flags>  (58) 
0

>  <s_epik_input>  (58) 
W0NIM11bQ0gyXVtDSDJdTihbQ0gyXVtDQEhdMVtDSDNdKVtDQEBIXShbQ0BIXTJbQ0gzXSlbQ0gyXWMoYzNbQ0BdMTJbQ0gzXSlbY0hdW2NIXWMoW2NIXTMpW09IXQ==

>  <s_epik_cmdline>  (58) 
J2VwaWtfcHl0aG9uJywgJy1waHQnLCAnMi4wJywgJy1waCcsICc3LjAnLCAnLXRuJywgJzgnLCAnLW1hJywgJzIwMCcsICctaW1hZScsICc8aW5maWxlLm1hZT4nLCAnLW9tYWUnLCAnPG91dGZpbGUubWFlPic=

>  <r_lp_tautomer_probability>  (58) 
1

>  <r_epik_Ionization_Penalty>  (58) 
0.0067894

>  <r_epik_Ionization_Penalty_Charging>  (58) 
0.0059231

>  <r_epik_Ionization_Penalty_Neutral>  (58) 
0.000866301

>  <r_epik_State_Penalty>  (58) 
-0

>  <r_epik_Charging_Adjusted_Penalty>  (58) 
0.0059231

>  <i_epik_Tot_Q>  (58) 
1

>  <i_epik_Tot_abs_Q>  (58) 
1

>  <s_lp_Force_Field>  (58) 
OPLS3e

>  <r_lp_Energy>  (58) 
39.6896

>  <b_lp_Chiralities_Consistent>  (58) 
1

>  <s_lp_Variant>  (58) 
13:0-1

>  <s_i_glide_gridfile>  (58) 
pfpi4k_grid

>  <i_i_glide_lignum>  (58) 
22

>  <i_i_glide_rotatable_bonds>  (58) 
3

>  <r_i_docking_score>  (58) 
-3.05043

>  <r_i_glide_ligand_efficiency>  (58) 
-0.152521

>  <r_i_glide_ligand_efficiency_sa>  (58) 
-0.414006

>  <r_i_glide_ligand_efficiency_ln>  (58) 
-0.763421

>  <r_i_glide_gscore>  (58) 
-3.05043

>  <r_i_glide_lipo>  (58) 
-0.827527

>  <r_i_glide_hbond>  (58) 
-0.0166699

>  <r_i_glide_metal>  (58) 
-0

>  <r_i_glide_rewards>  (58) 
-1.53804

>  <r_i_glide_evdw>  (58) 
-13.7914

>  <r_i_glide_ecoul>  (58) 
-1.39744

>  <r_i_glide_erotb>  (58) 
0.238445

>  <r_i_glide_esite>  (58) 
-0.00745077

>  <r_i_glide_emodel>  (58) 
-18.4319

>  <r_i_glide_energy>  (58) 
-15.1888

>  <r_i_glide_einternal>  (58) 
2.10044

>  <r_i_glide_intrahb_reward>  (58) 
-0

>  <i_i_glide_confnum>  (58) 
3

>  <i_i_glide_posenum>  (58) 
9

>  <r_i_glide_eff_state_penalty>  (58) 
0

>  <ligand_id>  (58) 
13

>  <original_smiles>  (58) 
CCCN1CC(C)C2(C)c3cc(O)ccc3CC1C2C

>  <smiles>  (58) 
[H]Oc1c([H])c([H])c2c(c1[H])C1(C([H])([H])[H])C([H])(C([H])([H])[H])C([H])([H])[N+]([H])(C([H])([H])C([H])([H])C([H])([H])[H])C([H])(C2([H])[H])C1([H])C([H])([H])[H]

$$$$
13:0:2
     RDKit          3D

 48 50  0  0  1  0  0  0  0  0999 V2000
    3.8994    6.4351    3.1118 C   0  0  0  0  0  0  0  0  0  0  0  0
    2.4626    5.8813    3.1375 C   0  0  0  0  0  0  0  0  0  0  0  0
    2.3483    4.5707    3.9369 C   0  0  0  0  0  0  0  0  0  0  0  0
    1.0588    4.4651    4.6747 N   0  0  1  0  0  0  0  0  0  0  0  0
   -0.0100    3.7450    3.9251 C   0  0  0  0  0  0  0  0  0  0  0  0
   -1.3499    3.6761    4.7069 C   0  0  1  0  0  0  0  0  0  0  0  0
   -2.4191    2.9362    3.8739 C   0  0  0  0  0  0  0  0  0  0  0  0
   -1.1364    3.1107    6.1497 C   0  0  1  0  0  0  0  0  0  0  0  0
   -2.4560    3.1267    6.9701 C   0  0  0  0  0  0  0  0  0  0  0  0
   -0.5456    1.6791    6.0536 C   0  0  0  0  0  0  0  0  0  0  0  0
   -1.3884    0.5505    5.9098 C   0  0  0  0  0  0  0  0  0  0  0  0
   -0.8533   -0.7345    5.7154 C   0  0  0  0  0  0  0  0  0  0  0  0
   -1.6890   -1.8043    5.6086 O   0  0  0  0  0  0  0  0  0  0  0  0
    0.5365   -0.9208    5.6442 C   0  0  0  0  0  0  0  0  0  0  0  0
    1.3930    0.1810    5.8102 C   0  0  0  0  0  0  0  0  0  0  0  0
    0.8626    1.4679    6.0266 C   0  0  0  0  0  0  0  0  0  0  0  0
    1.8436    2.6098    6.2383 C   0  0  0  0  0  0  0  0  0  0  0  0
    1.2251    4.0119    6.0939 C   0  0  2  0  0  0  0  0  0  0  0  0
   -0.1102    4.0525    6.8573 C   0  0  1  0  0  0  0  0  0  0  0  0
   -0.5540    5.5100    7.1404 C   0  0  0  0  0  0  0  0  0  0  0  0
    3.9681    7.3760    2.5640 H   0  0  0  0  0  0  0  0  0  0  0  0
    4.5840    5.7446    2.6244 H   0  0  0  0  0  0  0  0  0  0  0  0
    4.2685    6.6404    4.1200 H   0  0  0  0  0  0  0  0  0  0  0  0
    1.8072    6.6560    3.5402 H   0  0  0  0  0  0  0  0  0  0  0  0
    2.1289    5.6923    2.1188 H   0  0  0  0  0  0  0  0  0  0  0  0
    2.4910    3.7109    3.2801 H   0  0  0  0  0  0  0  0  0  0  0  0
    3.1794    4.5349    4.6424 H   0  0  0  0  0  0  0  0  0  0  0  0
   -0.1691    4.2701    2.9829 H   0  0  0  0  0  0  0  0  0  0  0  0
    0.3303    2.7428    3.6612 H   0  0  0  0  0  0  0  0  0  0  0  0
   -1.7263    4.6923    4.7997 H   0  0  0  0  0  0  0  0  0  0  0  0
   -2.1543    1.8955    3.6775 H   0  0  0  0  0  0  0  0  0  0  0  0
   -2.5541    3.4147    2.9030 H   0  0  0  0  0  0  0  0  0  0  0  0
   -3.3935    2.9463    4.3628 H   0  0  0  0  0  0  0  0  0  0  0  0
   -2.9027    4.1191    7.0020 H   0  0  0  0  0  0  0  0  0  0  0  0
   -2.2845    2.8110    7.9997 H   0  0  0  0  0  0  0  0  0  0  0  0
   -3.2316    2.4855    6.5613 H   0  0  0  0  0  0  0  0  0  0  0  0
   -2.4603    0.6510    5.9120 H   0  0  0  0  0  0  0  0  0  0  0  0
   -1.2238   -2.5889    5.3580 H   0  0  0  0  0  0  0  0  0  0  0  0
    0.9587   -1.8986    5.4745 H   0  0  0  0  0  0  0  0  0  0  0  0
    2.4640    0.0349    5.7674 H   0  0  0  0  0  0  0  0  0  0  0  0
    2.2120    2.5086    7.2592 H   0  0  0  0  0  0  0  0  0  0  0  0
    2.7181    2.4820    5.5985 H   0  0  0  0  0  0  0  0  0  0  0  0
    1.9107    4.7186    6.5675 H   0  0  0  0  0  0  0  0  0  0  0  0
    0.0767    3.6319    7.8460 H   0  0  0  0  0  0  0  0  0  0  0  0
   -0.7629    6.0751    6.2325 H   0  0  0  0  0  0  0  0  0  0  0  0
    0.2287    6.0532    7.6724 H   0  0  0  0  0  0  0  0  0  0  0  0
   -1.4296    5.5557    7.7880 H   0  0  0  0  0  0  0  0  0  0  0  0
    0.7320    5.4178    4.7548 H   0  0  0  0  0  0  0  0  0  0  0  0
  1  2  1  0
  1 21  1  0
  1 22  1  0
  1 23  1  0
  2  3  1  0
  2 24  1  0
  2 25  1  0
  3  4  1  0
  3 26  1  0
  3 27  1  0
  4 18  1  0
  4  5  1  0
  4 48  1  1
  5  6  1  0
  5 28  1  0
  5 29  1  0
  6  7  1  0
  6  8  1  0
  6 30  1  1
  7 31  1  0
  7 32  1  0
  7 33  1  0
  8 19  1  0
  8  9  1  1
  8 10  1  0
  9 34  1  0
  9 35  1  0
  9 36  1  0
 10 16  2  0
 10 11  1  0
 11 12  2  0
 11 37  1  0
 12 13  1  0
 12 14  1  0
 13 38  1  0
 14 15  2  0
 14 39  1  0
 15 16  1  0
 15 40  1  0
 16 17  1  0
 17 18  1  0
 17 41  1  0
 17 42  1  0
 18 19  1  0
 18 43  1  1
 19 20  1  0
 19 44  1  1
 20 45  1  0
 20 46  1  0
 20 47  1  0
M  CHG  1   4   1
M  END
>  <i_m_ct_stereo_status>  (59) 
1

>  <s_m_source_file>  (59) 
/var/tmp/pbs.5076255.sched01/tmpbmel7479/053vx75p8.sdf

>  <i_m_source_file_index>  (59) 
22

>  <i_lp_mmshare_version>  (59) 
48012

>  <i_f3d_flags>  (59) 
0

>  <s_epik_input>  (59) 
W0NIM11bQ0gyXVtDSDJdTihbQ0gyXVtDQEhdMVtDSDNdKVtDQEBIXShbQ0BIXTJbQ0gzXSlbQ0gyXWMoYzNbQ0BdMTJbQ0gzXSlbY0hdW2NIXWMoW2NIXTMpW09IXQ==

>  <s_epik_cmdline>  (59) 
J2VwaWtfcHl0aG9uJywgJy1waHQnLCAnMi4wJywgJy1waCcsICc3LjAnLCAnLXRuJywgJzgnLCAnLW1hJywgJzIwMCcsICctaW1hZScsICc8aW5maWxlLm1hZT4nLCAnLW9tYWUnLCAnPG91dGZpbGUubWFlPic=

>  <r_lp_tautomer_probability>  (59) 
1

>  <r_epik_Ionization_Penalty>  (59) 
0.0067894

>  <r_epik_Ionization_Penalty_Charging>  (59) 
0.0059231

>  <r_epik_Ionization_Penalty_Neutral>  (59) 
0.000866301

>  <r_epik_State_Penalty>  (59) 
-0

>  <r_epik_Charging_Adjusted_Penalty>  (59) 
0.0059231

>  <i_epik_Tot_Q>  (59) 
1

>  <i_epik_Tot_abs_Q>  (59) 
1

>  <s_lp_Force_Field>  (59) 
OPLS3e

>  <r_lp_Energy>  (59) 
39.6896

>  <b_lp_Chiralities_Consistent>  (59) 
1

>  <s_lp_Variant>  (59) 
13:0-1

>  <s_i_glide_gridfile>  (59) 
pfpi4k_grid

>  <i_i_glide_lignum>  (59) 
22

>  <i_i_glide_rotatable_bonds>  (59) 
3

>  <r_i_docking_score>  (59) 
-2.69144

>  <r_i_glide_ligand_efficiency>  (59) 
-0.134572

>  <r_i_glide_ligand_efficiency_sa>  (59) 
-0.365284

>  <r_i_glide_ligand_efficiency_ln>  (59) 
-0.673578

>  <r_i_glide_gscore>  (59) 
-2.69144

>  <r_i_glide_lipo>  (59) 
-0.200034

>  <r_i_glide_hbond>  (59) 
0

>  <r_i_glide_metal>  (59) 
-0

>  <r_i_glide_rewards>  (59) 
-1.53804

>  <r_i_glide_evdw>  (59) 
-14.5884

>  <r_i_glide_ecoul>  (59) 
-2.93307

>  <r_i_glide_erotb>  (59) 
0.238445

>  <r_i_glide_esite>  (59) 
-0.0224293

>  <r_i_glide_emodel>  (59) 
-19.7649

>  <r_i_glide_energy>  (59) 
-17.5215

>  <r_i_glide_einternal>  (59) 
3.68376

>  <r_i_glide_intrahb_reward>  (59) 
-0

>  <i_i_glide_confnum>  (59) 
1

>  <i_i_glide_posenum>  (59) 
8

>  <r_i_glide_eff_state_penalty>  (59) 
0

>  <ligand_id>  (59) 
13

>  <original_smiles>  (59) 
CCCN1CC(C)C2(C)c3cc(O)ccc3CC1C2C

>  <smiles>  (59) 
[H]Oc1c([H])c([H])c2c(c1[H])C1(C([H])([H])[H])C([H])(C([H])([H])[H])C([H])([H])[N+]([H])(C([H])([H])C([H])([H])C([H])([H])[H])C([H])(C2([H])[H])C1([H])C([H])([H])[H]

$$$$
14:0:0
     RDKit          3D

 52 56  0  0  1  0  0  0  0  0999 V2000
    2.6566  -10.0652    3.4408 C   0  0  0  0  0  0  0  0  0  0  0  0
    1.9664   -8.8715    2.7881 C   0  0  0  0  0  0  0  0  0  0  0  0
    2.6277   -7.7485    2.2524 C   0  0  0  0  0  0  0  0  0  0  0  0
    4.1416   -7.7023    2.1553 C   0  0  0  0  0  0  0  0  0  0  0  0
    4.7034   -6.3636    1.8292 N   0  0  1  0  0  0  0  0  0  0  0  0
    6.1520   -6.2835    2.1607 C   0  0  0  0  0  0  0  0  0  0  0  0
    6.7004   -4.8504    1.9327 C   0  0  0  0  0  0  0  0  0  0  0  0
    6.3834   -4.3544    0.5179 C   0  0  0  0  0  0  0  0  0  0  0  0
    4.8831   -4.4965    0.2172 C   0  0  1  0  0  0  0  0  0  0  0  0
    4.0582   -3.4545    1.0198 C   0  0  0  0  0  0  0  0  0  0  0  0
    4.1097   -2.1855    0.1604 C   0  0  0  0  0  0  0  0  0  0  0  0
    4.2871   -2.6961   -1.1861 N   0  0  0  0  0  0  0  0  0  0  0  0
    4.1645   -1.9150   -2.3394 C   0  0  0  0  0  0  0  0  0  0  0  0
    3.9110   -2.4730   -3.6147 C   0  0  0  0  0  0  0  0  0  0  0  0
    3.7626   -1.6983   -4.7106 N   0  0  0  0  0  0  0  0  0  0  0  0
    3.8785   -0.3644   -4.5457 C   0  0  0  0  0  0  0  0  0  0  0  0
    4.1557    0.1701   -3.2704 C   0  0  0  0  0  0  0  0  0  0  0  0
    4.3113   -0.5955   -2.1782 N   0  0  0  0  0  0  0  0  0  0  0  0
    4.5916   -4.0999   -1.2215 C   0  0  0  0  0  0  0  0  0  0  0  0
    4.4705   -5.9724    0.4140 C   0  0  0  0  0  0  0  0  0  0  0  0
    1.7762   -6.6897    1.7886 C   0  0  0  0  0  0  0  0  0  0  0  0
    0.4685   -6.7174    1.6982 N   0  0  0  0  0  0  0  0  0  0  0  0
   -0.1381   -7.8147    2.1993 C   0  0  0  0  0  0  0  0  0  0  0  0
   -1.4277   -8.0472    2.3429 N   0  0  0  0  0  0  0  0  0  0  0  0
   -1.4289   -9.2607    2.9412 C   0  0  0  0  0  0  0  0  0  0  0  0
   -0.2515   -9.8023    3.2413 N   0  0  0  0  0  0  0  0  0  0  0  0
    0.5959   -8.8670    2.7510 N   0  0  0  0  0  0  0  0  0  0  0  0
    3.7259   -9.9304    3.6331 H   0  0  0  0  0  0  0  0  0  0  0  0
    2.5484  -10.9619    2.8171 H   0  0  0  0  0  0  0  0  0  0  0  0
    2.1970  -10.2956    4.4153 H   0  0  0  0  0  0  0  0  0  0  0  0
    4.5853   -8.0536    3.0866 H   0  0  0  0  0  0  0  0  0  0  0  0
    4.5045   -8.3898    1.3920 H   0  0  0  0  0  0  0  0  0  0  0  0
    6.3711   -6.5839    3.1869 H   0  0  0  0  0  0  0  0  0  0  0  0
    6.6817   -6.9679    1.5016 H   0  0  0  0  0  0  0  0  0  0  0  0
    6.2611   -4.1952    2.6827 H   0  0  0  0  0  0  0  0  0  0  0  0
    7.7868   -4.8307    2.0911 H   0  0  0  0  0  0  0  0  0  0  0  0
    6.7210   -3.3118    0.3744 H   0  0  0  0  0  0  0  0  0  0  0  0
    6.9402   -4.9599   -0.2038 H   0  0  0  0  0  0  0  0  0  0  0  0
    3.0220   -3.7621    1.1362 H   0  0  0  0  0  0  0  0  0  0  0  0
    4.4241   -3.2416    2.0242 H   0  0  0  0  0  0  0  0  0  0  0  0
    3.2049   -1.5869    0.2651 H   0  0  0  0  0  0  0  0  0  0  0  0
    4.9754   -1.5752    0.4217 H   0  0  0  0  0  0  0  0  0  0  0  0
    3.8066   -3.5313   -3.7657 H   0  0  0  0  0  0  0  0  0  0  0  0
    3.8095    0.2628   -5.4102 H   0  0  0  0  0  0  0  0  0  0  0  0
    4.2699    1.2297   -3.1521 H   0  0  0  0  0  0  0  0  0  0  0  0
    5.3954   -4.3524   -1.9214 H   0  0  0  0  0  0  0  0  0  0  0  0
    3.6821   -4.6051   -1.5180 H   0  0  0  0  0  0  0  0  0  0  0  0
    5.0777   -6.6236   -0.2198 H   0  0  0  0  0  0  0  0  0  0  0  0
    3.4787   -6.0867    0.0110 H   0  0  0  0  0  0  0  0  0  0  0  0
    2.1616   -5.7292    1.5071 H   0  0  0  0  0  0  0  0  0  0  0  0
   -2.3592   -9.7280    3.2006 H   0  0  0  0  0  0  0  0  0  0  0  0
    4.2580   -5.7143    2.4567 H   0  0  0  0  0  0  0  0  0  0  0  0
  1  2  1  0
  1 28  1  0
  1 29  1  0
  1 30  1  0
  2 27  1  0
  2  3  2  0
  3  4  1  0
  3 21  1  0
  4  5  1  0
  4 31  1  0
  4 32  1  0
  5 20  1  0
  5  6  1  0
  5 52  1  1
  6  7  1  0
  6 33  1  0
  6 34  1  0
  7  8  1  0
  7 35  1  0
  7 36  1  0
  9  8  1  1
  8 37  1  0
  8 38  1  0
  9 19  1  0
  9 10  1  0
  9 20  1  0
 10 11  1  0
 10 39  1  0
 10 40  1  0
 11 12  1  0
 11 41  1  0
 11 42  1  0
 12 13  1  0
 12 19  1  0
 13 18  1  0
 13 14  2  0
 14 15  1  0
 14 43  1  0
 15 16  2  0
 16 17  1  0
 16 44  1  0
 17 18  2  0
 17 45  1  0
 19 46  1  0
 19 47  1  0
 20 48  1  0
 20 49  1  0
 21 22  2  0
 21 50  1  0
 22 23  1  0
 23 27  1  0
 23 24  2  0
 24 25  1  0
 25 26  2  0
 25 51  1  0
 26 27  1  0
M  CHG  1   5   1
M  END
>  <i_m_ct_stereo_status>  (60) 
1

>  <s_m_source_file>  (60) 
/var/tmp/pbs.5076255.sched01/tmpbmel7479/053vx75p8.sdf

>  <i_m_source_file_index>  (60) 
23

>  <i_lp_mmshare_version>  (60) 
48012

>  <i_f3d_flags>  (60) 
0

>  <s_epik_input>  (60) 
bjFbY0hdbm4oYzEyKWMoW0NIM10pYyhbY0hdbjIpW0NIMl1OKFtDSDJdMylbQ0gyXVtDSDJdW0NIMl1bQ0BdMzRbQ0gyXVtDSDJdTihbQ0gyXTQpYzVbY0hdbltjSF1bY0hdbjU=

>  <s_epik_cmdline>  (60) 
J2VwaWtfcHl0aG9uJywgJy1waHQnLCAnMi4wJywgJy1waCcsICc3LjAnLCAnLXRuJywgJzgnLCAnLW1hJywgJzIwMCcsICctaW1hZScsICc8aW5maWxlLm1hZT4nLCAnLW9tYWUnLCAnPG91dGZpbGUubWFlPic=

>  <r_lp_tautomer_probability>  (60) 
1

>  <r_epik_Ionization_Penalty>  (60) 
0.0950611

>  <r_epik_Ionization_Penalty_Charging>  (60) 
0.0946894

>  <r_epik_Ionization_Penalty_Neutral>  (60) 
0.000371748

>  <r_epik_State_Penalty>  (60) 
0.0849018

>  <r_epik_Charging_Adjusted_Penalty>  (60) 
0.179591

>  <i_epik_Tot_Q>  (60) 
1

>  <i_epik_Tot_abs_Q>  (60) 
1

>  <s_lp_Force_Field>  (60) 
OPLS3e

>  <r_lp_Energy>  (60) 
35.3132

>  <b_lp_Chiralities_Consistent>  (60) 
1

>  <s_lp_Variant>  (60) 
14:0-1

>  <s_i_glide_gridfile>  (60) 
pfpi4k_grid

>  <i_i_glide_lignum>  (60) 
23

>  <i_i_glide_rotatable_bonds>  (60) 
3

>  <r_i_docking_score>  (60) 
-4.45388

>  <r_i_glide_ligand_efficiency>  (60) 
-0.164958

>  <r_i_glide_ligand_efficiency_sa>  (60) 
-0.494875

>  <r_i_glide_ligand_efficiency_ln>  (60) 
-1.03679

>  <r_i_glide_gscore>  (60) 
-4.45388

>  <r_i_glide_lipo>  (60) 
-0.959944

>  <r_i_glide_hbond>  (60) 
-0.355336

>  <r_i_glide_metal>  (60) 
-0

>  <r_i_glide_rewards>  (60) 
-0.91735

>  <r_i_glide_evdw>  (60) 
-25.6847

>  <r_i_glide_ecoul>  (60) 
-8.30154

>  <r_i_glide_erotb>  (60) 
0.432091

>  <r_i_glide_esite>  (60) 
-0.123874

>  <r_i_glide_emodel>  (60) 
-39.4901

>  <r_i_glide_energy>  (60) 
-33.9862

>  <r_i_glide_einternal>  (60) 
6.10184

>  <r_i_glide_intrahb_reward>  (60) 
-0

>  <i_i_glide_confnum>  (60) 
6

>  <i_i_glide_posenum>  (60) 
1

>  <r_i_glide_eff_state_penalty>  (60) 
0

>  <ligand_id>  (60) 
14

>  <original_smiles>  (60) 
Cc1c(CN2CCCC3(CCN(c4cnccn4)C3)C2)cnc2ncnn12

>  <smiles>  (60) 
[H]c1nc2nc([H])c(C([H])([H])[N+]3([H])C([H])([H])C([H])([H])C([H])([H])C4(C([H])([H])N(c5nc([H])c([H])nc5[H])C([H])([H])C4([H])[H])C3([H])[H])c(C([H])([H])[H])n2n1

$$$$
14:0:1
     RDKit          3D

 52 56  0  0  1  0  0  0  0  0999 V2000
   -1.3016    1.5665    3.3564 C   0  0  0  0  0  0  0  0  0  0  0  0
   -1.0381    1.1050    4.7881 C   0  0  0  0  0  0  0  0  0  0  0  0
   -0.3721   -0.0478    5.1558 C   0  0  0  0  0  0  0  0  0  0  0  0
    0.2435   -1.0374    4.1646 C   0  0  0  0  0  0  0  0  0  0  0  0
    1.7121   -0.8849    4.0084 N   0  0  1  0  0  0  0  0  0  0  0  0
    2.4925   -1.1251    5.2533 C   0  0  0  0  0  0  0  0  0  0  0  0
    3.9874   -0.8821    5.0646 C   0  0  0  0  0  0  0  0  0  0  0  0
    4.5273   -1.7378    3.9283 C   0  0  0  0  0  0  0  0  0  0  0  0
    3.7215   -1.4837    2.6334 C   0  0  1  0  0  0  0  0  0  0  0  0
    3.9379   -0.0627    2.0830 C   0  0  0  0  0  0  0  0  0  0  0  0
    3.7259   -0.2079    0.5903 C   0  0  0  0  0  0  0  0  0  0  0  0
    4.0790   -1.5786    0.2959 N   0  0  0  0  0  0  0  0  0  0  0  0
    4.2402   -2.0884   -1.0065 C   0  0  0  0  0  0  0  0  0  0  0  0
    4.0715   -1.2726   -2.1589 C   0  0  0  0  0  0  0  0  0  0  0  0
    4.2451   -1.7387   -3.4164 N   0  0  0  0  0  0  0  0  0  0  0  0
    4.5847   -3.0401   -3.5200 C   0  0  0  0  0  0  0  0  0  0  0  0
    4.7575   -3.8549   -2.3878 C   0  0  0  0  0  0  0  0  0  0  0  0
    4.5868   -3.3866   -1.1279 N   0  0  0  0  0  0  0  0  0  0  0  0
    4.2180   -2.3853    1.4899 C   0  0  0  0  0  0  0  0  0  0  0  0
    2.2147   -1.7270    2.8910 C   0  0  0  0  0  0  0  0  0  0  0  0
   -0.2485   -0.3237    6.5521 C   0  0  0  0  0  0  0  0  0  0  0  0
   -0.6790    0.4602    7.5173 N   0  0  0  0  0  0  0  0  0  0  0  0
   -1.3229    1.5807    7.1477 C   0  0  0  0  0  0  0  0  0  0  0  0
   -1.9176    2.4906    7.9029 N   0  0  0  0  0  0  0  0  0  0  0  0
   -2.4351    3.3489    6.9881 C   0  0  0  0  0  0  0  0  0  0  0  0
   -2.2210    3.0590    5.7040 N   0  0  0  0  0  0  0  0  0  0  0  0
   -1.5184    1.9090    5.7949 N   0  0  0  0  0  0  0  0  0  0  0  0
   -1.1117    0.8204    2.5859 H   0  0  0  0  0  0  0  0  0  0  0  0
   -0.6860    2.4370    3.1249 H   0  0  0  0  0  0  0  0  0  0  0  0
   -2.3496    1.8492    3.2494 H   0  0  0  0  0  0  0  0  0  0  0  0
   -0.0016   -2.0419    4.5002 H   0  0  0  0  0  0  0  0  0  0  0  0
   -0.2222   -0.9576    3.1750 H   0  0  0  0  0  0  0  0  0  0  0  0
    2.2379   -0.4330    6.0555 H   0  0  0  0  0  0  0  0  0  0  0  0
    2.3099   -2.1413    5.5959 H   0  0  0  0  0  0  0  0  0  0  0  0
    4.1472    0.1785    4.8641 H   0  0  0  0  0  0  0  0  0  0  0  0
    4.4986   -1.0970    6.0085 H   0  0  0  0  0  0  0  0  0  0  0  0
    5.6036   -1.5576    3.7661 H   0  0  0  0  0  0  0  0  0  0  0  0
    4.4420   -2.7894    4.2152 H   0  0  0  0  0  0  0  0  0  0  0  0
    3.2790    0.7039    2.4930 H   0  0  0  0  0  0  0  0  0  0  0  0
    4.9596    0.2559    2.2827 H   0  0  0  0  0  0  0  0  0  0  0  0
    2.6763   -0.0515    0.3451 H   0  0  0  0  0  0  0  0  0  0  0  0
    4.3497    0.5109    0.0673 H   0  0  0  0  0  0  0  0  0  0  0  0
    3.8121   -0.2311   -2.0874 H   0  0  0  0  0  0  0  0  0  0  0  0
    4.7229   -3.4328   -4.5134 H   0  0  0  0  0  0  0  0  0  0  0  0
    5.0113   -4.8974   -2.4905 H   0  0  0  0  0  0  0  0  0  0  0  0
    5.2682   -2.6360    1.6147 H   0  0  0  0  0  0  0  0  0  0  0  0
    3.6537   -3.3153    1.4225 H   0  0  0  0  0  0  0  0  0  0  0  0
    2.0343   -2.7769    3.1307 H   0  0  0  0  0  0  0  0  0  0  0  0
    1.6433   -1.5326    1.9755 H   0  0  0  0  0  0  0  0  0  0  0  0
    0.2451   -1.2226    6.8960 H   0  0  0  0  0  0  0  0  0  0  0  0
   -2.9818    4.2300    7.2856 H   0  0  0  0  0  0  0  0  0  0  0  0
    1.8780    0.0707    3.7281 H   0  0  0  0  0  0  0  0  0  0  0  0
  1  2  1  0
  1 28  1  0
  1 29  1  0
  1 30  1  0
  2 27  1  0
  2  3  2  0
  3  4  1  0
  3 21  1  0
  4  5  1  0
  4 31  1  0
  4 32  1  0
  5 20  1  0
  5  6  1  0
  5 52  1  6
  6  7  1  0
  6 33  1  0
  6 34  1  0
  7  8  1  0
  7 35  1  0
  7 36  1  0
  9  8  1  1
  8 37  1  0
  8 38  1  0
  9 19  1  0
  9 10  1  0
  9 20  1  0
 10 11  1  0
 10 39  1  0
 10 40  1  0
 11 12  1  0
 11 41  1  0
 11 42  1  0
 12 13  1  0
 12 19  1  0
 13 18  1  0
 13 14  2  0
 14 15  1  0
 14 43  1  0
 15 16  2  0
 16 17  1  0
 16 44  1  0
 17 18  2  0
 17 45  1  0
 19 46  1  0
 19 47  1  0
 20 48  1  0
 20 49  1  0
 21 22  2  0
 21 50  1  0
 22 23  1  0
 23 27  1  0
 23 24  2  0
 24 25  1  0
 25 26  2  0
 25 51  1  0
 26 27  1  0
M  CHG  1   5   1
M  END
>  <i_m_ct_stereo_status>  (61) 
1

>  <s_m_source_file>  (61) 
/var/tmp/pbs.5076255.sched01/tmpbmel7479/053vx75p8.sdf

>  <i_m_source_file_index>  (61) 
23

>  <i_lp_mmshare_version>  (61) 
48012

>  <i_f3d_flags>  (61) 
0

>  <s_epik_input>  (61) 
bjFbY0hdbm4oYzEyKWMoW0NIM10pYyhbY0hdbjIpW0NIMl1OKFtDSDJdMylbQ0gyXVtDSDJdW0NIMl1bQ0BdMzRbQ0gyXVtDSDJdTihbQ0gyXTQpYzVbY0hdbltjSF1bY0hdbjU=

>  <s_epik_cmdline>  (61) 
J2VwaWtfcHl0aG9uJywgJy1waHQnLCAnMi4wJywgJy1waCcsICc3LjAnLCAnLXRuJywgJzgnLCAnLW1hJywgJzIwMCcsICctaW1hZScsICc8aW5maWxlLm1hZT4nLCAnLW9tYWUnLCAnPG91dGZpbGUubWFlPic=

>  <r_lp_tautomer_probability>  (61) 
1

>  <r_epik_Ionization_Penalty>  (61) 
0.0950611

>  <r_epik_Ionization_Penalty_Charging>  (61) 
0.0946894

>  <r_epik_Ionization_Penalty_Neutral>  (61) 
0.000371748

>  <r_epik_State_Penalty>  (61) 
0.0849018

>  <r_epik_Charging_Adjusted_Penalty>  (61) 
0.179591

>  <i_epik_Tot_Q>  (61) 
1

>  <i_epik_Tot_abs_Q>  (61) 
1

>  <s_lp_Force_Field>  (61) 
OPLS3e

>  <r_lp_Energy>  (61) 
35.3132

>  <b_lp_Chiralities_Consistent>  (61) 
1

>  <s_lp_Variant>  (61) 
14:0-1

>  <s_i_glide_gridfile>  (61) 
pfpi4k_grid

>  <i_i_glide_lignum>  (61) 
23

>  <i_i_glide_rotatable_bonds>  (61) 
3

>  <r_i_docking_score>  (61) 
-3.17196

>  <r_i_glide_ligand_efficiency>  (61) 
-0.11748

>  <r_i_glide_ligand_efficiency_sa>  (61) 
-0.35244

>  <r_i_glide_ligand_efficiency_ln>  (61) 
-0.73838

>  <r_i_glide_gscore>  (61) 
-3.17196

>  <r_i_glide_lipo>  (61) 
-0.250116

>  <r_i_glide_hbond>  (61) 
-0.0541487

>  <r_i_glide_metal>  (61) 
-0

>  <r_i_glide_rewards>  (61) 
-1.06593

>  <r_i_glide_evdw>  (61) 
-27.1848

>  <r_i_glide_ecoul>  (61) 
-5.34067

>  <r_i_glide_erotb>  (61) 
0.432091

>  <r_i_glide_esite>  (61) 
-0.0735105

>  <r_i_glide_emodel>  (61) 
-38.5671

>  <r_i_glide_energy>  (61) 
-32.5255

>  <r_i_glide_einternal>  (61) 
0.658369

>  <r_i_glide_intrahb_reward>  (61) 
-0

>  <i_i_glide_confnum>  (61) 
2

>  <i_i_glide_posenum>  (61) 
5

>  <r_i_glide_eff_state_penalty>  (61) 
0

>  <ligand_id>  (61) 
14

>  <original_smiles>  (61) 
Cc1c(CN2CCCC3(CCN(c4cnccn4)C3)C2)cnc2ncnn12

>  <smiles>  (61) 
[H]c1nc2nc([H])c(C([H])([H])[N+]3([H])C([H])([H])C([H])([H])C([H])([H])C4(C([H])([H])N(c5nc([H])c([H])nc5[H])C([H])([H])C4([H])[H])C3([H])[H])c(C([H])([H])[H])n2n1

$$$$
14:0:2
     RDKit          3D

 52 56  0  0  1  0  0  0  0  0999 V2000
    4.0878   -5.1425    1.4479 C   0  0  0  0  0  0  0  0  0  0  0  0
    5.3054   -4.3830    0.9359 C   0  0  0  0  0  0  0  0  0  0  0  0
    5.2931   -3.0692    0.4978 C   0  0  0  0  0  0  0  0  0  0  0  0
    4.0397   -2.2003    0.4766 C   0  0  0  0  0  0  0  0  0  0  0  0
    3.8380   -1.4493    1.7425 N   0  0  1  0  0  0  0  0  0  0  0  0
    4.9560   -0.5197    2.0712 C   0  0  0  0  0  0  0  0  0  0  0  0
    4.7496    0.1688    3.4238 C   0  0  0  0  0  0  0  0  0  0  0  0
    3.3971    0.8978    3.4497 C   0  0  0  0  0  0  0  0  0  0  0  0
    2.2380   -0.0575    3.0758 C   0  0  1  0  0  0  0  0  0  0  0  0
    1.9678   -1.0705    4.2114 C   0  0  0  0  0  0  0  0  0  0  0  0
    1.0486   -0.3190    5.1668 C   0  0  0  0  0  0  0  0  0  0  0  0
    0.3449    0.6170    4.3165 N   0  0  0  0  0  0  0  0  0  0  0  0
   -0.7237    1.4210    4.7415 C   0  0  0  0  0  0  0  0  0  0  0  0
   -1.1479    1.4358    6.0947 C   0  0  0  0  0  0  0  0  0  0  0  0
   -2.1782    2.1971    6.5172 N   0  0  0  0  0  0  0  0  0  0  0  0
   -2.7771    2.9551    5.5771 C   0  0  0  0  0  0  0  0  0  0  0  0
   -2.3671    2.9496    4.2289 C   0  0  0  0  0  0  0  0  0  0  0  0
   -1.3411    2.1837    3.8095 N   0  0  0  0  0  0  0  0  0  0  0  0
    0.9159    0.7224    2.9910 C   0  0  0  0  0  0  0  0  0  0  0  0
    2.5344   -0.7374    1.7241 C   0  0  0  0  0  0  0  0  0  0  0  0
    6.5240   -2.5150    0.0529 C   0  0  0  0  0  0  0  0  0  0  0  0
    7.6868   -3.1502    0.0432 N   0  0  0  0  0  0  0  0  0  0  0  0
    7.6857   -4.4253    0.4722 C   0  0  0  0  0  0  0  0  0  0  0  0
    8.6820   -5.3020    0.5428 N   0  0  0  0  0  0  0  0  0  0  0  0
    8.0711   -6.4181    1.0385 C   0  0  0  0  0  0  0  0  0  0  0  0
    6.7662   -6.3214    1.2835 N   0  0  0  0  0  0  0  0  0  0  0  0
    6.5047   -5.0439    0.9155 N   0  0  0  0  0  0  0  0  0  0  0  0
    3.1397   -4.6423    1.2568 H   0  0  0  0  0  0  0  0  0  0  0  0
    4.1677   -5.2936    2.5263 H   0  0  0  0  0  0  0  0  0  0  0  0
    4.0289   -6.1229    0.9697 H   0  0  0  0  0  0  0  0  0  0  0  0
    4.1282   -1.4872   -0.3404 H   0  0  0  0  0  0  0  0  0  0  0  0
    3.1546   -2.7952    0.2282 H   0  0  0  0  0  0  0  0  0  0  0  0
    5.9100   -1.0415    2.1315 H   0  0  0  0  0  0  0  0  0  0  0  0
    5.0343    0.2203    1.2758 H   0  0  0  0  0  0  0  0  0  0  0  0
    4.8164   -0.5746    4.2172 H   0  0  0  0  0  0  0  0  0  0  0  0
    5.5644    0.8666    3.6299 H   0  0  0  0  0  0  0  0  0  0  0  0
    3.2300    1.3557    4.4277 H   0  0  0  0  0  0  0  0  0  0  0  0
    3.4105    1.7292    2.7414 H   0  0  0  0  0  0  0  0  0  0  0  0
    1.4578   -1.9529    3.8218 H   0  0  0  0  0  0  0  0  0  0  0  0
    2.8585   -1.4281    4.7257 H   0  0  0  0  0  0  0  0  0  0  0  0
    0.3744   -1.0044    5.6786 H   0  0  0  0  0  0  0  0  0  0  0  0
    1.6312    0.2229    5.9139 H   0  0  0  0  0  0  0  0  0  0  0  0
   -0.6637    0.8341    6.8510 H   0  0  0  0  0  0  0  0  0  0  0  0
   -3.6181    3.5470    5.8967 H   0  0  0  0  0  0  0  0  0  0  0  0
   -2.8763    3.5385    3.4804 H   0  0  0  0  0  0  0  0  0  0  0  0
    1.0672    1.7578    2.6842 H   0  0  0  0  0  0  0  0  0  0  0  0
    0.2218    0.2710    2.2812 H   0  0  0  0  0  0  0  0  0  0  0  0
    2.5448    0.0051    0.9230 H   0  0  0  0  0  0  0  0  0  0  0  0
    1.7276   -1.4324    1.4758 H   0  0  0  0  0  0  0  0  0  0  0  0
    6.5584   -1.4805   -0.2757 H   0  0  0  0  0  0  0  0  0  0  0  0
    8.6070   -7.3412    1.2153 H   0  0  0  0  0  0  0  0  0  0  0  0
    3.7792   -2.1275    2.4907 H   0  0  0  0  0  0  0  0  0  0  0  0
  1  2  1  0
  1 28  1  0
  1 29  1  0
  1 30  1  0
  2 27  1  0
  2  3  2  0
  3  4  1  0
  3 21  1  0
  4  5  1  0
  4 31  1  0
  4 32  1  0
  5 20  1  0
  5  6  1  0
  5 52  1  1
  6  7  1  0
  6 33  1  0
  6 34  1  0
  7  8  1  0
  7 35  1  0
  7 36  1  0
  9  8  1  1
  8 37  1  0
  8 38  1  0
  9 19  1  0
  9 10  1  0
  9 20  1  0
 10 11  1  0
 10 39  1  0
 10 40  1  0
 11 12  1  0
 11 41  1  0
 11 42  1  0
 12 13  1  0
 12 19  1  0
 13 18  1  0
 13 14  2  0
 14 15  1  0
 14 43  1  0
 15 16  2  0
 16 17  1  0
 16 44  1  0
 17 18  2  0
 17 45  1  0
 19 46  1  0
 19 47  1  0
 20 48  1  0
 20 49  1  0
 21 22  2  0
 21 50  1  0
 22 23  1  0
 23 27  1  0
 23 24  2  0
 24 25  1  0
 25 26  2  0
 25 51  1  0
 26 27  1  0
M  CHG  1   5   1
M  END
>  <i_m_ct_stereo_status>  (62) 
1

>  <s_m_source_file>  (62) 
/var/tmp/pbs.5076255.sched01/tmpbmel7479/053vx75p8.sdf

>  <i_m_source_file_index>  (62) 
23

>  <i_lp_mmshare_version>  (62) 
48012

>  <i_f3d_flags>  (62) 
0

>  <s_epik_input>  (62) 
bjFbY0hdbm4oYzEyKWMoW0NIM10pYyhbY0hdbjIpW0NIMl1OKFtDSDJdMylbQ0gyXVtDSDJdW0NIMl1bQ0BdMzRbQ0gyXVtDSDJdTihbQ0gyXTQpYzVbY0hdbltjSF1bY0hdbjU=

>  <s_epik_cmdline>  (62) 
J2VwaWtfcHl0aG9uJywgJy1waHQnLCAnMi4wJywgJy1waCcsICc3LjAnLCAnLXRuJywgJzgnLCAnLW1hJywgJzIwMCcsICctaW1hZScsICc8aW5maWxlLm1hZT4nLCAnLW9tYWUnLCAnPG91dGZpbGUubWFlPic=

>  <r_lp_tautomer_probability>  (62) 
1

>  <r_epik_Ionization_Penalty>  (62) 
0.0950611

>  <r_epik_Ionization_Penalty_Charging>  (62) 
0.0946894

>  <r_epik_Ionization_Penalty_Neutral>  (62) 
0.000371748

>  <r_epik_State_Penalty>  (62) 
0.0849018

>  <r_epik_Charging_Adjusted_Penalty>  (62) 
0.179591

>  <i_epik_Tot_Q>  (62) 
1

>  <i_epik_Tot_abs_Q>  (62) 
1

>  <s_lp_Force_Field>  (62) 
OPLS3e

>  <r_lp_Energy>  (62) 
35.3132

>  <b_lp_Chiralities_Consistent>  (62) 
1

>  <s_lp_Variant>  (62) 
14:0-1

>  <s_i_glide_gridfile>  (62) 
pfpi4k_grid

>  <i_i_glide_lignum>  (62) 
23

>  <i_i_glide_rotatable_bonds>  (62) 
3

>  <r_i_docking_score>  (62) 
-3.15624

>  <r_i_glide_ligand_efficiency>  (62) 
-0.116898

>  <r_i_glide_ligand_efficiency_sa>  (62) 
-0.350693

>  <r_i_glide_ligand_efficiency_ln>  (62) 
-0.73472

>  <r_i_glide_gscore>  (62) 
-3.15624

>  <r_i_glide_lipo>  (62) 
-0.337324

>  <r_i_glide_hbond>  (62) 
0

>  <r_i_glide_metal>  (62) 
-0

>  <r_i_glide_rewards>  (62) 
-1.28122

>  <r_i_glide_evdw>  (62) 
-27.0692

>  <r_i_glide_ecoul>  (62) 
-3.73414

>  <r_i_glide_erotb>  (62) 
0.432091

>  <r_i_glide_esite>  (62) 
-0.0562078

>  <r_i_glide_emodel>  (62) 
-37.4032

>  <r_i_glide_energy>  (62) 
-30.8033

>  <r_i_glide_einternal>  (62) 
0.22652

>  <r_i_glide_intrahb_reward>  (62) 
-0

>  <i_i_glide_confnum>  (62) 
5

>  <i_i_glide_posenum>  (62) 
3

>  <r_i_glide_eff_state_penalty>  (62) 
0

>  <ligand_id>  (62) 
14

>  <original_smiles>  (62) 
Cc1c(CN2CCCC3(CCN(c4cnccn4)C3)C2)cnc2ncnn12

>  <smiles>  (62) 
[H]c1nc2nc([H])c(C([H])([H])[N+]3([H])C([H])([H])C([H])([H])C([H])([H])C4(C([H])([H])N(c5nc([H])c([H])nc5[H])C([H])([H])C4([H])[H])C3([H])[H])c(C([H])([H])[H])n2n1

$$$$
14:1:0
     RDKit          3D

 51 55  0  0  1  0  0  0  0  0999 V2000
    2.3527  -10.3720    3.1950 C   0  0  0  0  0  0  0  0  0  0  0  0
    1.8002   -8.9696    2.9359 C   0  0  0  0  0  0  0  0  0  0  0  0
    2.5725   -7.8175    2.8534 C   0  0  0  0  0  0  0  0  0  0  0  0
    4.1030   -7.8490    2.9116 C   0  0  0  0  0  0  0  0  0  0  0  0
    4.7583   -6.6282    2.4420 N   0  0  0  0  0  0  0  0  0  0  0  0
    6.2159   -6.7647    2.5860 C   0  0  0  0  0  0  0  0  0  0  0  0
    6.9167   -5.4398    2.2151 C   0  0  0  0  0  0  0  0  0  0  0  0
    6.5244   -4.9823    0.7960 C   0  0  0  0  0  0  0  0  0  0  0  0
    4.9885   -4.9391    0.6802 C   0  0  1  0  0  0  0  0  0  0  0  0
    4.3905   -3.7461    1.4909 C   0  0  0  0  0  0  0  0  0  0  0  0
    4.4939   -2.5504    0.5457 C   0  0  0  0  0  0  0  0  0  0  0  0
    4.4509   -3.1425   -0.7681 N   0  0  0  0  0  0  0  0  0  0  0  0
    4.2707   -2.3918   -1.9415 C   0  0  0  0  0  0  0  0  0  0  0  0
    3.9758   -3.0047   -3.1803 C   0  0  0  0  0  0  0  0  0  0  0  0
    3.7857   -2.2776   -4.3020 N   0  0  0  0  0  0  0  0  0  0  0  0
    3.8882   -0.9379   -4.1866 C   0  0  0  0  0  0  0  0  0  0  0  0
    4.1886   -0.3268   -2.9609 C   0  0  0  0  0  0  0  0  0  0  0  0
    4.3866   -1.0506   -1.8365 N   0  0  0  0  0  0  0  0  0  0  0  0
    4.5616   -4.5832   -0.7458 C   0  0  0  0  0  0  0  0  0  0  0  0
    4.4247   -6.3331    1.0380 C   0  0  0  0  0  0  0  0  0  0  0  0
    1.8818   -6.5808    2.6781 C   0  0  0  0  0  0  0  0  0  0  0  0
    0.5699   -6.4609    2.5202 N   0  0  0  0  0  0  0  0  0  0  0  0
   -0.1538   -7.5841    2.5614 C   0  0  0  0  0  0  0  0  0  0  0  0
   -1.4758   -7.7363    2.4811 N   0  0  0  0  0  0  0  0  0  0  0  0
   -1.6197   -9.0668    2.6835 C   0  0  0  0  0  0  0  0  0  0  0  0
   -0.5131   -9.7823    2.8753 N   0  0  0  0  0  0  0  0  0  0  0  0
    0.4452   -8.8323    2.7857 N   0  0  0  0  0  0  0  0  0  0  0  0
    3.4383  -10.4356    3.1323 H   0  0  0  0  0  0  0  0  0  0  0  0
    1.9452  -11.0930    2.4821 H   0  0  0  0  0  0  0  0  0  0  0  0
    2.0579  -10.7057    4.1898 H   0  0  0  0  0  0  0  0  0  0  0  0
    4.3881   -8.0528    3.9456 H   0  0  0  0  0  0  0  0  0  0  0  0
    4.4756   -8.6867    2.3219 H   0  0  0  0  0  0  0  0  0  0  0  0
    6.4969   -7.0443    3.6093 H   0  0  0  0  0  0  0  0  0  0  0  0
    6.5772   -7.5645    1.9345 H   0  0  0  0  0  0  0  0  0  0  0  0
    6.6282   -4.6861    2.9506 H   0  0  0  0  0  0  0  0  0  0  0  0
    8.0036   -5.5435    2.2758 H   0  0  0  0  0  0  0  0  0  0  0  0
    6.9687   -4.0146    0.5404 H   0  0  0  0  0  0  0  0  0  0  0  0
    6.9102   -5.7065    0.0766 H   0  0  0  0  0  0  0  0  0  0  0  0
    3.3389   -3.9126    1.7223 H   0  0  0  0  0  0  0  0  0  0  0  0
    4.8817   -3.5257    2.4399 H   0  0  0  0  0  0  0  0  0  0  0  0
    3.6885   -1.8309    0.7114 H   0  0  0  0  0  0  0  0  0  0  0  0
    5.4510   -2.0417    0.6661 H   0  0  0  0  0  0  0  0  0  0  0  0
    3.8956   -4.0755   -3.3045 H   0  0  0  0  0  0  0  0  0  0  0  0
    3.7630   -0.3519   -5.0871 H   0  0  0  0  0  0  0  0  0  0  0  0
    4.2760    0.7437   -2.8763 H   0  0  0  0  0  0  0  0  0  0  0  0
    5.2471   -4.9667   -1.5010 H   0  0  0  0  0  0  0  0  0  0  0  0
    3.5739   -4.9887   -0.9410 H   0  0  0  0  0  0  0  0  0  0  0  0
    4.8557   -7.1214    0.3955 H   0  0  0  0  0  0  0  0  0  0  0  0
    3.3413   -6.2760    0.8845 H   0  0  0  0  0  0  0  0  0  0  0  0
    2.4408   -5.6350    2.6825 H   0  0  0  0  0  0  0  0  0  0  0  0
   -2.5916   -9.5170    2.7110 H   0  0  0  0  0  0  0  0  0  0  0  0
  1  2  1  0
  1 28  1  0
  1 29  1  0
  1 30  1  0
  2 27  1  0
  2  3  2  0
  3  4  1  0
  3 21  1  0
  4  5  1  0
  4 31  1  0
  4 32  1  0
  5 20  1  0
  5  6  1  0
  6  7  1  0
  6 33  1  0
  6 34  1  0
  7  8  1  0
  7 35  1  0
  7 36  1  0
  9  8  1  6
  8 37  1  0
  8 38  1  0
  9 19  1  0
  9 10  1  0
  9 20  1  0
 10 11  1  0
 10 39  1  0
 10 40  1  0
 11 12  1  0
 11 41  1  0
 11 42  1  0
 12 13  1  0
 12 19  1  0
 13 18  1  0
 13 14  2  0
 14 15  1  0
 14 43  1  0
 15 16  2  0
 16 17  1  0
 16 44  1  0
 17 18  2  0
 17 45  1  0
 19 46  1  0
 19 47  1  0
 20 48  1  0
 20 49  1  0
 21 22  2  0
 21 50  1  0
 22 23  1  0
 23 27  1  0
 23 24  2  0
 24 25  1  0
 25 26  2  0
 25 51  1  0
 26 27  1  0
M  END
>  <i_m_ct_stereo_status>  (63) 
1

>  <s_m_source_file>  (63) 
/var/tmp/pbs.5076255.sched01/tmpbmel7479/053vx75p8.sdf

>  <i_m_source_file_index>  (63) 
24

>  <i_lp_mmshare_version>  (63) 
48012

>  <i_f3d_flags>  (63) 
0

>  <s_epik_input>  (63) 
bjFbY0hdbm4oYzEyKWMoW0NIM10pYyhbY0hdbjIpW0NIMl1OKFtDSDJdMylbQ0gyXVtDSDJdW0NIMl1bQ0BdMzRbQ0gyXVtDSDJdTihbQ0gyXTQpYzVbY0hdbltjSF1bY0hdbjU=

>  <s_epik_cmdline>  (63) 
J2VwaWtfcHl0aG9uJywgJy1waHQnLCAnMi4wJywgJy1waCcsICc3LjAnLCAnLXRuJywgJzgnLCAnLW1hJywgJzIwMCcsICctaW1hZScsICc8aW5maWxlLm1hZT4nLCAnLW9tYWUnLCAnPG91dGZpbGUubWFlPic=

>  <r_lp_tautomer_probability>  (63) 
1

>  <r_epik_Ionization_Penalty>  (63) 
1.13375

>  <r_epik_Ionization_Penalty_Charging>  (63) 
0

>  <r_epik_Ionization_Penalty_Neutral>  (63) 
1.13375

>  <r_epik_State_Penalty>  (63) 
1.19304

>  <r_epik_Charging_Adjusted_Penalty>  (63) 
1.19304

>  <i_epik_Tot_Q>  (63) 
0

>  <i_epik_Tot_abs_Q>  (63) 
0

>  <s_lp_Force_Field>  (63) 
OPLS3e

>  <r_lp_Energy>  (63) 
32.6709

>  <b_lp_Chiralities_Consistent>  (63) 
1

>  <s_lp_Variant>  (63) 
14:0-2

>  <s_i_glide_gridfile>  (63) 
pfpi4k_grid

>  <i_i_glide_lignum>  (63) 
24

>  <i_i_glide_rotatable_bonds>  (63) 
3

>  <r_i_docking_score>  (63) 
-4.22648

>  <r_i_glide_ligand_efficiency>  (63) 
-0.156536

>  <r_i_glide_ligand_efficiency_sa>  (63) 
-0.469609

>  <r_i_glide_ligand_efficiency_ln>  (63) 
-0.983855

>  <r_i_glide_gscore>  (63) 
-4.22648

>  <r_i_glide_lipo>  (63) 
-0.771703

>  <r_i_glide_hbond>  (63) 
-0.331927

>  <r_i_glide_metal>  (63) 
-0

>  <r_i_glide_rewards>  (63) 
-1.06012

>  <r_i_glide_evdw>  (63) 
-33.0216

>  <r_i_glide_ecoul>  (63) 
-5.05411

>  <r_i_glide_erotb>  (63) 
0.434226

>  <r_i_glide_esite>  (63) 
-0.0877658

>  <r_i_glide_emodel>  (63) 
-46.4723

>  <r_i_glide_energy>  (63) 
-38.0757

>  <r_i_glide_einternal>  (63) 
3.1395

>  <r_i_glide_intrahb_reward>  (63) 
-0

>  <i_i_glide_confnum>  (63) 
6

>  <i_i_glide_posenum>  (63) 
18

>  <r_i_glide_eff_state_penalty>  (63) 
0

>  <ligand_id>  (63) 
14

>  <original_smiles>  (63) 
Cc1c(CN2CCCC3(CCN(c4cnccn4)C3)C2)cnc2ncnn12

>  <smiles>  (63) 
[H]c1nc2nc([H])c(C([H])([H])N3C([H])([H])C([H])([H])C([H])([H])C4(C3([H])[H])C([H])([H])N(c3nc([H])c([H])nc3[H])C([H])([H])C4([H])[H])c(C([H])([H])[H])n2n1

$$$$
14:1:1
     RDKit          3D

 51 55  0  0  1  0  0  0  0  0999 V2000
    3.0722   -9.4242    2.5900 C   0  0  0  0  0  0  0  0  0  0  0  0
    2.1335   -8.3310    2.0833 C   0  0  0  0  0  0  0  0  0  0  0  0
    2.5121   -7.2476    1.3020 C   0  0  0  0  0  0  0  0  0  0  0  0
    3.9504   -6.9693    0.8388 C   0  0  0  0  0  0  0  0  0  0  0  0
    4.5725   -5.8148    1.4865 N   0  0  0  0  0  0  0  0  0  0  0  0
    5.9325   -5.6462    0.9628 C   0  0  0  0  0  0  0  0  0  0  0  0
    6.6258   -4.4570    1.6545 C   0  0  0  0  0  0  0  0  0  0  0  0
    5.8192   -3.1590    1.4742 C   0  0  0  0  0  0  0  0  0  0  0  0
    4.3706   -3.3735    1.9487 C   0  0  1  0  0  0  0  0  0  0  0  0
    4.2686   -3.5027    3.4829 C   0  0  0  0  0  0  0  0  0  0  0  0
    4.1799   -2.0634    3.9653 C   0  0  0  0  0  0  0  0  0  0  0  0
    3.5716   -1.3483    2.8604 N   0  0  0  0  0  0  0  0  0  0  0  0
    3.1109   -0.0291    2.9697 C   0  0  0  0  0  0  0  0  0  0  0  0
    2.3036    0.5649    1.9670 C   0  0  0  0  0  0  0  0  0  0  0  0
    1.8396    1.8290    2.0799 N   0  0  0  0  0  0  0  0  0  0  0  0
    2.2009    2.5101    3.1863 C   0  0  0  0  0  0  0  0  0  0  0  0
    3.0080    1.9286    4.1869 C   0  0  0  0  0  0  0  0  0  0  0  0
    3.4560    0.6573    4.0847 N   0  0  0  0  0  0  0  0  0  0  0  0
    3.5026   -2.1402    1.6505 C   0  0  0  0  0  0  0  0  0  0  0  0
    3.7858   -4.5965    1.2443 C   0  0  0  0  0  0  0  0  0  0  0  0
    1.4684   -6.3899    0.8529 C   0  0  0  0  0  0  0  0  0  0  0  0
    0.1954   -6.4678    1.1820 N   0  0  0  0  0  0  0  0  0  0  0  0
   -0.1441   -7.4862    1.9949 C   0  0  0  0  0  0  0  0  0  0  0  0
   -1.3283   -7.7749    2.5151 N   0  0  0  0  0  0  0  0  0  0  0  0
   -1.0764   -8.9327    3.1833 C   0  0  0  0  0  0  0  0  0  0  0  0
    0.1835   -9.3642    3.1865 N   0  0  0  0  0  0  0  0  0  0  0  0
    0.8075   -8.4239    2.4317 N   0  0  0  0  0  0  0  0  0  0  0  0
    4.0709   -9.3920    2.1593 H   0  0  0  0  0  0  0  0  0  0  0  0
    2.6600  -10.4063    2.3483 H   0  0  0  0  0  0  0  0  0  0  0  0
    3.1715   -9.3487    3.6746 H   0  0  0  0  0  0  0  0  0  0  0  0
    4.5922   -7.8311    1.0206 H   0  0  0  0  0  0  0  0  0  0  0  0
    3.9447   -6.8390   -0.2460 H   0  0  0  0  0  0  0  0  0  0  0  0
    6.5106   -6.5564    1.1306 H   0  0  0  0  0  0  0  0  0  0  0  0
    5.8941   -5.4810   -0.1107 H   0  0  0  0  0  0  0  0  0  0  0  0
    6.7391   -4.6999    2.7117 H   0  0  0  0  0  0  0  0  0  0  0  0
    7.6372   -4.3210    1.2594 H   0  0  0  0  0  0  0  0  0  0  0  0
    6.2770   -2.3187    2.0070 H   0  0  0  0  0  0  0  0  0  0  0  0
    5.8164   -2.8906    0.4137 H   0  0  0  0  0  0  0  0  0  0  0  0
    3.3562   -4.0359    3.7571 H   0  0  0  0  0  0  0  0  0  0  0  0
    5.0882   -4.0415    3.9548 H   0  0  0  0  0  0  0  0  0  0  0  0
    3.5959   -1.9844    4.8826 H   0  0  0  0  0  0  0  0  0  0  0  0
    5.1782   -1.6647    4.1433 H   0  0  0  0  0  0  0  0  0  0  0  0
    2.0169    0.0360    1.0712 H   0  0  0  0  0  0  0  0  0  0  0  0
    1.8447    3.5252    3.2775 H   0  0  0  0  0  0  0  0  0  0  0  0
    3.2908    2.4748    5.0746 H   0  0  0  0  0  0  0  0  0  0  0  0
    3.8395   -1.5920    0.7712 H   0  0  0  0  0  0  0  0  0  0  0  0
    2.4602   -2.4151    1.4772 H   0  0  0  0  0  0  0  0  0  0  0  0
    3.6981   -4.4224    0.1678 H   0  0  0  0  0  0  0  0  0  0  0  0
    2.7929   -4.6983    1.6524 H   0  0  0  0  0  0  0  0  0  0  0  0
    1.7148   -5.5823    0.1558 H   0  0  0  0  0  0  0  0  0  0  0  0
   -1.8623   -9.4644    3.6900 H   0  0  0  0  0  0  0  0  0  0  0  0
  1  2  1  0
  1 28  1  0
  1 29  1  0
  1 30  1  0
  2 27  1  0
  2  3  2  0
  3  4  1  0
  3 21  1  0
  4  5  1  0
  4 31  1  0
  4 32  1  0
  5 20  1  0
  5  6  1  0
  6  7  1  0
  6 33  1  0
  6 34  1  0
  7  8  1  0
  7 35  1  0
  7 36  1  0
  9  8  1  1
  8 37  1  0
  8 38  1  0
  9 19  1  0
  9 10  1  0
  9 20  1  0
 10 11  1  0
 10 39  1  0
 10 40  1  0
 11 12  1  0
 11 41  1  0
 11 42  1  0
 12 13  1  0
 12 19  1  0
 13 18  1  0
 13 14  2  0
 14 15  1  0
 14 43  1  0
 15 16  2  0
 16 17  1  0
 16 44  1  0
 17 18  2  0
 17 45  1  0
 19 46  1  0
 19 47  1  0
 20 48  1  0
 20 49  1  0
 21 22  2  0
 21 50  1  0
 22 23  1  0
 23 27  1  0
 23 24  2  0
 24 25  1  0
 25 26  2  0
 25 51  1  0
 26 27  1  0
M  END
>  <i_m_ct_stereo_status>  (64) 
1

>  <s_m_source_file>  (64) 
/var/tmp/pbs.5076255.sched01/tmpbmel7479/053vx75p8.sdf

>  <i_m_source_file_index>  (64) 
24

>  <i_lp_mmshare_version>  (64) 
48012

>  <i_f3d_flags>  (64) 
0

>  <s_epik_input>  (64) 
bjFbY0hdbm4oYzEyKWMoW0NIM10pYyhbY0hdbjIpW0NIMl1OKFtDSDJdMylbQ0gyXVtDSDJdW0NIMl1bQ0BdMzRbQ0gyXVtDSDJdTihbQ0gyXTQpYzVbY0hdbltjSF1bY0hdbjU=

>  <s_epik_cmdline>  (64) 
J2VwaWtfcHl0aG9uJywgJy1waHQnLCAnMi4wJywgJy1waCcsICc3LjAnLCAnLXRuJywgJzgnLCAnLW1hJywgJzIwMCcsICctaW1hZScsICc8aW5maWxlLm1hZT4nLCAnLW9tYWUnLCAnPG91dGZpbGUubWFlPic=

>  <r_lp_tautomer_probability>  (64) 
1

>  <r_epik_Ionization_Penalty>  (64) 
1.13375

>  <r_epik_Ionization_Penalty_Charging>  (64) 
0

>  <r_epik_Ionization_Penalty_Neutral>  (64) 
1.13375

>  <r_epik_State_Penalty>  (64) 
1.19304

>  <r_epik_Charging_Adjusted_Penalty>  (64) 
1.19304

>  <i_epik_Tot_Q>  (64) 
0

>  <i_epik_Tot_abs_Q>  (64) 
0

>  <s_lp_Force_Field>  (64) 
OPLS3e

>  <r_lp_Energy>  (64) 
32.6709

>  <b_lp_Chiralities_Consistent>  (64) 
1

>  <s_lp_Variant>  (64) 
14:0-2

>  <s_i_glide_gridfile>  (64) 
pfpi4k_grid

>  <i_i_glide_lignum>  (64) 
24

>  <i_i_glide_rotatable_bonds>  (64) 
3

>  <r_i_docking_score>  (64) 
-3.46235

>  <r_i_glide_ligand_efficiency>  (64) 
-0.128235

>  <r_i_glide_ligand_efficiency_sa>  (64) 
-0.384706

>  <r_i_glide_ligand_efficiency_ln>  (64) 
-0.805979

>  <r_i_glide_gscore>  (64) 
-3.46235

>  <r_i_glide_lipo>  (64) 
-0.398682

>  <r_i_glide_hbond>  (64) 
-0.166806

>  <r_i_glide_metal>  (64) 
-0

>  <r_i_glide_rewards>  (64) 
-0.924222

>  <r_i_glide_evdw>  (64) 
-27.3811

>  <r_i_glide_ecoul>  (64) 
-5.83387

>  <r_i_glide_erotb>  (64) 
0.434226

>  <r_i_glide_esite>  (64) 
-0.162733

>  <r_i_glide_emodel>  (64) 
-39.7085

>  <r_i_glide_energy>  (64) 
-33.215

>  <r_i_glide_einternal>  (64) 
2.18996

>  <r_i_glide_intrahb_reward>  (64) 
-0

>  <i_i_glide_confnum>  (64) 
2

>  <i_i_glide_posenum>  (64) 
2

>  <r_i_glide_eff_state_penalty>  (64) 
0

>  <ligand_id>  (64) 
14

>  <original_smiles>  (64) 
Cc1c(CN2CCCC3(CCN(c4cnccn4)C3)C2)cnc2ncnn12

>  <smiles>  (64) 
[H]c1nc2nc([H])c(C([H])([H])N3C([H])([H])C([H])([H])C([H])([H])C4(C3([H])[H])C([H])([H])N(c3nc([H])c([H])nc3[H])C([H])([H])C4([H])[H])c(C([H])([H])[H])n2n1

$$$$
14:1:2
     RDKit          3D

 51 55  0  0  1  0  0  0  0  0999 V2000
    3.4587   -9.1855    2.6352 C   0  0  0  0  0  0  0  0  0  0  0  0
    2.4210   -8.1769    2.1355 C   0  0  0  0  0  0  0  0  0  0  0  0
    2.6852   -7.1117    1.2891 C   0  0  0  0  0  0  0  0  0  0  0  0
    4.0798   -6.7702    0.7333 C   0  0  0  0  0  0  0  0  0  0  0  0
    4.6876   -5.5856    1.3420 N   0  0  0  0  0  0  0  0  0  0  0  0
    5.9906   -5.3479    0.7173 C   0  0  0  0  0  0  0  0  0  0  0  0
    6.6772   -4.1286    1.3555 C   0  0  0  0  0  0  0  0  0  0  0  0
    5.7935   -2.8719    1.2434 C   0  0  0  0  0  0  0  0  0  0  0  0
    4.3997   -3.1584    1.8242 C   0  0  1  0  0  0  0  0  0  0  0  0
    4.4229   -3.2888    3.3632 C   0  0  0  0  0  0  0  0  0  0  0  0
    4.3005   -1.8543    3.8543 C   0  0  0  0  0  0  0  0  0  0  0  0
    3.5725   -1.1702    2.8025 N   0  0  0  0  0  0  0  0  0  0  0  0
    3.0660    0.1275    2.9236 C   0  0  0  0  0  0  0  0  0  0  0  0
    3.3956    0.9510    4.0289 C   0  0  0  0  0  0  0  0  0  0  0  0
    2.9102    2.2034    4.1617 N   0  0  0  0  0  0  0  0  0  0  0  0
    2.0891    2.6413    3.1812 C   0  0  0  0  0  0  0  0  0  0  0  0
    1.7522    1.8270    2.0808 C   0  0  0  0  0  0  0  0  0  0  0  0
    2.2414    0.5783    1.9471 N   0  0  0  0  0  0  0  0  0  0  0  0
    3.4511   -1.9697    1.5982 C   0  0  0  0  0  0  0  0  0  0  0  0
    3.8294   -4.4074    1.1595 C   0  0  0  0  0  0  0  0  0  0  0  0
    1.5712   -6.3250    0.8813 C   0  0  0  0  0  0  0  0  0  0  0  0
    0.3206   -6.4745    1.2886 N   0  0  0  0  0  0  0  0  0  0  0  0
    0.0922   -7.4699    2.1556 C   0  0  0  0  0  0  0  0  0  0  0  0
   -1.0417   -7.8051    2.7678 N   0  0  0  0  0  0  0  0  0  0  0  0
   -0.6683   -8.9139    3.4783 C   0  0  0  0  0  0  0  0  0  0  0  0
    0.6134   -9.2697    3.4089 N   0  0  0  0  0  0  0  0  0  0  0  0
    1.1244   -8.3351    2.5659 N   0  0  0  0  0  0  0  0  0  0  0  0
    4.4280   -9.1108    2.1442 H   0  0  0  0  0  0  0  0  0  0  0  0
    3.0974  -10.2044    2.4625 H   0  0  0  0  0  0  0  0  0  0  0  0
    3.6174   -9.0541    3.7091 H   0  0  0  0  0  0  0  0  0  0  0  0
    4.7634   -7.6047    0.8698 H   0  0  0  0  0  0  0  0  0  0  0  0
    3.9907   -6.6412   -0.3452 H   0  0  0  0  0  0  0  0  0  0  0  0
    6.6257   -6.2270    0.8352 H   0  0  0  0  0  0  0  0  0  0  0  0
    5.8613   -5.1828   -0.3504 H   0  0  0  0  0  0  0  0  0  0  0  0
    6.8826   -4.3680    2.3982 H   0  0  0  0  0  0  0  0  0  0  0  0
    7.6440   -3.9390    0.8853 H   0  0  0  0  0  0  0  0  0  0  0  0
    6.2506   -2.0151    1.7432 H   0  0  0  0  0  0  0  0  0  0  0  0
    5.6957   -2.6033    0.1892 H   0  0  0  0  0  0  0  0  0  0  0  0
    3.5642   -3.8680    3.7064 H   0  0  0  0  0  0  0  0  0  0  0  0
    5.3062   -3.7846    3.7638 H   0  0  0  0  0  0  0  0  0  0  0  0
    3.7883   -1.8061    4.8141 H   0  0  0  0  0  0  0  0  0  0  0  0
    5.2885   -1.4086    3.9544 H   0  0  0  0  0  0  0  0  0  0  0  0
    4.0582    0.6095    4.8108 H   0  0  0  0  0  0  0  0  0  0  0  0
    1.7024    3.6437    3.2760 H   0  0  0  0  0  0  0  0  0  0  0  0
    1.0862    2.1753    1.3070 H   0  0  0  0  0  0  0  0  0  0  0  0
    3.6958   -1.4053    0.6982 H   0  0  0  0  0  0  0  0  0  0  0  0
    2.4131   -2.2910    1.5017 H   0  0  0  0  0  0  0  0  0  0  0  0
    3.6511   -4.2388    0.0927 H   0  0  0  0  0  0  0  0  0  0  0  0
    2.8714   -4.5554    1.6485 H   0  0  0  0  0  0  0  0  0  0  0  0
    1.7234   -5.5275    0.1466 H   0  0  0  0  0  0  0  0  0  0  0  0
   -1.3704   -9.4622    4.0748 H   0  0  0  0  0  0  0  0  0  0  0  0
  1  2  1  0
  1 28  1  0
  1 29  1  0
  1 30  1  0
  2 27  1  0
  2  3  2  0
  3  4  1  0
  3 21  1  0
  4  5  1  0
  4 31  1  0
  4 32  1  0
  5 20  1  0
  5  6  1  0
  6  7  1  0
  6 33  1  0
  6 34  1  0
  7  8  1  0
  7 35  1  0
  7 36  1  0
  9  8  1  6
  8 37  1  0
  8 38  1  0
  9 19  1  0
  9 10  1  0
  9 20  1  0
 10 11  1  0
 10 39  1  0
 10 40  1  0
 11 12  1  0
 11 41  1  0
 11 42  1  0
 12 13  1  0
 12 19  1  0
 13 18  1  0
 13 14  2  0
 14 15  1  0
 14 43  1  0
 15 16  2  0
 16 17  1  0
 16 44  1  0
 17 18  2  0
 17 45  1  0
 19 46  1  0
 19 47  1  0
 20 48  1  0
 20 49  1  0
 21 22  2  0
 21 50  1  0
 22 23  1  0
 23 27  1  0
 23 24  2  0
 24 25  1  0
 25 26  2  0
 25 51  1  0
 26 27  1  0
M  END
>  <i_m_ct_stereo_status>  (65) 
1

>  <s_m_source_file>  (65) 
/var/tmp/pbs.5076255.sched01/tmpbmel7479/053vx75p8.sdf

>  <i_m_source_file_index>  (65) 
24

>  <i_lp_mmshare_version>  (65) 
48012

>  <i_f3d_flags>  (65) 
0

>  <s_epik_input>  (65) 
bjFbY0hdbm4oYzEyKWMoW0NIM10pYyhbY0hdbjIpW0NIMl1OKFtDSDJdMylbQ0gyXVtDSDJdW0NIMl1bQ0BdMzRbQ0gyXVtDSDJdTihbQ0gyXTQpYzVbY0hdbltjSF1bY0hdbjU=

>  <s_epik_cmdline>  (65) 
J2VwaWtfcHl0aG9uJywgJy1waHQnLCAnMi4wJywgJy1waCcsICc3LjAnLCAnLXRuJywgJzgnLCAnLW1hJywgJzIwMCcsICctaW1hZScsICc8aW5maWxlLm1hZT4nLCAnLW9tYWUnLCAnPG91dGZpbGUubWFlPic=

>  <r_lp_tautomer_probability>  (65) 
1

>  <r_epik_Ionization_Penalty>  (65) 
1.13375

>  <r_epik_Ionization_Penalty_Charging>  (65) 
0

>  <r_epik_Ionization_Penalty_Neutral>  (65) 
1.13375

>  <r_epik_State_Penalty>  (65) 
1.19304

>  <r_epik_Charging_Adjusted_Penalty>  (65) 
1.19304

>  <i_epik_Tot_Q>  (65) 
0

>  <i_epik_Tot_abs_Q>  (65) 
0

>  <s_lp_Force_Field>  (65) 
OPLS3e

>  <r_lp_Energy>  (65) 
32.6709

>  <b_lp_Chiralities_Consistent>  (65) 
1

>  <s_lp_Variant>  (65) 
14:0-2

>  <s_i_glide_gridfile>  (65) 
pfpi4k_grid

>  <i_i_glide_lignum>  (65) 
24

>  <i_i_glide_rotatable_bonds>  (65) 
3

>  <r_i_docking_score>  (65) 
-3.41915

>  <r_i_glide_ligand_efficiency>  (65) 
-0.126635

>  <r_i_glide_ligand_efficiency_sa>  (65) 
-0.379906

>  <r_i_glide_ligand_efficiency_ln>  (65) 
-0.795923

>  <r_i_glide_gscore>  (65) 
-3.41915

>  <r_i_glide_lipo>  (65) 
-0.495572

>  <r_i_glide_hbond>  (65) 
-0.16

>  <r_i_glide_metal>  (65) 
-0

>  <r_i_glide_rewards>  (65) 
-0.924339

>  <r_i_glide_evdw>  (65) 
-26.9716

>  <r_i_glide_ecoul>  (65) 
-5.11489

>  <r_i_glide_erotb>  (65) 
0.434226

>  <r_i_glide_esite>  (65) 
-0.157658

>  <r_i_glide_emodel>  (65) 
-38.9753

>  <r_i_glide_energy>  (65) 
-32.0864

>  <r_i_glide_einternal>  (65) 
1.97623

>  <r_i_glide_intrahb_reward>  (65) 
-0

>  <i_i_glide_confnum>  (65) 
1

>  <i_i_glide_posenum>  (65) 
12

>  <r_i_glide_eff_state_penalty>  (65) 
0

>  <ligand_id>  (65) 
14

>  <original_smiles>  (65) 
Cc1c(CN2CCCC3(CCN(c4cnccn4)C3)C2)cnc2ncnn12

>  <smiles>  (65) 
[H]c1nc2nc([H])c(C([H])([H])N3C([H])([H])C([H])([H])C([H])([H])C4(C3([H])[H])C([H])([H])N(c3nc([H])c([H])nc3[H])C([H])([H])C4([H])[H])c(C([H])([H])[H])n2n1

$$$$
15:0:0
     RDKit          3D

 41 44  0  0  1  0  0  0  0  0999 V2000
    2.6037   -3.0430    2.9465 C   0  0  0  0  0  0  0  0  0  0  0  0
    3.3948   -3.0837    1.8583 C   0  0  0  0  0  0  0  0  0  0  0  0
    4.3378   -4.1509    1.6067 C   0  0  0  0  0  0  0  0  0  0  0  0
    4.5961   -5.0463    2.4060 O   0  0  0  0  0  0  0  0  0  0  0  0
    4.8514   -4.1143    0.1560 C   0  0  1  0  0  0  0  0  0  0  0  0
    4.7677   -5.5632   -0.3750 C   0  0  0  0  0  0  0  0  0  0  0  0
    3.8274   -3.1446   -0.5324 C   0  0  1  0  0  0  0  0  0  0  0  0
    3.3370   -2.2206    0.6341 C   0  0  2  0  0  0  0  0  0  0  0  0
    4.1461   -0.9347    0.9207 C   0  0  0  0  0  0  0  0  0  0  0  0
    5.6831   -1.0524    0.9487 C   0  0  0  0  0  0  0  0  0  0  0  0
    6.3617   -1.9380   -0.1193 C   0  0  2  0  0  0  0  0  0  0  0  0
    5.8592   -2.1219   -1.5654 C   0  0  1  0  0  0  0  0  0  0  0  0
    6.7431   -3.3566   -1.5100 C   0  0  0  0  0  0  0  0  0  0  0  0
    6.2997   -3.4916   -0.0376 C   0  0  2  0  0  0  0  0  0  0  0  0
    7.4668   -4.0983    0.8068 C   0  0  0  0  0  0  0  0  0  0  0  0
    8.5745   -3.5230    0.7768 O   0  0  0  0  0  0  0  0  0  0  0  0
    7.3003   -5.1623    1.4411 O   0  0  0  0  0  0  0  0  0  0  0  0
    4.3597   -2.3908   -1.8127 C   0  0  0  0  0  0  0  0  0  0  0  0
    4.1262   -3.2411   -3.0776 C   0  0  0  0  0  0  0  0  0  0  0  0
    3.6555   -1.0598   -2.1632 C   0  0  0  0  0  0  0  0  0  0  0  0
    1.8501   -2.2864    3.0641 H   0  0  0  0  0  0  0  0  0  0  0  0
    2.7017   -3.7856    3.7206 H   0  0  0  0  0  0  0  0  0  0  0  0
    4.9887   -5.6213   -1.4318 H   0  0  0  0  0  0  0  0  0  0  0  0
    3.7742   -5.9748   -0.2316 H   0  0  0  0  0  0  0  0  0  0  0  0
    5.4700   -6.2363    0.1057 H   0  0  0  0  0  0  0  0  0  0  0  0
    2.9562   -3.7233   -0.8467 H   0  0  0  0  0  0  0  0  0  0  0  0
    2.2878   -1.9467    0.4896 H   0  0  0  0  0  0  0  0  0  0  0  0
    3.8376   -0.1402    0.2507 H   0  0  0  0  0  0  0  0  0  0  0  0
    3.8341   -0.5512    1.8948 H   0  0  0  0  0  0  0  0  0  0  0  0
    6.0859   -0.0418    0.8792 H   0  0  0  0  0  0  0  0  0  0  0  0
    5.9902   -1.4077    1.9358 H   0  0  0  0  0  0  0  0  0  0  0  0
    7.4102   -1.6100   -0.1627 H   0  0  0  0  0  0  0  0  0  0  0  0
    6.2611   -1.4213   -2.2829 H   0  0  0  0  0  0  0  0  0  0  0  0
    6.4033   -4.1238   -2.1796 H   0  0  0  0  0  0  0  0  0  0  0  0
    7.8227   -3.1562   -1.6671 H   0  0  0  0  0  0  0  0  0  0  0  0
    4.6340   -2.8263   -3.9486 H   0  0  0  0  0  0  0  0  0  0  0  0
    3.0617   -3.2922   -3.3137 H   0  0  0  0  0  0  0  0  0  0  0  0
    4.4542   -4.2673   -2.9870 H   0  0  0  0  0  0  0  0  0  0  0  0
    3.6060   -0.8847   -3.2379 H   0  0  0  0  0  0  0  0  0  0  0  0
    4.2155   -0.2133   -1.7825 H   0  0  0  0  0  0  0  0  0  0  0  0
    2.6139   -1.0410   -1.8131 H   0  0  0  0  0  0  0  0  0  0  0  0
  1  2  2  0
  1 21  1  0
  1 22  1  0
  2  8  1  0
  2  3  1  0
  3  4  2  0
  3  5  1  0
  5 14  1  0
  5  6  1  6
  5  7  1  0
  6 23  1  0
  6 24  1  0
  6 25  1  0
  7 18  1  0
  7  8  1  0
  7 26  1  6
  8  9  1  0
  8 27  1  6
  9 10  1  0
  9 28  1  0
  9 29  1  0
 10 11  1  0
 10 30  1  0
 10 31  1  0
 11 14  1  0
 11 12  1  0
 11 32  1  6
 12 13  1  0
 12 18  1  0
 12 33  1  6
 13 14  1  0
 13 34  1  0
 13 35  1  0
 14 15  1  1
 15 16  2  0
 15 17  1  0
 18 19  1  0
 18 20  1  0
 19 36  1  0
 19 37  1  0
 19 38  1  0
 20 39  1  0
 20 40  1  0
 20 41  1  0
M  CHG  1  17  -1
M  END
>  <i_m_ct_stereo_status>  (66) 
1

>  <s_m_source_file>  (66) 
/var/tmp/pbs.5076255.sched01/tmpbmel7479/053vx75p8.sdf

>  <i_m_source_file_index>  (66) 
25

>  <i_lp_mmshare_version>  (66) 
48012

>  <i_f3d_flags>  (66) 
0

>  <s_epik_input>  (66) 
Tz1DMUMoPVtDSDJdKVtDQEhdKFtDQEBIXTJbQ0BdMTNbQ0gzXSlbQ0gyXVtDSDJdW0NAQEhdNFtDQEhdKEMyKFtDSDNdKVtDSDNdKVtDSDJdW0NAXTM0Qyg9TylbT0hd

>  <s_epik_cmdline>  (66) 
J2VwaWtfcHl0aG9uJywgJy1waHQnLCAnMi4wJywgJy1waCcsICc3LjAnLCAnLXRuJywgJzgnLCAnLW1hJywgJzIwMCcsICctaW1hZScsICc8aW5maWxlLm1hZT4nLCAnLW9tYWUnLCAnPG91dGZpbGUubWFlPic=

>  <r_epik_Ionization_Penalty>  (66) 
0.00447693

>  <r_epik_Ionization_Penalty_Charging>  (66) 
0.00447693

>  <r_epik_Ionization_Penalty_Neutral>  (66) 
0

>  <r_epik_State_Penalty>  (66) 
0.00323016

>  <r_epik_Charging_Adjusted_Penalty>  (66) 
0.00770709

>  <i_epik_Tot_Q>  (66) 
-1

>  <i_epik_Tot_abs_Q>  (66) 
1

>  <s_lp_Force_Field>  (66) 
OPLS3e

>  <r_lp_Energy>  (66) 
61.0401

>  <b_lp_Chiralities_Consistent>  (66) 
1

>  <s_lp_Variant>  (66) 
15:0-1

>  <s_i_glide_gridfile>  (66) 
pfpi4k_grid

>  <i_i_glide_lignum>  (66) 
25

>  <i_i_glide_rotatable_bonds>  (66) 
1

>  <r_i_docking_score>  (66) 
-3.40979

>  <r_i_glide_ligand_efficiency>  (66) 
-0.17049

>  <r_i_glide_ligand_efficiency_sa>  (66) 
-0.46278

>  <r_i_glide_ligand_efficiency_ln>  (66) 
-0.853358

>  <r_i_glide_gscore>  (66) 
-3.40979

>  <r_i_glide_lipo>  (66) 
-0.496129

>  <r_i_glide_hbond>  (66) 
0

>  <r_i_glide_metal>  (66) 
-0

>  <r_i_glide_rewards>  (66) 
-1.75178

>  <r_i_glide_evdw>  (66) 
-20.5826

>  <r_i_glide_ecoul>  (66) 
-0.885028

>  <r_i_glide_erotb>  (66) 
0

>  <r_i_glide_esite>  (66) 
0

>  <r_i_glide_emodel>  (66) 
-26.1417

>  <r_i_glide_energy>  (66) 
-21.4676

>  <r_i_glide_einternal>  (66) 
1.7251

>  <r_i_glide_intrahb_reward>  (66) 
-0

>  <i_i_glide_confnum>  (66) 
1

>  <i_i_glide_posenum>  (66) 
2

>  <r_i_glide_eff_state_penalty>  (66) 
0

>  <ligand_id>  (66) 
15

>  <original_smiles>  (66) 
C=C1C(=O)C2(C)C3C1CCC1C(CC12C(=O)O)C3(C)C

>  <smiles>  (66) 
[H]C([H])=C1C(=O)C2(C([H])([H])[H])C3([H])C1([H])C([H])([H])C([H])([H])C1([H])C([H])(C([H])([H])C12C(=O)[O-])C3(C([H])([H])[H])C([H])([H])[H]

$$$$
15:0:1
     RDKit          3D

 41 44  0  0  1  0  0  0  0  0999 V2000
    2.8605   -6.0661    0.9742 C   0  0  0  0  0  0  0  0  0  0  0  0
    3.1816   -4.7689    1.1304 C   0  0  0  0  0  0  0  0  0  0  0  0
    4.0132   -4.0257    0.2006 C   0  0  0  0  0  0  0  0  0  0  0  0
    4.6620   -4.5062   -0.7259 O   0  0  0  0  0  0  0  0  0  0  0  0
    3.9276   -2.5139    0.4769 C   0  0  1  0  0  0  0  0  0  0  0  0
    3.6723   -1.8359   -0.8905 C   0  0  0  0  0  0  0  0  0  0  0  0
    2.7079   -2.4182    1.4709 C   0  0  1  0  0  0  0  0  0  0  0  0
    2.6669   -3.8146    2.1701 C   0  0  2  0  0  0  0  0  0  0  0  0
    3.5064   -3.9886    3.4568 C   0  0  0  0  0  0  0  0  0  0  0  0
    4.9460   -3.4258    3.4424 C   0  0  0  0  0  0  0  0  0  0  0  0
    5.2060   -2.0675    2.7573 C   0  0  2  0  0  0  0  0  0  0  0  0
    4.2110   -0.8727    2.7378 C   0  0  1  0  0  0  0  0  0  0  0  0
    5.0711   -0.4161    1.5460 C   0  0  0  0  0  0  0  0  0  0  0  0
    5.1725   -1.9166    1.2080 C   0  0  2  0  0  0  0  0  0  0  0  0
    6.5285   -2.2555    0.5452 C   0  0  0  0  0  0  0  0  0  0  0  0
    7.1105   -3.3008    0.9141 O   0  0  0  0  0  0  0  0  0  0  0  0
    6.9715   -1.4693   -0.3209 O   0  0  0  0  0  0  0  0  0  0  0  0
    2.7281   -1.1660    2.4287 C   0  0  0  0  0  0  0  0  0  0  0  0
    2.0496    0.0381    1.7265 C   0  0  0  0  0  0  0  0  0  0  0  0
    1.9103   -1.3254    3.7377 C   0  0  0  0  0  0  0  0  0  0  0  0
    2.1960   -6.5693    1.6565 H   0  0  0  0  0  0  0  0  0  0  0  0
    3.2527   -6.6366    0.1487 H   0  0  0  0  0  0  0  0  0  0  0  0
    3.4610   -0.7770   -0.8136 H   0  0  0  0  0  0  0  0  0  0  0  0
    2.8173   -2.2846   -1.3946 H   0  0  0  0  0  0  0  0  0  0  0  0
    4.5275   -1.9324   -1.5582 H   0  0  0  0  0  0  0  0  0  0  0  0
    1.8029   -2.3563    0.8678 H   0  0  0  0  0  0  0  0  0  0  0  0
    1.6327   -4.0765    2.4006 H   0  0  0  0  0  0  0  0  0  0  0  0
    2.9647   -3.6113    4.3159 H   0  0  0  0  0  0  0  0  0  0  0  0
    3.5728   -5.0559    3.6772 H   0  0  0  0  0  0  0  0  0  0  0  0
    5.2844   -3.3811    4.4777 H   0  0  0  0  0  0  0  0  0  0  0  0
    5.5917   -4.1721    2.9791 H   0  0  0  0  0  0  0  0  0  0  0  0
    6.1695   -1.7039    3.1341 H   0  0  0  0  0  0  0  0  0  0  0  0
    4.3464   -0.2024    3.5852 H   0  0  0  0  0  0  0  0  0  0  0  0
    4.5777    0.2030    0.8027 H   0  0  0  0  0  0  0  0  0  0  0  0
    6.0076    0.0575    1.8478 H   0  0  0  0  0  0  0  0  0  0  0  0
    2.2005    0.9657    2.2804 H   0  0  0  0  0  0  0  0  0  0  0  0
    0.9726   -0.1209    1.6411 H   0  0  0  0  0  0  0  0  0  0  0  0
    2.3990    0.2096    0.7150 H   0  0  0  0  0  0  0  0  0  0  0  0
    1.4669   -0.3823    4.0545 H   0  0  0  0  0  0  0  0  0  0  0  0
    2.5298   -1.6193    4.5808 H   0  0  0  0  0  0  0  0  0  0  0  0
    1.0903   -2.0337    3.6274 H   0  0  0  0  0  0  0  0  0  0  0  0
  1  2  2  0
  1 21  1  0
  1 22  1  0
  2  8  1  0
  2  3  1  0
  3  4  2  0
  3  5  1  0
  5 14  1  0
  5  6  1  6
  5  7  1  0
  6 23  1  0
  6 24  1  0
  6 25  1  0
  7 18  1  0
  7  8  1  0
  7 26  1  6
  8  9  1  0
  8 27  1  1
  9 10  1  0
  9 28  1  0
  9 29  1  0
 10 11  1  0
 10 30  1  0
 10 31  1  0
 11 14  1  0
 11 12  1  0
 11 32  1  1
 12 13  1  0
 12 18  1  0
 12 33  1  1
 13 14  1  0
 13 34  1  0
 13 35  1  0
 14 15  1  6
 15 16  2  0
 15 17  1  0
 18 19  1  0
 18 20  1  0
 19 36  1  0
 19 37  1  0
 19 38  1  0
 20 39  1  0
 20 40  1  0
 20 41  1  0
M  CHG  1  17  -1
M  END
>  <i_m_ct_stereo_status>  (67) 
1

>  <s_m_source_file>  (67) 
/var/tmp/pbs.5076255.sched01/tmpbmel7479/053vx75p8.sdf

>  <i_m_source_file_index>  (67) 
25

>  <i_lp_mmshare_version>  (67) 
48012

>  <i_f3d_flags>  (67) 
0

>  <s_epik_input>  (67) 
Tz1DMUMoPVtDSDJdKVtDQEhdKFtDQEBIXTJbQ0BdMTNbQ0gzXSlbQ0gyXVtDSDJdW0NAQEhdNFtDQEhdKEMyKFtDSDNdKVtDSDNdKVtDSDJdW0NAXTM0Qyg9TylbT0hd

>  <s_epik_cmdline>  (67) 
J2VwaWtfcHl0aG9uJywgJy1waHQnLCAnMi4wJywgJy1waCcsICc3LjAnLCAnLXRuJywgJzgnLCAnLW1hJywgJzIwMCcsICctaW1hZScsICc8aW5maWxlLm1hZT4nLCAnLW9tYWUnLCAnPG91dGZpbGUubWFlPic=

>  <r_epik_Ionization_Penalty>  (67) 
0.00447693

>  <r_epik_Ionization_Penalty_Charging>  (67) 
0.00447693

>  <r_epik_Ionization_Penalty_Neutral>  (67) 
0

>  <r_epik_State_Penalty>  (67) 
0.00323016

>  <r_epik_Charging_Adjusted_Penalty>  (67) 
0.00770709

>  <i_epik_Tot_Q>  (67) 
-1

>  <i_epik_Tot_abs_Q>  (67) 
1

>  <s_lp_Force_Field>  (67) 
OPLS3e

>  <r_lp_Energy>  (67) 
61.0401

>  <b_lp_Chiralities_Consistent>  (67) 
1

>  <s_lp_Variant>  (67) 
15:0-1

>  <s_i_glide_gridfile>  (67) 
pfpi4k_grid

>  <i_i_glide_lignum>  (67) 
25

>  <i_i_glide_rotatable_bonds>  (67) 
1

>  <r_i_docking_score>  (67) 
-3.38701

>  <r_i_glide_ligand_efficiency>  (67) 
-0.16935

>  <r_i_glide_ligand_efficiency_sa>  (67) 
-0.459688

>  <r_i_glide_ligand_efficiency_ln>  (67) 
-0.847656

>  <r_i_glide_gscore>  (67) 
-3.38701

>  <r_i_glide_lipo>  (67) 
-0.376826

>  <r_i_glide_hbond>  (67) 
-0.151053

>  <r_i_glide_metal>  (67) 
-0

>  <r_i_glide_rewards>  (67) 
-1.66091

>  <r_i_glide_evdw>  (67) 
-18.4866

>  <r_i_glide_ecoul>  (67) 
-1.82595

>  <r_i_glide_erotb>  (67) 
0

>  <r_i_glide_esite>  (67) 
0

>  <r_i_glide_emodel>  (67) 
-26.026

>  <r_i_glide_energy>  (67) 
-20.3125

>  <r_i_glide_einternal>  (67) 
0.108403

>  <r_i_glide_intrahb_reward>  (67) 
-0

>  <i_i_glide_confnum>  (67) 
1

>  <i_i_glide_posenum>  (67) 
27

>  <r_i_glide_eff_state_penalty>  (67) 
0

>  <ligand_id>  (67) 
15

>  <original_smiles>  (67) 
C=C1C(=O)C2(C)C3C1CCC1C(CC12C(=O)O)C3(C)C

>  <smiles>  (67) 
[H]C([H])=C1C(=O)C2(C([H])([H])[H])C3([H])C1([H])C([H])([H])C([H])([H])C1([H])C([H])(C([H])([H])C12C(=O)[O-])C3(C([H])([H])[H])C([H])([H])[H]

$$$$
15:0:2
     RDKit          3D

 41 44  0  0  1  0  0  0  0  0999 V2000
    2.7897   -2.6857   -2.8854 C   0  0  0  0  0  0  0  0  0  0  0  0
    3.4448   -2.9245   -1.7398 C   0  0  0  0  0  0  0  0  0  0  0  0
    2.9600   -3.8278   -0.7090 C   0  0  0  0  0  0  0  0  0  0  0  0
    1.8354   -4.3405   -0.7013 O   0  0  0  0  0  0  0  0  0  0  0  0
    4.0710   -4.1380    0.3172 C   0  0  1  0  0  0  0  0  0  0  0  0
    4.1318   -5.6824    0.4829 C   0  0  0  0  0  0  0  0  0  0  0  0
    5.3602   -3.5706   -0.4010 C   0  0  1  0  0  0  0  0  0  0  0  0
    4.8192   -2.4545   -1.3465 C   0  0  2  0  0  0  0  0  0  0  0  0
    4.6985   -1.0281   -0.7664 C   0  0  0  0  0  0  0  0  0  0  0  0
    4.0835   -0.8812    0.6433 C   0  0  0  0  0  0  0  0  0  0  0  0
    4.4695   -1.9102    1.7267 C   0  0  2  0  0  0  0  0  0  0  0  0
    5.8519   -2.5897    1.8537 C   0  0  1  0  0  0  0  0  0  0  0  0
    5.0625   -3.6101    2.6959 C   0  0  0  0  0  0  0  0  0  0  0  0
    3.9167   -3.3703    1.6900 C   0  0  2  0  0  0  0  0  0  0  0  0
    2.5354   -3.5075    2.3974 C   0  0  0  0  0  0  0  0  0  0  0  0
    2.0770   -2.5010    2.9825 O   0  0  0  0  0  0  0  0  0  0  0  0
    1.9636   -4.6207    2.3809 O   0  0  0  0  0  0  0  0  0  0  0  0
    6.5231   -3.1395    0.5734 C   0  0  0  0  0  0  0  0  0  0  0  0
    7.4330   -4.3579    0.8766 C   0  0  0  0  0  0  0  0  0  0  0  0
    7.5203   -2.0980   -0.0028 C   0  0  0  0  0  0  0  0  0  0  0  0
    3.2034   -2.0561   -3.6570 H   0  0  0  0  0  0  0  0  0  0  0  0
    1.8294   -3.1381   -3.0801 H   0  0  0  0  0  0  0  0  0  0  0  0
    4.9531   -6.0253    1.1002 H   0  0  0  0  0  0  0  0  0  0  0  0
    4.2289   -6.1740   -0.4838 H   0  0  0  0  0  0  0  0  0  0  0  0
    3.2312   -6.0857    0.9409 H   0  0  0  0  0  0  0  0  0  0  0  0
    5.7520   -4.3492   -1.0599 H   0  0  0  0  0  0  0  0  0  0  0  0
    5.4308   -2.4077   -2.2510 H   0  0  0  0  0  0  0  0  0  0  0  0
    5.6501   -0.5141   -0.8094 H   0  0  0  0  0  0  0  0  0  0  0  0
    4.0892   -0.4380   -1.4515 H   0  0  0  0  0  0  0  0  0  0  0  0
    4.3225    0.1229    0.9983 H   0  0  0  0  0  0  0  0  0  0  0  0
    2.9960   -0.8771    0.5458 H   0  0  0  0  0  0  0  0  0  0  0  0
    4.2553   -1.4365    2.6927 H   0  0  0  0  0  0  0  0  0  0  0  0
    6.5368   -2.0084    2.4695 H   0  0  0  0  0  0  0  0  0  0  0  0
    5.4688   -4.6181    2.7266 H   0  0  0  0  0  0  0  0  0  0  0  0
    4.8688   -3.2703    3.7178 H   0  0  0  0  0  0  0  0  0  0  0  0
    8.1442   -4.1354    1.6727 H   0  0  0  0  0  0  0  0  0  0  0  0
    8.0107   -4.6364   -0.0069 H   0  0  0  0  0  0  0  0  0  0  0  0
    6.8942   -5.2479    1.1763 H   0  0  0  0  0  0  0  0  0  0  0  0
    8.5358   -2.2467    0.3658 H   0  0  0  0  0  0  0  0  0  0  0  0
    7.2830   -1.0809    0.3017 H   0  0  0  0  0  0  0  0  0  0  0  0
    7.5786   -2.1580   -1.0877 H   0  0  0  0  0  0  0  0  0  0  0  0
  1  2  2  0
  1 21  1  0
  1 22  1  0
  2  8  1  0
  2  3  1  0
  3  4  2  0
  3  5  1  0
  5 14  1  0
  5  6  1  1
  5  7  1  0
  6 23  1  0
  6 24  1  0
  6 25  1  0
  7 18  1  0
  7  8  1  0
  7 26  1  6
  8  9  1  0
  8 27  1  6
  9 10  1  0
  9 28  1  0
  9 29  1  0
 10 11  1  0
 10 30  1  0
 10 31  1  0
 11 14  1  0
 11 12  1  0
 11 32  1  1
 12 13  1  0
 12 18  1  0
 12 33  1  1
 13 14  1  0
 13 34  1  0
 13 35  1  0
 14 15  1  1
 15 16  2  0
 15 17  1  0
 18 19  1  0
 18 20  1  0
 19 36  1  0
 19 37  1  0
 19 38  1  0
 20 39  1  0
 20 40  1  0
 20 41  1  0
M  CHG  1  17  -1
M  END
>  <i_m_ct_stereo_status>  (68) 
1

>  <s_m_source_file>  (68) 
/var/tmp/pbs.5076255.sched01/tmpbmel7479/053vx75p8.sdf

>  <i_m_source_file_index>  (68) 
25

>  <i_lp_mmshare_version>  (68) 
48012

>  <i_f3d_flags>  (68) 
0

>  <s_epik_input>  (68) 
Tz1DMUMoPVtDSDJdKVtDQEhdKFtDQEBIXTJbQ0BdMTNbQ0gzXSlbQ0gyXVtDSDJdW0NAQEhdNFtDQEhdKEMyKFtDSDNdKVtDSDNdKVtDSDJdW0NAXTM0Qyg9TylbT0hd

>  <s_epik_cmdline>  (68) 
J2VwaWtfcHl0aG9uJywgJy1waHQnLCAnMi4wJywgJy1waCcsICc3LjAnLCAnLXRuJywgJzgnLCAnLW1hJywgJzIwMCcsICctaW1hZScsICc8aW5maWxlLm1hZT4nLCAnLW9tYWUnLCAnPG91dGZpbGUubWFlPic=

>  <r_epik_Ionization_Penalty>  (68) 
0.00447693

>  <r_epik_Ionization_Penalty_Charging>  (68) 
0.00447693

>  <r_epik_Ionization_Penalty_Neutral>  (68) 
0

>  <r_epik_State_Penalty>  (68) 
0.00323016

>  <r_epik_Charging_Adjusted_Penalty>  (68) 
0.00770709

>  <i_epik_Tot_Q>  (68) 
-1

>  <i_epik_Tot_abs_Q>  (68) 
1

>  <s_lp_Force_Field>  (68) 
OPLS3e

>  <r_lp_Energy>  (68) 
61.0401

>  <b_lp_Chiralities_Consistent>  (68) 
1

>  <s_lp_Variant>  (68) 
15:0-1

>  <s_i_glide_gridfile>  (68) 
pfpi4k_grid

>  <i_i_glide_lignum>  (68) 
25

>  <i_i_glide_rotatable_bonds>  (68) 
1

>  <r_i_docking_score>  (68) 
-2.96139

>  <r_i_glide_ligand_efficiency>  (68) 
-0.148069

>  <r_i_glide_ligand_efficiency_sa>  (68) 
-0.401922

>  <r_i_glide_ligand_efficiency_ln>  (68) 
-0.741137

>  <r_i_glide_gscore>  (68) 
-2.96139

>  <r_i_glide_lipo>  (68) 
-0.525029

>  <r_i_glide_hbond>  (68) 
-0.0005153

>  <r_i_glide_metal>  (68) 
-0

>  <r_i_glide_rewards>  (68) 
-1.54536

>  <r_i_glide_evdw>  (68) 
-22.4132

>  <r_i_glide_ecoul>  (68) 
1.67357

>  <r_i_glide_erotb>  (68) 
0

>  <r_i_glide_esite>  (68) 
-0.0208536

>  <r_i_glide_emodel>  (68) 
-25.4541

>  <r_i_glide_energy>  (68) 
-20.7397

>  <r_i_glide_einternal>  (68) 
0.228441

>  <r_i_glide_intrahb_reward>  (68) 
-0

>  <i_i_glide_confnum>  (68) 
2

>  <i_i_glide_posenum>  (68) 
26

>  <r_i_glide_eff_state_penalty>  (68) 
0

>  <ligand_id>  (68) 
15

>  <original_smiles>  (68) 
C=C1C(=O)C2(C)C3C1CCC1C(CC12C(=O)O)C3(C)C

>  <smiles>  (68) 
[H]C([H])=C1C(=O)C2(C([H])([H])[H])C3([H])C1([H])C([H])([H])C([H])([H])C1([H])C([H])(C([H])([H])C12C(=O)[O-])C3(C([H])([H])[H])C([H])([H])[H]

$$$$
16:0:0
     RDKit          3D

 28 30  0  0  1  0  0  0  0  0999 V2000
  -10.1558   -6.9313   -8.2651 C   0  0  0  0  0  0  0  0  0  0  0  0
   -9.1021   -5.8307   -8.0655 C   0  0  2  0  0  0  0  0  0  0  0  0
   -7.7988   -6.4085   -8.2292 O   0  0  0  0  0  0  0  0  0  0  0  0
   -7.1409   -6.9249   -7.1354 C   0  0  0  0  0  0  0  0  0  0  0  0
   -6.8533   -6.3240   -5.8680 C   0  0  0  0  0  0  0  0  0  0  0  0
   -6.0907   -7.0596   -5.0450 N   0  0  0  0  0  0  0  0  0  0  0  0
   -5.8261   -8.1957   -5.7449 N   0  0  0  0  0  0  0  0  0  0  0  0
   -5.0781   -9.2829   -5.2869 C   0  0  0  0  0  0  0  0  0  0  0  0
   -4.9108  -10.2795   -6.2760 C   0  0  0  0  0  0  0  0  0  0  0  0
   -5.4211  -10.2289   -7.5275 N   0  0  0  0  0  0  0  0  0  0  0  0
   -6.1694   -9.1642   -7.9173 C   0  0  0  0  0  0  0  0  0  0  0  0
   -6.3840   -8.1235   -6.9853 C   0  0  0  0  0  0  0  0  0  0  0  0
   -9.3092   -5.1083   -6.7249 C   0  0  0  0  0  0  0  0  0  0  0  0
  -10.2762   -3.9686   -6.5244 C   0  0  0  0  0  0  0  0  0  0  0  0
   -8.7781   -3.7054   -6.5587 C   0  0  0  0  0  0  0  0  0  0  0  0
  -11.1667   -6.5497   -8.1319 H   0  0  0  0  0  0  0  0  0  0  0  0
  -10.0278   -7.7369   -7.5515 H   0  0  0  0  0  0  0  0  0  0  0  0
  -10.1116   -7.3724   -9.2609 H   0  0  0  0  0  0  0  0  0  0  0  0
   -9.2459   -5.1064   -8.8740 H   0  0  0  0  0  0  0  0  0  0  0  0
   -7.1094   -5.3224   -5.5549 H   0  0  0  0  0  0  0  0  0  0  0  0
   -4.6840   -9.3011   -4.3033 H   0  0  0  0  0  0  0  0  0  0  0  0
   -4.3275  -11.1570   -6.0457 H   0  0  0  0  0  0  0  0  0  0  0  0
   -6.5644   -9.0931   -8.9236 H   0  0  0  0  0  0  0  0  0  0  0  0
   -9.2784   -5.7788   -5.8640 H   0  0  0  0  0  0  0  0  0  0  0  0
  -10.9319   -3.6558   -7.3230 H   0  0  0  0  0  0  0  0  0  0  0  0
  -10.7507   -3.9318   -5.5535 H   0  0  0  0  0  0  0  0  0  0  0  0
   -8.2764   -3.4874   -5.6085 H   0  0  0  0  0  0  0  0  0  0  0  0
   -8.3469   -3.2285   -7.4388 H   0  0  0  0  0  0  0  0  0  0  0  0
  1  2  1  0
  1 16  1  0
  1 17  1  0
  1 18  1  0
  2  3  1  0
  2 13  1  0
  2 19  1  6
  3  4  1  0
  4 12  2  0
  4  5  1  0
  5  6  2  0
  5 20  1  0
  6  7  1  0
  7 12  1  0
  7  8  1  0
  8  9  2  0
  8 21  1  0
  9 10  1  0
  9 22  1  0
 10 11  2  0
 11 12  1  0
 11 23  1  0
 13 15  1  0
 13 14  1  0
 13 24  1  0
 14 15  1  0
 14 25  1  0
 14 26  1  0
 15 27  1  0
 15 28  1  0
M  END
>  <i_m_ct_stereo_status>  (69) 
1

>  <s_m_source_file>  (69) 
/var/tmp/pbs.5076255.sched01/tmpbmel7479/053vx75p8.sdf

>  <i_m_source_file_index>  (69) 
26

>  <i_lp_mmshare_version>  (69) 
48012

>  <i_f3d_flags>  (69) 
0

>  <s_epik_input>  (69) 
W0NIMl0xW0NIMl1bQ0hdMVtDQEhdKFtDSDNdKU9jKFtjSF1uMiljKG4yMylbY0hdbltjSF1bY0hdMw==

>  <s_epik_cmdline>  (69) 
J2VwaWtfcHl0aG9uJywgJy1waHQnLCAnMi4wJywgJy1waCcsICc3LjAnLCAnLXRuJywgJzgnLCAnLW1hJywgJzIwMCcsICctaW1hZScsICc8aW5maWxlLm1hZT4nLCAnLW9tYWUnLCAnPG91dGZpbGUubWFlPic=

>  <r_epik_Ionization_Penalty>  (69) 
0.000664044

>  <r_epik_Ionization_Penalty_Charging>  (69) 
0

>  <r_epik_Ionization_Penalty_Neutral>  (69) 
0.000664044

>  <r_epik_State_Penalty>  (69) 
0.00042098

>  <r_epik_Charging_Adjusted_Penalty>  (69) 
0.00042098

>  <i_epik_Tot_Q>  (69) 
0

>  <i_epik_Tot_abs_Q>  (69) 
0

>  <s_lp_Force_Field>  (69) 
OPLS3e

>  <r_lp_Energy>  (69) 
15.5024

>  <b_lp_Chiralities_Consistent>  (69) 
1

>  <s_lp_Variant>  (69) 
16:0-1

>  <s_i_glide_gridfile>  (69) 
pfpi4k_grid

>  <i_i_glide_lignum>  (69) 
26

>  <i_i_glide_rotatable_bonds>  (69) 
3

>  <r_i_docking_score>  (69) 
-4.70833

>  <r_i_glide_ligand_efficiency>  (69) 
-0.313889

>  <r_i_glide_ligand_efficiency_sa>  (69) 
-0.774117

>  <r_i_glide_ligand_efficiency_ln>  (69) 
-1.26976

>  <r_i_glide_gscore>  (69) 
-4.70833

>  <r_i_glide_lipo>  (69) 
-1.8781

>  <r_i_glide_hbond>  (69) 
0

>  <r_i_glide_metal>  (69) 
-0

>  <r_i_glide_rewards>  (69) 
-2.54139

>  <r_i_glide_evdw>  (69) 
-23.8295

>  <r_i_glide_ecoul>  (69) 
-1.93303

>  <r_i_glide_erotb>  (69) 
1.19259

>  <r_i_glide_esite>  (69) 
0

>  <r_i_glide_emodel>  (69) 
-30.0684

>  <r_i_glide_energy>  (69) 
-25.7626

>  <r_i_glide_einternal>  (69) 
3.73876

>  <r_i_glide_intrahb_reward>  (69) 
-0

>  <i_i_glide_confnum>  (69) 
4

>  <i_i_glide_posenum>  (69) 
19

>  <r_i_glide_eff_state_penalty>  (69) 
0

>  <ligand_id>  (69) 
16

>  <original_smiles>  (69) 
CC(Oc1cnn2ccncc12)C1CC1

>  <smiles>  (69) 
[H]c1nn2c([H])c([H])nc([H])c2c1OC([H])(C([H])([H])[H])C1([H])C([H])([H])C1([H])[H]

$$$$
16:0:1
     RDKit          3D

 28 30  0  0  1  0  0  0  0  0999 V2000
    3.3739   -2.6471   -3.4338 C   0  0  0  0  0  0  0  0  0  0  0  0
    4.0803   -1.2850   -3.2823 C   0  0  2  0  0  0  0  0  0  0  0  0
    4.2972   -0.9527   -1.9017 O   0  0  0  0  0  0  0  0  0  0  0  0
    5.1092   -1.8519   -1.2328 C   0  0  0  0  0  0  0  0  0  0  0  0
    6.2179   -2.6152   -1.7029 C   0  0  0  0  0  0  0  0  0  0  0  0
    6.7836   -3.4397   -0.7986 N   0  0  0  0  0  0  0  0  0  0  0  0
    6.0658   -3.2840    0.3298 N   0  0  0  0  0  0  0  0  0  0  0  0
    6.2118   -3.9219    1.5537 C   0  0  0  0  0  0  0  0  0  0  0  0
    5.2531   -3.4807    2.4929 C   0  0  0  0  0  0  0  0  0  0  0  0
    4.2591   -2.5617    2.2975 N   0  0  0  0  0  0  0  0  0  0  0  0
    4.1586   -1.9874    1.0938 C   0  0  0  0  0  0  0  0  0  0  0  0
    5.0732   -2.3319    0.0940 C   0  0  0  0  0  0  0  0  0  0  0  0
    3.2538   -0.1629   -3.8575 C   0  0  0  0  0  0  0  0  0  0  0  0
    2.9713   -0.0652   -5.3314 C   0  0  0  0  0  0  0  0  0  0  0  0
    3.8112    0.9691   -4.7202 C   0  0  0  0  0  0  0  0  0  0  0  0
    3.1304   -2.8647   -4.4709 H   0  0  0  0  0  0  0  0  0  0  0  0
    2.4541   -2.6550   -2.8583 H   0  0  0  0  0  0  0  0  0  0  0  0
    3.9860   -3.4760   -3.0933 H   0  0  0  0  0  0  0  0  0  0  0  0
    5.0099   -1.2848   -3.8291 H   0  0  0  0  0  0  0  0  0  0  0  0
    6.6501   -2.6416   -2.6993 H   0  0  0  0  0  0  0  0  0  0  0  0
    7.0046   -4.6540    1.7216 H   0  0  0  0  0  0  0  0  0  0  0  0
    5.2696   -3.8794    3.4897 H   0  0  0  0  0  0  0  0  0  0  0  0
    3.3624   -1.2623    0.9137 H   0  0  0  0  0  0  0  0  0  0  0  0
    2.4007    0.0891   -3.2382 H   0  0  0  0  0  0  0  0  0  0  0  0
    3.4517   -0.7894   -5.9747 H   0  0  0  0  0  0  0  0  0  0  0  0
    1.9578    0.2201   -5.5889 H   0  0  0  0  0  0  0  0  0  0  0  0
    3.4035    1.9590   -4.6392 H   0  0  0  0  0  0  0  0  0  0  0  0
    4.8040    0.9360   -5.1677 H   0  0  0  0  0  0  0  0  0  0  0  0
  1  2  1  0
  1 16  1  0
  1 17  1  0
  1 18  1  0
  2  3  1  0
  2 13  1  0
  2 19  1  6
  3  4  1  0
  4 12  2  0
  4  5  1  0
  5  6  2  0
  5 20  1  0
  6  7  1  0
  7 12  1  0
  7  8  1  0
  8  9  2  0
  8 21  1  0
  9 10  1  0
  9 22  1  0
 10 11  2  0
 11 12  1  0
 11 23  1  0
 13 15  1  0
 13 14  1  0
 13 24  1  0
 14 15  1  0
 14 25  1  0
 14 26  1  0
 15 27  1  0
 15 28  1  0
M  END
>  <i_m_ct_stereo_status>  (70) 
1

>  <s_m_source_file>  (70) 
/var/tmp/pbs.5076255.sched01/tmpbmel7479/053vx75p8.sdf

>  <i_m_source_file_index>  (70) 
26

>  <i_lp_mmshare_version>  (70) 
48012

>  <i_f3d_flags>  (70) 
0

>  <s_epik_input>  (70) 
W0NIMl0xW0NIMl1bQ0hdMVtDQEhdKFtDSDNdKU9jKFtjSF1uMiljKG4yMylbY0hdbltjSF1bY0hdMw==

>  <s_epik_cmdline>  (70) 
J2VwaWtfcHl0aG9uJywgJy1waHQnLCAnMi4wJywgJy1waCcsICc3LjAnLCAnLXRuJywgJzgnLCAnLW1hJywgJzIwMCcsICctaW1hZScsICc8aW5maWxlLm1hZT4nLCAnLW9tYWUnLCAnPG91dGZpbGUubWFlPic=

>  <r_epik_Ionization_Penalty>  (70) 
0.000664044

>  <r_epik_Ionization_Penalty_Charging>  (70) 
0

>  <r_epik_Ionization_Penalty_Neutral>  (70) 
0.000664044

>  <r_epik_State_Penalty>  (70) 
0.00042098

>  <r_epik_Charging_Adjusted_Penalty>  (70) 
0.00042098

>  <i_epik_Tot_Q>  (70) 
0

>  <i_epik_Tot_abs_Q>  (70) 
0

>  <s_lp_Force_Field>  (70) 
OPLS3e

>  <r_lp_Energy>  (70) 
15.5024

>  <b_lp_Chiralities_Consistent>  (70) 
1

>  <s_lp_Variant>  (70) 
16:0-1

>  <s_i_glide_gridfile>  (70) 
pfpi4k_grid

>  <i_i_glide_lignum>  (70) 
26

>  <i_i_glide_rotatable_bonds>  (70) 
3

>  <r_i_docking_score>  (70) 
-2.53286

>  <r_i_glide_ligand_efficiency>  (70) 
-0.168857

>  <r_i_glide_ligand_efficiency_sa>  (70) 
-0.416437

>  <r_i_glide_ligand_efficiency_ln>  (70) 
-0.68307

>  <r_i_glide_gscore>  (70) 
-2.53286

>  <r_i_glide_lipo>  (70) 
-0.677852

>  <r_i_glide_hbond>  (70) 
0

>  <r_i_glide_metal>  (70) 
-0

>  <r_i_glide_rewards>  (70) 
-2.11676

>  <r_i_glide_evdw>  (70) 
-19.59

>  <r_i_glide_ecoul>  (70) 
0.324447

>  <r_i_glide_erotb>  (70) 
1.19259

>  <r_i_glide_esite>  (70) 
0

>  <r_i_glide_emodel>  (70) 
-22.0896

>  <r_i_glide_energy>  (70) 
-19.2655

>  <r_i_glide_einternal>  (70) 
1.82853

>  <r_i_glide_intrahb_reward>  (70) 
-0

>  <i_i_glide_confnum>  (70) 
1

>  <i_i_glide_posenum>  (70) 
37

>  <r_i_glide_eff_state_penalty>  (70) 
0

>  <ligand_id>  (70) 
16

>  <original_smiles>  (70) 
CC(Oc1cnn2ccncc12)C1CC1

>  <smiles>  (70) 
[H]c1nn2c([H])c([H])nc([H])c2c1OC([H])(C([H])([H])[H])C1([H])C([H])([H])C1([H])[H]

$$$$
16:0:2
     RDKit          3D

 28 30  0  0  1  0  0  0  0  0999 V2000
   -0.0939    2.5988    8.6651 C   0  0  0  0  0  0  0  0  0  0  0  0
   -1.5705    2.1911    8.6469 C   0  0  2  0  0  0  0  0  0  0  0  0
   -1.8036    1.3077    7.5337 O   0  0  0  0  0  0  0  0  0  0  0  0
   -1.7781    1.8781    6.2635 C   0  0  0  0  0  0  0  0  0  0  0  0
   -2.4216    3.0597    5.7302 C   0  0  0  0  0  0  0  0  0  0  0  0
   -2.1705    3.3620    4.4696 N   0  0  0  0  0  0  0  0  0  0  0  0
   -1.4462    2.3295    4.0310 N   0  0  0  0  0  0  0  0  0  0  0  0
   -1.0330    2.1690    2.7335 C   0  0  0  0  0  0  0  0  0  0  0  0
   -0.3068    0.9760    2.5437 C   0  0  0  0  0  0  0  0  0  0  0  0
   -0.0151    0.0453    3.4903 N   0  0  0  0  0  0  0  0  0  0  0  0
   -0.4522    0.2645    4.7479 C   0  0  0  0  0  0  0  0  0  0  0  0
   -1.1883    1.4310    5.0472 C   0  0  0  0  0  0  0  0  0  0  0  0
   -2.4794    3.4148    8.6530 C   0  0  0  0  0  0  0  0  0  0  0  0
   -2.6720    4.2947    9.8408 C   0  0  0  0  0  0  0  0  0  0  0  0
   -3.7980    3.4155    9.3724 C   0  0  0  0  0  0  0  0  0  0  0  0
    0.1222    3.2508    9.5131 H   0  0  0  0  0  0  0  0  0  0  0  0
    0.1739    3.1330    7.7516 H   0  0  0  0  0  0  0  0  0  0  0  0
    0.5379    1.7174    8.7443 H   0  0  0  0  0  0  0  0  0  0  0  0
   -1.7756    1.6409    9.5783 H   0  0  0  0  0  0  0  0  0  0  0  0
   -3.0927    3.7855    6.1431 H   0  0  0  0  0  0  0  0  0  0  0  0
   -1.2931    2.9493    2.0381 H   0  0  0  0  0  0  0  0  0  0  0  0
    0.0440    0.7956    1.5452 H   0  0  0  0  0  0  0  0  0  0  0  0
   -0.2058   -0.4916    5.4794 H   0  0  0  0  0  0  0  0  0  0  0  0
   -2.3158    4.1028    7.8650 H   0  0  0  0  0  0  0  0  0  0  0  0
   -2.0764    4.0209   10.7104 H   0  0  0  0  0  0  0  0  0  0  0  0
   -2.7302    5.3600    9.6063 H   0  0  0  0  0  0  0  0  0  0  0  0
   -4.6428    3.8968    8.8854 H   0  0  0  0  0  0  0  0  0  0  0  0
   -4.0314    2.5373    9.9643 H   0  0  0  0  0  0  0  0  0  0  0  0
  1  2  1  0
  1 16  1  0
  1 17  1  0
  1 18  1  0
  2  3  1  0
  2 13  1  0
  2 19  1  1
  3  4  1  0
  4 12  2  0
  4  5  1  0
  5  6  2  0
  5 20  1  0
  6  7  1  0
  7 12  1  0
  7  8  1  0
  8  9  2  0
  8 21  1  0
  9 10  1  0
  9 22  1  0
 10 11  2  0
 11 12  1  0
 11 23  1  0
 13 15  1  0
 13 14  1  0
 13 24  1  0
 14 15  1  0
 14 25  1  0
 14 26  1  0
 15 27  1  0
 15 28  1  0
M  END
>  <i_m_ct_stereo_status>  (71) 
1

>  <s_m_source_file>  (71) 
/var/tmp/pbs.5076255.sched01/tmpbmel7479/053vx75p8.sdf

>  <i_m_source_file_index>  (71) 
26

>  <i_lp_mmshare_version>  (71) 
48012

>  <i_f3d_flags>  (71) 
0

>  <s_epik_input>  (71) 
W0NIMl0xW0NIMl1bQ0hdMVtDQEhdKFtDSDNdKU9jKFtjSF1uMiljKG4yMylbY0hdbltjSF1bY0hdMw==

>  <s_epik_cmdline>  (71) 
J2VwaWtfcHl0aG9uJywgJy1waHQnLCAnMi4wJywgJy1waCcsICc3LjAnLCAnLXRuJywgJzgnLCAnLW1hJywgJzIwMCcsICctaW1hZScsICc8aW5maWxlLm1hZT4nLCAnLW9tYWUnLCAnPG91dGZpbGUubWFlPic=

>  <r_epik_Ionization_Penalty>  (71) 
0.000664044

>  <r_epik_Ionization_Penalty_Charging>  (71) 
0

>  <r_epik_Ionization_Penalty_Neutral>  (71) 
0.000664044

>  <r_epik_State_Penalty>  (71) 
0.00042098

>  <r_epik_Charging_Adjusted_Penalty>  (71) 
0.00042098

>  <i_epik_Tot_Q>  (71) 
0

>  <i_epik_Tot_abs_Q>  (71) 
0

>  <s_lp_Force_Field>  (71) 
OPLS3e

>  <r_lp_Energy>  (71) 
15.5024

>  <b_lp_Chiralities_Consistent>  (71) 
1

>  <s_lp_Variant>  (71) 
16:0-1

>  <s_i_glide_gridfile>  (71) 
pfpi4k_grid

>  <i_i_glide_lignum>  (71) 
26

>  <i_i_glide_rotatable_bonds>  (71) 
3

>  <r_i_docking_score>  (71) 
-2.41668

>  <r_i_glide_ligand_efficiency>  (71) 
-0.161112

>  <r_i_glide_ligand_efficiency_sa>  (71) 
-0.397336

>  <r_i_glide_ligand_efficiency_ln>  (71) 
-0.651738

>  <r_i_glide_gscore>  (71) 
-2.41668

>  <r_i_glide_lipo>  (71) 
-0.204778

>  <r_i_glide_hbond>  (71) 
-0.129324

>  <r_i_glide_metal>  (71) 
-0

>  <r_i_glide_rewards>  (71) 
-2.02336

>  <r_i_glide_evdw>  (71) 
-19.0888

>  <r_i_glide_ecoul>  (71) 
-1.79288

>  <r_i_glide_erotb>  (71) 
1.19259

>  <r_i_glide_esite>  (71) 
-0.0284306

>  <r_i_glide_emodel>  (71) 
-20.9203

>  <r_i_glide_energy>  (71) 
-20.8817

>  <r_i_glide_einternal>  (71) 
1.96305

>  <r_i_glide_intrahb_reward>  (71) 
-0

>  <i_i_glide_confnum>  (71) 
6

>  <i_i_glide_posenum>  (71) 
14

>  <r_i_glide_eff_state_penalty>  (71) 
0

>  <ligand_id>  (71) 
16

>  <original_smiles>  (71) 
CC(Oc1cnn2ccncc12)C1CC1

>  <smiles>  (71) 
[H]c1nn2c([H])c([H])nc([H])c2c1OC([H])(C([H])([H])[H])C1([H])C([H])([H])C1([H])[H]

$$$$
17:0:0
     RDKit          3D

 55 60  0  0  1  0  0  0  0  0999 V2000
    4.1940   -0.0867   -3.1380 C   0  0  0  0  0  0  0  0  0  0  0  0
    4.4801   -1.1388   -2.3646 C   0  0  0  0  0  0  0  0  0  0  0  0
    4.5138   -1.1858   -0.9119 C   0  0  0  0  0  0  0  0  0  0  0  0
    4.2133   -0.2515   -0.1599 O   0  0  0  0  0  0  0  0  0  0  0  0
    5.0008   -2.5758   -0.4275 C   0  0  1  0  0  0  0  0  0  0  0  0
    5.6123   -2.6126    0.9777 C   0  0  1  0  0  0  0  0  0  0  0  0
    4.5513   -2.0183    2.0103 C   0  0  0  0  0  0  0  0  0  0  0  0
    3.0595   -2.4907    1.6766 C   0  0  0  0  0  0  0  0  0  0  0  0
    3.2606   -3.9081    1.1325 C   0  0  2  0  0  0  0  0  0  0  0  0
    2.3724   -4.9091    0.7693 O   0  0  0  0  0  0  0  0  0  0  0  0
    3.0867   -6.2801    0.8926 O   0  0  0  0  0  0  0  0  0  0  0  0
    4.5581   -6.3465    0.7385 C   0  0  2  0  0  0  0  0  0  0  0  0
    4.7999   -7.7906    1.2298 C   0  0  0  0  0  0  0  0  0  0  0  0
    5.8126   -7.7439    2.3690 C   0  0  1  0  0  0  0  0  0  0  0  0
    6.6388   -9.0284    2.5481 C   0  0  0  0  0  0  0  0  0  0  0  0
    6.5902   -6.4388    2.1446 C   0  0  1  0  0  0  0  0  0  0  0  0
    7.8154   -6.6068    1.2166 C   0  0  0  0  0  0  0  0  0  0  0  0
    5.5116   -5.4429    1.6360 C   0  0  1  0  0  0  0  0  0  0  0  0
    6.2413   -4.0527    1.2564 C   0  0  0  0  0  0  0  0  0  0  0  0
    4.6753   -5.2967    2.7290 O   0  0  0  0  0  0  0  0  0  0  0  0
    3.7218   -4.1977    2.4897 O   0  0  0  0  0  0  0  0  0  0  0  0
    3.8896   -3.6366   -0.3281 C   0  0  1  0  0  0  0  0  0  0  0  0
    2.8967   -3.4530   -1.5192 C   0  0  0  0  0  0  0  0  0  0  0  0
    3.6680   -3.3837   -2.8847 C   0  0  0  0  0  0  0  0  0  0  0  0
    4.9174   -2.4952   -2.8154 C   0  0  2  0  0  0  0  0  0  0  0  0
    5.8473   -2.9655   -1.6708 C   0  0  1  0  0  0  0  0  0  0  0  0
    7.0838   -2.2732   -1.7235 O   0  0  0  0  0  0  0  0  0  0  0  0
    4.2349   -0.1590   -4.2173 H   0  0  0  0  0  0  0  0  0  0  0  0
    3.9567    0.8679   -2.7040 H   0  0  0  0  0  0  0  0  0  0  0  0
    6.4403   -1.9010    0.9870 H   0  0  0  0  0  0  0  0  0  0  0  0
    4.8418   -2.3061    3.0247 H   0  0  0  0  0  0  0  0  0  0  0  0
    4.5789   -0.9368    2.0837 H   0  0  0  0  0  0  0  0  0  0  0  0
    2.4174   -2.4398    2.5656 H   0  0  0  0  0  0  0  0  0  0  0  0
    2.5601   -1.8619    0.9370 H   0  0  0  0  0  0  0  0  0  0  0  0
    4.9135   -6.3632   -0.2901 H   0  0  0  0  0  0  0  0  0  0  0  0
    3.8813   -8.2684    1.5800 H   0  0  0  0  0  0  0  0  0  0  0  0
    5.1726   -8.4044    0.4133 H   0  0  0  0  0  0  0  0  0  0  0  0
    5.2451   -7.6098    3.2913 H   0  0  0  0  0  0  0  0  0  0  0  0
    7.1716   -9.3085    1.6412 H   0  0  0  0  0  0  0  0  0  0  0  0
    6.0011   -9.8708    2.8130 H   0  0  0  0  0  0  0  0  0  0  0  0
    7.3723   -8.9220    3.3459 H   0  0  0  0  0  0  0  0  0  0  0  0
    6.9723   -6.0850    3.1036 H   0  0  0  0  0  0  0  0  0  0  0  0
    7.5332   -6.8939    0.2103 H   0  0  0  0  0  0  0  0  0  0  0  0
    8.4912   -7.3710    1.5989 H   0  0  0  0  0  0  0  0  0  0  0  0
    8.4102   -5.6968    1.1339 H   0  0  0  0  0  0  0  0  0  0  0  0
    6.8950   -4.2412    0.4056 H   0  0  0  0  0  0  0  0  0  0  0  0
    6.9272   -3.8589    2.0764 H   0  0  0  0  0  0  0  0  0  0  0  0
    4.3457   -4.5307   -0.6810 H   0  0  0  0  0  0  0  0  0  0  0  0
    2.1977   -4.2808   -1.5379 H   0  0  0  0  0  0  0  0  0  0  0  0
    2.2453   -2.5950   -1.3827 H   0  0  0  0  0  0  0  0  0  0  0  0
    4.0811   -4.3422   -3.1830 H   0  0  0  0  0  0  0  0  0  0  0  0
    2.9815   -3.0772   -3.6760 H   0  0  0  0  0  0  0  0  0  0  0  0
    5.4132   -2.4603   -3.7778 H   0  0  0  0  0  0  0  0  0  0  0  0
    6.0678   -4.0366   -1.7418 H   0  0  0  0  0  0  0  0  0  0  0  0
    7.5961   -2.6548   -2.4178 H   0  0  0  0  0  0  0  0  0  0  0  0
  1  2  2  0
  1 28  1  0
  1 29  1  0
  2 25  1  0
  2  3  1  0
  3  4  2  0
  5  3  1  6
  5 22  1  0
  5 26  1  0
  5  6  1  0
  6 19  1  0
  6  7  1  0
  6 30  1  6
  7  8  1  0
  7 31  1  0
  7 32  1  0
  8  9  1  0
  8 33  1  0
  8 34  1  0
  9 21  1  0
  9 10  1  6
  9 22  1  0
 10 11  1  0
 11 12  1  0
 12 18  1  0
 12 13  1  0
 12 35  1  6
 13 14  1  0
 13 36  1  0
 13 37  1  0
 14 15  1  0
 14 16  1  0
 14 38  1  1
 15 39  1  0
 15 40  1  0
 15 41  1  0
 16 17  1  0
 16 18  1  0
 16 42  1  1
 17 43  1  0
 17 44  1  0
 17 45  1  0
 18 19  1  6
 18 20  1  0
 19 46  1  0
 19 47  1  0
 20 21  1  0
 22 23  1  0
 22 48  1  6
 23 24  1  0
 23 49  1  0
 23 50  1  0
 24 25  1  0
 24 51  1  0
 24 52  1  0
 25 26  1  0
 25 53  1  6
 26 27  1  0
 26 54  1  6
 27 55  1  0
M  END
>  <i_m_ct_stereo_status>  (72) 
1

>  <s_m_source_file>  (72) 
/var/tmp/pbs.5076255.sched01/tmpbmel7479/053vx75p8.sdf

>  <i_m_source_file_index>  (72) 
27

>  <i_lp_mmshare_version>  (72) 
48012

>  <i_f3d_flags>  (72) 
0

>  <s_epik_input>  (72) 
Tz1DMUMoPVtDSDJdKVtDQEBIXShbQ0BIXTJbT0hdKVtDSDJdW0NIMl1bQ0BASF0zW0NAQF00KFtDSDJdW0NIMl1bQ0BASF01W0NAQF0xMjMpT09bQ0BIXTZbQ0BAXShbQ0gyXTUpKE9PNClbQ0BIXShbQ0gzXSlbQ0BASF0oW0NIMl02KVtDSDNd

>  <s_epik_cmdline>  (72) 
J2VwaWtfcHl0aG9uJywgJy1waHQnLCAnMi4wJywgJy1waCcsICc3LjAnLCAnLXRuJywgJzgnLCAnLW1hJywgJzIwMCcsICctaW1hZScsICc8aW5maWxlLm1hZT4nLCAnLW9tYWUnLCAnPG91dGZpbGUubWFlPic=

>  <r_lp_tautomer_probability>  (72) 
1

>  <r_epik_Ionization_Penalty>  (72) 
2.02426e-07

>  <r_epik_Ionization_Penalty_Charging>  (72) 
0

>  <r_epik_Ionization_Penalty_Neutral>  (72) 
2.02426e-07

>  <r_epik_State_Penalty>  (72) 
-0

>  <r_epik_Charging_Adjusted_Penalty>  (72) 
0

>  <i_epik_Tot_Q>  (72) 
0

>  <i_epik_Tot_abs_Q>  (72) 
0

>  <s_lp_Force_Field>  (72) 
OPLS3e

>  <r_lp_Energy>  (72) 
135.571

>  <b_lp_Chiralities_Consistent>  (72) 
1

>  <s_lp_Variant>  (72) 
17:0-1

>  <s_i_glide_gridfile>  (72) 
pfpi4k_grid

>  <i_i_glide_lignum>  (72) 
27

>  <i_i_glide_rotatable_bonds>  (72) 
1

>  <r_i_docking_score>  (72) 
-4.12974

>  <r_i_glide_ligand_efficiency>  (72) 
-0.152953

>  <r_i_glide_ligand_efficiency_sa>  (72) 
-0.45886

>  <r_i_glide_ligand_efficiency_ln>  (72) 
-0.961336

>  <r_i_glide_gscore>  (72) 
-4.12974

>  <r_i_glide_lipo>  (72) 
-0.940978

>  <r_i_glide_hbond>  (72) 
-0.29266

>  <r_i_glide_metal>  (72) 
-0

>  <r_i_glide_rewards>  (72) 
-0.842431

>  <r_i_glide_evdw>  (72) 
-24.9639

>  <r_i_glide_ecoul>  (72) 
-5.08181

>  <r_i_glide_erotb>  (72) 
0

>  <r_i_glide_esite>  (72) 
-0.0432092

>  <r_i_glide_emodel>  (72) 
-37.0918

>  <r_i_glide_energy>  (72) 
-30.0457

>  <r_i_glide_einternal>  (72) 
0.431756

>  <r_i_glide_intrahb_reward>  (72) 
-0

>  <i_i_glide_confnum>  (72) 
2

>  <i_i_glide_posenum>  (72) 
9

>  <r_i_glide_eff_state_penalty>  (72) 
0

>  <ligand_id>  (72) 
17

>  <original_smiles>  (72) 
C=C1C(=O)C23C4CCC5(OOC6CC(C)C(C)C6(C4)OO5)C2CCC1C3O

>  <smiles>  (72) 
[H]OC1([H])C2([H])C(=C([H])[H])C(=O)C13C1([H])C([H])([H])C([H])([H])C4(OOC5([H])C([H])([H])C([H])(C([H])([H])[H])C([H])(C([H])([H])[H])C5(OO4)C1([H])[H])C3([H])C([H])([H])C2([H])[H]

$$$$
17:0:1
     RDKit          3D

 55 60  0  0  1  0  0  0  0  0999 V2000
    3.1710   -8.3358    4.1316 C   0  0  0  0  0  0  0  0  0  0  0  0
    3.3262   -7.4230    3.1674 C   0  0  0  0  0  0  0  0  0  0  0  0
    3.3110   -5.9785    3.3512 C   0  0  0  0  0  0  0  0  0  0  0  0
    3.2290   -5.4051    4.4455 O   0  0  0  0  0  0  0  0  0  0  0  0
    3.3498   -5.2502    1.9767 C   0  0  1  0  0  0  0  0  0  0  0  0
    2.8414   -3.8141    1.9233 C   0  0  1  0  0  0  0  0  0  0  0  0
    3.6578   -2.9698    2.9835 C   0  0  0  0  0  0  0  0  0  0  0  0
    5.2019   -3.3436    2.9697 C   0  0  0  0  0  0  0  0  0  0  0  0
    5.4837   -3.6657    1.4990 C   0  0  2  0  0  0  0  0  0  0  0  0
    6.6577   -3.9905    0.8243 O   0  0  0  0  0  0  0  0  0  0  0  0
    6.4751   -3.5786   -0.6608 O   0  0  0  0  0  0  0  0  0  0  0  0
    5.1153   -3.6369   -1.2373 C   0  0  2  0  0  0  0  0  0  0  0  0
    5.3964   -2.9559   -2.6026 C   0  0  0  0  0  0  0  0  0  0  0  0
    4.4732   -1.7448   -2.7190 C   0  0  1  0  0  0  0  0  0  0  0  0
    4.1167   -1.3265   -4.1487 C   0  0  0  0  0  0  0  0  0  0  0  0
    3.3012   -2.0976   -1.8126 C   0  0  1  0  0  0  0  0  0  0  0  0
    2.2228   -2.9162   -2.5475 C   0  0  0  0  0  0  0  0  0  0  0  0
    3.9414   -2.8013   -0.5840 C   0  0  1  0  0  0  0  0  0  0  0  0
    2.7634   -3.3075    0.4054 C   0  0  0  0  0  0  0  0  0  0  0  0
    4.7037   -1.7975   -0.0251 O   0  0  0  0  0  0  0  0  0  0  0  0
    5.1781   -2.2458    1.3025 O   0  0  0  0  0  0  0  0  0  0  0  0
    4.7545   -5.0957    1.3409 C   0  0  1  0  0  0  0  0  0  0  0  0
    5.6213   -6.3763    1.6093 C   0  0  0  0  0  0  0  0  0  0  0  0
    4.8320   -7.6586    1.2130 C   0  0  0  0  0  0  0  0  0  0  0  0
    3.3506   -7.6284    1.6711 C   0  0  2  0  0  0  0  0  0  0  0  0
    2.6667   -6.3457    1.1177 C   0  0  1  0  0  0  0  0  0  0  0  0
    1.2608   -6.3987    1.3274 O   0  0  0  0  0  0  0  0  0  0  0  0
    3.1110   -9.3882    3.9111 H   0  0  0  0  0  0  0  0  0  0  0  0
    3.0868   -8.0445    5.1695 H   0  0  0  0  0  0  0  0  0  0  0  0
    1.8182   -3.8283    2.2860 H   0  0  0  0  0  0  0  0  0  0  0  0
    3.4997   -1.9078    2.7677 H   0  0  0  0  0  0  0  0  0  0  0  0
    3.2579   -3.0635    3.9857 H   0  0  0  0  0  0  0  0  0  0  0  0
    5.8041   -2.5207    3.3610 H   0  0  0  0  0  0  0  0  0  0  0  0
    5.4237   -4.1947    3.6117 H   0  0  0  0  0  0  0  0  0  0  0  0
    4.7519   -4.6277   -1.5350 H   0  0  0  0  0  0  0  0  0  0  0  0
    6.4345   -2.6386   -2.6859 H   0  0  0  0  0  0  0  0  0  0  0  0
    5.2112   -3.6603   -3.4089 H   0  0  0  0  0  0  0  0  0  0  0  0
    4.9769   -0.8895   -2.2560 H   0  0  0  0  0  0  0  0  0  0  0  0
    3.6649   -2.1486   -4.7065 H   0  0  0  0  0  0  0  0  0  0  0  0
    5.0055   -1.0137   -4.6913 H   0  0  0  0  0  0  0  0  0  0  0  0
    3.4113   -0.4903   -4.1711 H   0  0  0  0  0  0  0  0  0  0  0  0
    2.8480   -1.1664   -1.4915 H   0  0  0  0  0  0  0  0  0  0  0  0
    2.5883   -3.8710   -2.9086 H   0  0  0  0  0  0  0  0  0  0  0  0
    1.8465   -2.3708   -3.4063 H   0  0  0  0  0  0  0  0  0  0  0  0
    1.3517   -3.0833   -1.9246 H   0  0  0  0  0  0  0  0  0  0  0  0
    2.1949   -4.0594   -0.1349 H   0  0  0  0  0  0  0  0  0  0  0  0
    2.0870   -2.4598    0.4741 H   0  0  0  0  0  0  0  0  0  0  0  0
    4.6109   -5.2860    0.2993 H   0  0  0  0  0  0  0  0  0  0  0  0
    6.5402   -6.3595    1.0187 H   0  0  0  0  0  0  0  0  0  0  0  0
    5.9417   -6.4212    2.6499 H   0  0  0  0  0  0  0  0  0  0  0  0
    4.8539   -7.7710    0.1255 H   0  0  0  0  0  0  0  0  0  0  0  0
    5.3380   -8.5346    1.6174 H   0  0  0  0  0  0  0  0  0  0  0  0
    2.8348   -8.5473    1.3946 H   0  0  0  0  0  0  0  0  0  0  0  0
    2.8137   -6.2558    0.0411 H   0  0  0  0  0  0  0  0  0  0  0  0
    0.9681   -7.2566    1.0931 H   0  0  0  0  0  0  0  0  0  0  0  0
  1  2  2  0
  1 28  1  0
  1 29  1  0
  2 25  1  0
  2  3  1  0
  3  4  2  0
  5  3  1  1
  5 22  1  0
  5 26  1  0
  5  6  1  0
  6 19  1  0
  6  7  1  0
  6 30  1  1
  7  8  1  0
  7 31  1  0
  7 32  1  0
  8  9  1  0
  8 33  1  0
  8 34  1  0
  9 21  1  0
  9 10  1  1
  9 22  1  0
 10 11  1  0
 11 12  1  0
 12 18  1  0
 12 13  1  0
 12 35  1  6
 13 14  1  0
 13 36  1  0
 13 37  1  0
 14 15  1  0
 14 16  1  0
 14 38  1  1
 15 39  1  0
 15 40  1  0
 15 41  1  0
 16 17  1  0
 16 18  1  0
 16 42  1  1
 17 43  1  0
 17 44  1  0
 17 45  1  0
 18 19  1  1
 18 20  1  0
 19 46  1  0
 19 47  1  0
 20 21  1  0
 22 23  1  0
 22 48  1  6
 23 24  1  0
 23 49  1  0
 23 50  1  0
 24 25  1  0
 24 51  1  0
 24 52  1  0
 25 26  1  0
 25 53  1  1
 26 27  1  0
 26 54  1  6
 27 55  1  0
M  END
>  <i_m_ct_stereo_status>  (73) 
1

>  <s_m_source_file>  (73) 
/var/tmp/pbs.5076255.sched01/tmpbmel7479/053vx75p8.sdf

>  <i_m_source_file_index>  (73) 
27

>  <i_lp_mmshare_version>  (73) 
48012

>  <i_f3d_flags>  (73) 
0

>  <s_epik_input>  (73) 
Tz1DMUMoPVtDSDJdKVtDQEBIXShbQ0BIXTJbT0hdKVtDSDJdW0NIMl1bQ0BASF0zW0NAQF00KFtDSDJdW0NIMl1bQ0BASF01W0NAQF0xMjMpT09bQ0BIXTZbQ0BAXShbQ0gyXTUpKE9PNClbQ0BIXShbQ0gzXSlbQ0BASF0oW0NIMl02KVtDSDNd

>  <s_epik_cmdline>  (73) 
J2VwaWtfcHl0aG9uJywgJy1waHQnLCAnMi4wJywgJy1waCcsICc3LjAnLCAnLXRuJywgJzgnLCAnLW1hJywgJzIwMCcsICctaW1hZScsICc8aW5maWxlLm1hZT4nLCAnLW9tYWUnLCAnPG91dGZpbGUubWFlPic=

>  <r_lp_tautomer_probability>  (73) 
1

>  <r_epik_Ionization_Penalty>  (73) 
2.02426e-07

>  <r_epik_Ionization_Penalty_Charging>  (73) 
0

>  <r_epik_Ionization_Penalty_Neutral>  (73) 
2.02426e-07

>  <r_epik_State_Penalty>  (73) 
-0

>  <r_epik_Charging_Adjusted_Penalty>  (73) 
0

>  <i_epik_Tot_Q>  (73) 
0

>  <i_epik_Tot_abs_Q>  (73) 
0

>  <s_lp_Force_Field>  (73) 
OPLS3e

>  <r_lp_Energy>  (73) 
135.571

>  <b_lp_Chiralities_Consistent>  (73) 
1

>  <s_lp_Variant>  (73) 
17:0-1

>  <s_i_glide_gridfile>  (73) 
pfpi4k_grid

>  <i_i_glide_lignum>  (73) 
27

>  <i_i_glide_rotatable_bonds>  (73) 
1

>  <r_i_docking_score>  (73) 
-3.48848

>  <r_i_glide_ligand_efficiency>  (73) 
-0.129203

>  <r_i_glide_ligand_efficiency_sa>  (73) 
-0.387609

>  <r_i_glide_ligand_efficiency_ln>  (73) 
-0.81206

>  <r_i_glide_gscore>  (73) 
-3.48848

>  <r_i_glide_lipo>  (73) 
-0.518989

>  <r_i_glide_hbond>  (73) 
-0.0601025

>  <r_i_glide_metal>  (73) 
-0

>  <r_i_glide_rewards>  (73) 
-0.913778

>  <r_i_glide_evdw>  (73) 
-29.2363

>  <r_i_glide_ecoul>  (73) 
-3.55861

>  <r_i_glide_erotb>  (73) 
0

>  <r_i_glide_esite>  (73) 
0

>  <r_i_glide_emodel>  (73) 
-38.8732

>  <r_i_glide_energy>  (73) 
-32.7949

>  <r_i_glide_einternal>  (73) 
0.626106

>  <r_i_glide_intrahb_reward>  (73) 
-0

>  <i_i_glide_confnum>  (73) 
2

>  <i_i_glide_posenum>  (73) 
11

>  <r_i_glide_eff_state_penalty>  (73) 
0

>  <ligand_id>  (73) 
17

>  <original_smiles>  (73) 
C=C1C(=O)C23C4CCC5(OOC6CC(C)C(C)C6(C4)OO5)C2CCC1C3O

>  <smiles>  (73) 
[H]OC1([H])C2([H])C(=C([H])[H])C(=O)C13C1([H])C([H])([H])C([H])([H])C4(OOC5([H])C([H])([H])C([H])(C([H])([H])[H])C([H])(C([H])([H])[H])C5(OO4)C1([H])[H])C3([H])C([H])([H])C2([H])[H]

$$$$
17:0:2
     RDKit          3D

 55 60  0  0  1  0  0  0  0  0999 V2000
    2.9656   -1.2045   -3.9707 C   0  0  0  0  0  0  0  0  0  0  0  0
    3.4673   -1.9356   -2.9782 C   0  0  0  0  0  0  0  0  0  0  0  0
    4.4592   -1.4738   -2.0293 C   0  0  0  0  0  0  0  0  0  0  0  0
    4.9343   -0.3376   -2.0331 O   0  0  0  0  0  0  0  0  0  0  0  0
    4.9716   -2.6547   -1.1474 C   0  0  1  0  0  0  0  0  0  0  0  0
    6.3375   -2.4823   -0.5114 C   0  0  1  0  0  0  0  0  0  0  0  0
    6.3032   -1.1576    0.3668 C   0  0  0  0  0  0  0  0  0  0  0  0
    4.9218   -0.9979    1.1519 C   0  0  0  0  0  0  0  0  0  0  0  0
    4.5009   -2.4492    1.4578 C   0  0  2  0  0  0  0  0  0  0  0  0
    3.4691   -2.9859    2.2369 O   0  0  0  0  0  0  0  0  0  0  0  0
    3.8669   -4.4290    2.7013 O   0  0  0  0  0  0  0  0  0  0  0  0
    4.8681   -5.2075    1.9123 C   0  0  2  0  0  0  0  0  0  0  0  0
    5.2308   -6.2994    2.9607 C   0  0  0  0  0  0  0  0  0  0  0  0
    6.7445   -6.3038    3.2033 C   0  0  1  0  0  0  0  0  0  0  0  0
    7.3203   -7.6758    3.6368 C   0  0  0  0  0  0  0  0  0  0  0  0
    7.3264   -5.6549    1.9431 C   0  0  1  0  0  0  0  0  0  0  0  0
    7.6246   -6.6994    0.8755 C   0  0  0  0  0  0  0  0  0  0  0  0
    6.2643   -4.5991    1.4790 C   0  0  1  0  0  0  0  0  0  0  0  0
    6.7939   -3.8651    0.1379 C   0  0  0  0  0  0  0  0  0  0  0  0
    6.1825   -3.7818    2.5259 O   0  0  0  0  0  0  0  0  0  0  0  0
    5.7153   -2.4736    2.1854 O   0  0  0  0  0  0  0  0  0  0  0  0
    4.1006   -3.0512    0.0584 C   0  0  1  0  0  0  0  0  0  0  0  0
    2.6382   -2.9279   -0.2725 C   0  0  0  0  0  0  0  0  0  0  0  0
    2.2526   -3.5864   -1.6173 C   0  0  0  0  0  0  0  0  0  0  0  0
    3.3298   -3.4102   -2.7150 C   0  0  2  0  0  0  0  0  0  0  0  0
    4.7189   -3.7956   -2.1597 C   0  0  1  0  0  0  0  0  0  0  0  0
    5.6734   -3.6986   -3.1914 O   0  0  0  0  0  0  0  0  0  0  0  0
    2.2755   -1.6381   -4.6673 H   0  0  0  0  0  0  0  0  0  0  0  0
    3.1890   -0.1477   -4.0755 H   0  0  0  0  0  0  0  0  0  0  0  0
    7.0554   -2.2900   -1.3018 H   0  0  0  0  0  0  0  0  0  0  0  0
    7.1553   -1.1741    1.0578 H   0  0  0  0  0  0  0  0  0  0  0  0
    6.4796   -0.2637   -0.2137 H   0  0  0  0  0  0  0  0  0  0  0  0
    5.0612   -0.3662    2.0314 H   0  0  0  0  0  0  0  0  0  0  0  0
    4.1769   -0.4924    0.5492 H   0  0  0  0  0  0  0  0  0  0  0  0
    4.4722   -5.7751    1.0799 H   0  0  0  0  0  0  0  0  0  0  0  0
    4.7314   -6.1432    3.9156 H   0  0  0  0  0  0  0  0  0  0  0  0
    4.9096   -7.2646    2.5913 H   0  0  0  0  0  0  0  0  0  0  0  0
    6.9533   -5.6196    4.0265 H   0  0  0  0  0  0  0  0  0  0  0  0
    7.0902   -8.4735    2.9287 H   0  0  0  0  0  0  0  0  0  0  0  0
    6.9169   -7.9891    4.5987 H   0  0  0  0  0  0  0  0  0  0  0  0
    8.4066   -7.6449    3.7437 H   0  0  0  0  0  0  0  0  0  0  0  0
    8.2810   -5.1929    2.1931 H   0  0  0  0  0  0  0  0  0  0  0  0
    6.6818   -7.1231    0.5533 H   0  0  0  0  0  0  0  0  0  0  0  0
    8.2793   -7.5099    1.2077 H   0  0  0  0  0  0  0  0  0  0  0  0
    8.1080   -6.2651    0.0136 H   0  0  0  0  0  0  0  0  0  0  0  0
    6.6929   -4.6152   -0.6313 H   0  0  0  0  0  0  0  0  0  0  0  0
    7.8632   -3.7449    0.2823 H   0  0  0  0  0  0  0  0  0  0  0  0
    4.1226   -4.1063    0.0855 H   0  0  0  0  0  0  0  0  0  0  0  0
    1.9855   -3.3571    0.5028 H   0  0  0  0  0  0  0  0  0  0  0  0
    2.4657   -1.8682   -0.2544 H   0  0  0  0  0  0  0  0  0  0  0  0
    2.1360   -4.6370   -1.3723 H   0  0  0  0  0  0  0  0  0  0  0  0
    1.2781   -3.2762   -1.9775 H   0  0  0  0  0  0  0  0  0  0  0  0
    3.0907   -3.9361   -3.6350 H   0  0  0  0  0  0  0  0  0  0  0  0
    4.7329   -4.8039   -1.7438 H   0  0  0  0  0  0  0  0  0  0  0  0
    6.5136   -3.9488   -2.8528 H   0  0  0  0  0  0  0  0  0  0  0  0
  1  2  2  0
  1 28  1  0
  1 29  1  0
  2 25  1  0
  2  3  1  0
  3  4  2  0
  5  3  1  6
  5 22  1  0
  5 26  1  0
  5  6  1  0
  6 19  1  0
  6  7  1  0
  6 30  1  6
  7  8  1  0
  7 31  1  0
  7 32  1  0
  8  9  1  0
  8 33  1  0
  8 34  1  0
  9 21  1  0
  9 10  1  1
  9 22  1  0
 10 11  1  0
 11 12  1  0
 12 18  1  0
 12 13  1  0
 12 35  1  6
 13 14  1  0
 13 36  1  0
 13 37  1  0
 14 15  1  0
 14 16  1  0
 14 38  1  1
 15 39  1  0
 15 40  1  0
 15 41  1  0
 16 17  1  0
 16 18  1  0
 16 42  1  1
 17 43  1  0
 17 44  1  0
 17 45  1  0
 18 19  1  6
 18 20  1  0
 19 46  1  0
 19 47  1  0
 20 21  1  0
 22 23  1  0
 22 48  1  1
 23 24  1  0
 23 49  1  0
 23 50  1  0
 24 25  1  0
 24 51  1  0
 24 52  1  0
 25 26  1  0
 25 53  1  6
 26 27  1  0
 26 54  1  1
 27 55  1  0
M  END
>  <i_m_ct_stereo_status>  (74) 
1

>  <s_m_source_file>  (74) 
/var/tmp/pbs.5076255.sched01/tmpbmel7479/053vx75p8.sdf

>  <i_m_source_file_index>  (74) 
27

>  <i_lp_mmshare_version>  (74) 
48012

>  <i_f3d_flags>  (74) 
0

>  <s_epik_input>  (74) 
Tz1DMUMoPVtDSDJdKVtDQEBIXShbQ0BIXTJbT0hdKVtDSDJdW0NIMl1bQ0BASF0zW0NAQF00KFtDSDJdW0NIMl1bQ0BASF01W0NAQF0xMjMpT09bQ0BIXTZbQ0BAXShbQ0gyXTUpKE9PNClbQ0BIXShbQ0gzXSlbQ0BASF0oW0NIMl02KVtDSDNd

>  <s_epik_cmdline>  (74) 
J2VwaWtfcHl0aG9uJywgJy1waHQnLCAnMi4wJywgJy1waCcsICc3LjAnLCAnLXRuJywgJzgnLCAnLW1hJywgJzIwMCcsICctaW1hZScsICc8aW5maWxlLm1hZT4nLCAnLW9tYWUnLCAnPG91dGZpbGUubWFlPic=

>  <r_lp_tautomer_probability>  (74) 
1

>  <r_epik_Ionization_Penalty>  (74) 
2.02426e-07

>  <r_epik_Ionization_Penalty_Charging>  (74) 
0

>  <r_epik_Ionization_Penalty_Neutral>  (74) 
2.02426e-07

>  <r_epik_State_Penalty>  (74) 
-0

>  <r_epik_Charging_Adjusted_Penalty>  (74) 
0

>  <i_epik_Tot_Q>  (74) 
0

>  <i_epik_Tot_abs_Q>  (74) 
0

>  <s_lp_Force_Field>  (74) 
OPLS3e

>  <r_lp_Energy>  (74) 
135.571

>  <b_lp_Chiralities_Consistent>  (74) 
1

>  <s_lp_Variant>  (74) 
17:0-1

>  <s_i_glide_gridfile>  (74) 
pfpi4k_grid

>  <i_i_glide_lignum>  (74) 
27

>  <i_i_glide_rotatable_bonds>  (74) 
1

>  <r_i_docking_score>  (74) 
-2.635

>  <r_i_glide_ligand_efficiency>  (74) 
-0.0975928

>  <r_i_glide_ligand_efficiency_sa>  (74) 
-0.292778

>  <r_i_glide_ligand_efficiency_ln>  (74) 
-0.613386

>  <r_i_glide_gscore>  (74) 
-2.635

>  <r_i_glide_lipo>  (74) 
-0.63165

>  <r_i_glide_hbond>  (74) 
0

>  <r_i_glide_metal>  (74) 
-0

>  <r_i_glide_rewards>  (74) 
-0.865253

>  <r_i_glide_evdw>  (74) 
-15.2676

>  <r_i_glide_ecoul>  (74) 
-2.23213

>  <r_i_glide_erotb>  (74) 
0

>  <r_i_glide_esite>  (74) 
-0.0399006

>  <r_i_glide_emodel>  (74) 
-20.1086

>  <r_i_glide_energy>  (74) 
-17.4998

>  <r_i_glide_einternal>  (74) 
0.346961

>  <r_i_glide_intrahb_reward>  (74) 
-0

>  <i_i_glide_confnum>  (74) 
2

>  <i_i_glide_posenum>  (74) 
17

>  <r_i_glide_eff_state_penalty>  (74) 
0

>  <ligand_id>  (74) 
17

>  <original_smiles>  (74) 
C=C1C(=O)C23C4CCC5(OOC6CC(C)C(C)C6(C4)OO5)C2CCC1C3O

>  <smiles>  (74) 
[H]OC1([H])C2([H])C(=C([H])[H])C(=O)C13C1([H])C([H])([H])C([H])([H])C4(OOC5([H])C([H])([H])C([H])(C([H])([H])[H])C([H])(C([H])([H])[H])C5(OO4)C1([H])[H])C3([H])C([H])([H])C2([H])[H]

$$$$
18:0:0
     RDKit          3D

 16 16  0  0  1  0  0  0  0  0999 V2000
    3.9841   -0.9801    0.8709 N   0  0  0  0  0  0  0  0  0  0  0  0
    4.6506   -1.2385   -0.2529 C   0  0  0  0  0  0  0  0  0  0  0  0
    5.8559   -1.0373   -0.3735 O   0  0  0  0  0  0  0  0  0  0  0  0
    3.8255   -1.7695   -1.3875 C   0  0  0  0  0  0  0  0  0  0  0  0
    3.8597   -1.1333   -2.6518 C   0  0  0  0  0  0  0  0  0  0  0  0
    4.6105   -0.0276   -2.8328 F   0  0  0  0  0  0  0  0  0  0  0  0
    3.0894   -1.6259   -3.7233 C   0  0  0  0  0  0  0  0  0  0  0  0
    2.2763   -2.7576   -3.5335 C   0  0  0  0  0  0  0  0  0  0  0  0
    2.2302   -3.3905   -2.2783 C   0  0  0  0  0  0  0  0  0  0  0  0
    3.0143   -2.9153   -1.2117 C   0  0  0  0  0  0  0  0  0  0  0  0
    2.9591   -3.5545   -0.0138 F   0  0  0  0  0  0  0  0  0  0  0  0
    4.4764   -0.6210    1.6735 H   0  0  0  0  0  0  0  0  0  0  0  0
    3.1003   -1.1197   -4.6805 H   0  0  0  0  0  0  0  0  0  0  0  0
    1.6672   -3.1337   -4.3430 H   0  0  0  0  0  0  0  0  0  0  0  0
    1.5932   -4.2514   -2.1363 H   0  0  0  0  0  0  0  0  0  0  0  0
    2.9865   -1.1370    0.8930 H   0  0  0  0  0  0  0  0  0  0  0  0
  1  2  1  0
  1 12  1  0
  1 16  1  0
  2  3  2  0
  2  4  1  0
  4 10  2  0
  4  5  1  0
  5  6  1  0
  5  7  2  0
  7  8  1  0
  7 13  1  0
  8  9  2  0
  8 14  1  0
  9 10  1  0
  9 15  1  0
 10 11  1  0
M  END
>  <i_m_ct_stereo_status>  (75) 
1

>  <s_m_source_file>  (75) 
/var/tmp/pbs.5076255.sched01/tmpbmel7479/053vx75p8.sdf

>  <i_m_source_file_index>  (75) 
28

>  <i_lp_mmshare_version>  (75) 
48012

>  <i_f3d_flags>  (75) 
0

>  <s_epik_input>  (75) 
W0hdL049QyhcW09IXSljMWMoRilbY0hdW2NIXVtjSF1jMUY=

>  <s_epik_cmdline>  (75) 
J2VwaWtfcHl0aG9uJywgJy1waHQnLCAnMi4wJywgJy1waCcsICc3LjAnLCAnLXRuJywgJzgnLCAnLW1hJywgJzIwMCcsICctaW1hZScsICc8aW5maWxlLm1hZT4nLCAnLW9tYWUnLCAnPG91dGZpbGUubWFlPic=

>  <r_lp_tautomer_probability>  (75) 
1

>  <r_epik_Ionization_Penalty>  (75) 
1.33269e-06

>  <r_epik_Ionization_Penalty_Charging>  (75) 
0

>  <r_epik_Ionization_Penalty_Neutral>  (75) 
1.33269e-06

>  <r_epik_State_Penalty>  (75) 
-0

>  <r_epik_Charging_Adjusted_Penalty>  (75) 
0

>  <i_epik_Tot_Q>  (75) 
0

>  <i_epik_Tot_abs_Q>  (75) 
0

>  <s_lp_Force_Field>  (75) 
OPLS3e

>  <r_lp_Energy>  (75) 
3.41257

>  <b_lp_Chiralities_Consistent>  (75) 
1

>  <s_lp_Variant>  (75) 
18:0-1

>  <s_i_glide_gridfile>  (75) 
pfpi4k_grid

>  <i_i_glide_lignum>  (75) 
28

>  <i_i_glide_rotatable_bonds>  (75) 
1

>  <r_i_docking_score>  (75) 
-4.20124

>  <r_i_glide_ligand_efficiency>  (75) 
-0.381931

>  <r_i_glide_ligand_efficiency_sa>  (75) 
-0.849406

>  <r_i_glide_ligand_efficiency_ln>  (75) 
-1.23642

>  <r_i_glide_gscore>  (75) 
-4.20124

>  <r_i_glide_lipo>  (75) 
-0.664764

>  <r_i_glide_hbond>  (75) 
-0.0164594

>  <r_i_glide_metal>  (75) 
-0

>  <r_i_glide_rewards>  (75) 
-2.28602

>  <r_i_glide_evdw>  (75) 
-15.3413

>  <r_i_glide_ecoul>  (75) 
-2.85146

>  <r_i_glide_erotb>  (75) 
0

>  <r_i_glide_esite>  (75) 
-0.0392092

>  <r_i_glide_emodel>  (75) 
-23.2849

>  <r_i_glide_energy>  (75) 
-18.1927

>  <r_i_glide_einternal>  (75) 
0.53304

>  <r_i_glide_intrahb_reward>  (75) 
-0

>  <i_i_glide_confnum>  (75) 
1

>  <i_i_glide_posenum>  (75) 
37

>  <r_i_glide_eff_state_penalty>  (75) 
0

>  <ligand_id>  (75) 
18

>  <original_smiles>  (75) 
N=C(O)c1c(F)cccc1F

>  <smiles>  (75) 
[H]c1c([H])c(F)c(C(=O)N([H])[H])c(F)c1[H]

$$$$
18:0:1
     RDKit          3D

 16 16  0  0  1  0  0  0  0  0999 V2000
    5.1593   -0.6801    0.3964 N   0  0  0  0  0  0  0  0  0  0  0  0
    4.8187   -1.9481    0.1557 C   0  0  0  0  0  0  0  0  0  0  0  0
    5.1376   -2.8530    0.9231 O   0  0  0  0  0  0  0  0  0  0  0  0
    4.0037   -2.1949   -1.0876 C   0  0  0  0  0  0  0  0  0  0  0  0
    4.2838   -1.4938   -2.2854 C   0  0  0  0  0  0  0  0  0  0  0  0
    5.2861   -0.5938   -2.3155 F   0  0  0  0  0  0  0  0  0  0  0  0
    3.5351   -1.7215   -3.4575 C   0  0  0  0  0  0  0  0  0  0  0  0
    2.4985   -2.6690   -3.4464 C   0  0  0  0  0  0  0  0  0  0  0  0
    2.2163   -3.3818   -2.2678 C   0  0  0  0  0  0  0  0  0  0  0  0
    2.9637   -3.1560   -1.0950 C   0  0  0  0  0  0  0  0  0  0  0  0
    2.6458   -3.8544    0.0260 F   0  0  0  0  0  0  0  0  0  0  0  0
    5.7047   -0.4589    1.2155 H   0  0  0  0  0  0  0  0  0  0  0  0
    3.7573   -1.1624   -4.3580 H   0  0  0  0  0  0  0  0  0  0  0  0
    1.9033   -2.8498   -4.3280 H   0  0  0  0  0  0  0  0  0  0  0  0
    1.4163   -4.1101   -2.2621 H   0  0  0  0  0  0  0  0  0  0  0  0
    4.8926    0.0384   -0.2625 H   0  0  0  0  0  0  0  0  0  0  0  0
  1  2  1  0
  1 12  1  0
  1 16  1  0
  2  3  2  0
  2  4  1  0
  4 10  2  0
  4  5  1  0
  5  6  1  0
  5  7  2  0
  7  8  1  0
  7 13  1  0
  8  9  2  0
  8 14  1  0
  9 10  1  0
  9 15  1  0
 10 11  1  0
M  END
>  <i_m_ct_stereo_status>  (76) 
1

>  <s_m_source_file>  (76) 
/var/tmp/pbs.5076255.sched01/tmpbmel7479/053vx75p8.sdf

>  <i_m_source_file_index>  (76) 
28

>  <i_lp_mmshare_version>  (76) 
48012

>  <i_f3d_flags>  (76) 
0

>  <s_epik_input>  (76) 
W0hdL049QyhcW09IXSljMWMoRilbY0hdW2NIXVtjSF1jMUY=

>  <s_epik_cmdline>  (76) 
J2VwaWtfcHl0aG9uJywgJy1waHQnLCAnMi4wJywgJy1waCcsICc3LjAnLCAnLXRuJywgJzgnLCAnLW1hJywgJzIwMCcsICctaW1hZScsICc8aW5maWxlLm1hZT4nLCAnLW9tYWUnLCAnPG91dGZpbGUubWFlPic=

>  <r_lp_tautomer_probability>  (76) 
1

>  <r_epik_Ionization_Penalty>  (76) 
1.33269e-06

>  <r_epik_Ionization_Penalty_Charging>  (76) 
0

>  <r_epik_Ionization_Penalty_Neutral>  (76) 
1.33269e-06

>  <r_epik_State_Penalty>  (76) 
-0

>  <r_epik_Charging_Adjusted_Penalty>  (76) 
0

>  <i_epik_Tot_Q>  (76) 
0

>  <i_epik_Tot_abs_Q>  (76) 
0

>  <s_lp_Force_Field>  (76) 
OPLS3e

>  <r_lp_Energy>  (76) 
3.41257

>  <b_lp_Chiralities_Consistent>  (76) 
1

>  <s_lp_Variant>  (76) 
18:0-1

>  <s_i_glide_gridfile>  (76) 
pfpi4k_grid

>  <i_i_glide_lignum>  (76) 
28

>  <i_i_glide_rotatable_bonds>  (76) 
1

>  <r_i_docking_score>  (76) 
-4.16708

>  <r_i_glide_ligand_efficiency>  (76) 
-0.378825

>  <r_i_glide_ligand_efficiency_sa>  (76) 
-0.8425

>  <r_i_glide_ligand_efficiency_ln>  (76) 
-1.22637

>  <r_i_glide_gscore>  (76) 
-4.16708

>  <r_i_glide_lipo>  (76) 
-0.628095

>  <r_i_glide_hbond>  (76) 
-0.146828

>  <r_i_glide_metal>  (76) 
-0

>  <r_i_glide_rewards>  (76) 
-2.25

>  <r_i_glide_evdw>  (76) 
-14.6529

>  <r_i_glide_ecoul>  (76) 
-2.18896

>  <r_i_glide_erotb>  (76) 
0

>  <r_i_glide_esite>  (76) 
-0.081162

>  <r_i_glide_emodel>  (76) 
-22.2215

>  <r_i_glide_energy>  (76) 
-16.8419

>  <r_i_glide_einternal>  (76) 
0.00573887

>  <r_i_glide_intrahb_reward>  (76) 
-0

>  <i_i_glide_confnum>  (76) 
2

>  <i_i_glide_posenum>  (76) 
6

>  <r_i_glide_eff_state_penalty>  (76) 
0

>  <ligand_id>  (76) 
18

>  <original_smiles>  (76) 
N=C(O)c1c(F)cccc1F

>  <smiles>  (76) 
[H]c1c([H])c(F)c(C(=O)N([H])[H])c(F)c1[H]

$$$$
18:0:2
     RDKit          3D

 16 16  0  0  1  0  0  0  0  0999 V2000
   -1.3729    1.1509    2.0731 N   0  0  0  0  0  0  0  0  0  0  0  0
   -0.4699    1.3431    3.0316 C   0  0  0  0  0  0  0  0  0  0  0  0
    0.7321    1.1846    2.8378 O   0  0  0  0  0  0  0  0  0  0  0  0
   -1.0302    1.6872    4.3849 C   0  0  0  0  0  0  0  0  0  0  0  0
   -0.4939    1.0886    5.5530 C   0  0  0  0  0  0  0  0  0  0  0  0
    0.4999    0.1743    5.4724 F   0  0  0  0  0  0  0  0  0  0  0  0
   -1.0093    1.4135    6.8256 C   0  0  0  0  0  0  0  0  0  0  0  0
   -2.0577    2.3458    6.9488 C   0  0  0  0  0  0  0  0  0  0  0  0
   -2.5837    2.9550    5.7950 C   0  0  0  0  0  0  0  0  0  0  0  0
   -2.0762    2.6362    4.5212 C   0  0  0  0  0  0  0  0  0  0  0  0
   -2.6161    3.2543    3.4437 F   0  0  0  0  0  0  0  0  0  0  0  0
   -1.0634    0.9595    1.1211 H   0  0  0  0  0  0  0  0  0  0  0  0
   -0.5889    0.9525    7.7056 H   0  0  0  0  0  0  0  0  0  0  0  0
   -2.4509    2.6009    7.9219 H   0  0  0  0  0  0  0  0  0  0  0  0
   -3.3811    3.6745    5.8810 H   0  0  0  0  0  0  0  0  0  0  0  0
   -2.3562    1.2829    2.2771 H   0  0  0  0  0  0  0  0  0  0  0  0
  1  2  1  0
  1 12  1  0
  1 16  1  0
  2  3  2  0
  2  4  1  0
  4 10  2  0
  4  5  1  0
  5  6  1  0
  5  7  2  0
  7  8  1  0
  7 13  1  0
  8  9  2  0
  8 14  1  0
  9 10  1  0
  9 15  1  0
 10 11  1  0
M  END
>  <i_m_ct_stereo_status>  (77) 
1

>  <s_m_source_file>  (77) 
/var/tmp/pbs.5076255.sched01/tmpbmel7479/053vx75p8.sdf

>  <i_m_source_file_index>  (77) 
28

>  <i_lp_mmshare_version>  (77) 
48012

>  <i_f3d_flags>  (77) 
0

>  <s_epik_input>  (77) 
W0hdL049QyhcW09IXSljMWMoRilbY0hdW2NIXVtjSF1jMUY=

>  <s_epik_cmdline>  (77) 
J2VwaWtfcHl0aG9uJywgJy1waHQnLCAnMi4wJywgJy1waCcsICc3LjAnLCAnLXRuJywgJzgnLCAnLW1hJywgJzIwMCcsICctaW1hZScsICc8aW5maWxlLm1hZT4nLCAnLW9tYWUnLCAnPG91dGZpbGUubWFlPic=

>  <r_lp_tautomer_probability>  (77) 
1

>  <r_epik_Ionization_Penalty>  (77) 
1.33269e-06

>  <r_epik_Ionization_Penalty_Charging>  (77) 
0

>  <r_epik_Ionization_Penalty_Neutral>  (77) 
1.33269e-06

>  <r_epik_State_Penalty>  (77) 
-0

>  <r_epik_Charging_Adjusted_Penalty>  (77) 
0

>  <i_epik_Tot_Q>  (77) 
0

>  <i_epik_Tot_abs_Q>  (77) 
0

>  <s_lp_Force_Field>  (77) 
OPLS3e

>  <r_lp_Energy>  (77) 
3.41257

>  <b_lp_Chiralities_Consistent>  (77) 
1

>  <s_lp_Variant>  (77) 
18:0-1

>  <s_i_glide_gridfile>  (77) 
pfpi4k_grid

>  <i_i_glide_lignum>  (77) 
28

>  <i_i_glide_rotatable_bonds>  (77) 
1

>  <r_i_docking_score>  (77) 
-3.90318

>  <r_i_glide_ligand_efficiency>  (77) 
-0.354834

>  <r_i_glide_ligand_efficiency_sa>  (77) 
-0.789144

>  <r_i_glide_ligand_efficiency_ln>  (77) 
-1.1487

>  <r_i_glide_gscore>  (77) 
-3.90318

>  <r_i_glide_lipo>  (77) 
-0.0686967

>  <r_i_glide_hbond>  (77) 
-0.402402

>  <r_i_glide_metal>  (77) 
-0

>  <r_i_glide_rewards>  (77) 
-2.25

>  <r_i_glide_evdw>  (77) 
-12.0874

>  <r_i_glide_ecoul>  (77) 
-2.84912

>  <r_i_glide_erotb>  (77) 
0

>  <r_i_glide_esite>  (77) 
-0.150339

>  <r_i_glide_emodel>  (77) 
-19.9741

>  <r_i_glide_energy>  (77) 
-14.9365

>  <r_i_glide_einternal>  (77) 
0.0146994

>  <r_i_glide_intrahb_reward>  (77) 
-0

>  <i_i_glide_confnum>  (77) 
1

>  <i_i_glide_posenum>  (77) 
31

>  <r_i_glide_eff_state_penalty>  (77) 
0

>  <ligand_id>  (77) 
18

>  <original_smiles>  (77) 
N=C(O)c1c(F)cccc1F

>  <smiles>  (77) 
[H]c1c([H])c(F)c(C(=O)N([H])[H])c(F)c1[H]

$$$$
19:0:0
     RDKit          3D

 21 22  0  0  1  0  0  0  0  0999 V2000
    2.9261   -2.8794   -3.8782 C   0  0  0  0  0  0  0  0  0  0  0  0
    4.1461   -2.1359   -3.3115 C   0  0  0  0  0  0  0  0  0  0  0  0
    4.0568   -1.8302   -1.7988 C   0  0  0  0  0  0  0  0  0  0  0  0
    4.1879   -3.0542   -0.9456 N   0  0  0  0  0  0  0  0  0  0  0  0
    5.4421   -3.5391   -0.4279 C   0  0  0  0  0  0  0  0  0  0  0  0
    6.9664   -2.6126   -0.8381 S   0  0  0  0  0  0  0  0  0  0  0  0
    5.5285   -4.6110    0.3094 N   0  0  0  0  0  0  0  0  0  0  0  0
    4.3924   -5.3145    0.5880 C   0  0  0  0  0  0  0  0  0  0  0  0
    4.2273   -6.4260    1.3057 N   0  0  0  0  0  0  0  0  0  0  0  0
    2.8621   -6.6778    1.2717 N   0  0  0  0  0  0  0  0  0  0  0  0
    2.2354   -5.7871    0.5560 N   0  0  0  0  0  0  0  0  0  0  0  0
    3.1899   -4.9287    0.1337 N   0  0  0  0  0  0  0  0  0  0  0  0
    3.0534   -3.7472   -0.6674 C   0  0  0  0  0  0  0  0  0  0  0  0
    1.9144   -3.4634   -1.0435 O   0  0  0  0  0  0  0  0  0  0  0  0
    3.0192   -3.0545   -4.9474 H   0  0  0  0  0  0  0  0  0  0  0  0
    2.0032   -2.3233   -3.7096 H   0  0  0  0  0  0  0  0  0  0  0  0
    2.8001   -3.8585   -3.4226 H   0  0  0  0  0  0  0  0  0  0  0  0
    5.0498   -2.7101   -3.5205 H   0  0  0  0  0  0  0  0  0  0  0  0
    4.2477   -1.1993   -3.8555 H   0  0  0  0  0  0  0  0  0  0  0  0
    4.7570   -1.0360   -1.5371 H   0  0  0  0  0  0  0  0  0  0  0  0
    3.1060   -1.3354   -1.6032 H   0  0  0  0  0  0  0  0  0  0  0  0
  1  2  1  0
  1 15  1  0
  1 16  1  0
  1 17  1  0
  2  3  1  0
  2 18  1  0
  2 19  1  0
  3  4  1  0
  3 20  1  0
  3 21  1  0
  4 13  1  0
  4  5  1  0
  5  6  1  0
  5  7  2  0
  7  8  1  0
  8 12  1  0
  8  9  2  0
  9 10  1  0
 10 11  2  0
 11 12  1  0
 12 13  1  0
 13 14  2  0
M  CHG  1   6  -1
M  END
>  <i_m_ct_stereo_status>  (78) 
1

>  <s_m_source_file>  (78) 
/var/tmp/pbs.5076255.sched01/tmpbmel7479/053vx75p8.sdf

>  <i_m_source_file_index>  (78) 
29

>  <i_lp_mmshare_version>  (78) 
48012

>  <i_f3d_flags>  (78) 
0

>  <s_epik_input>  (78) 
W0NIM11bQ0gyXVtDSDJdbihjKD1TKVtuSF0xKWMoPU8pbihjMTIpbm5uMg==

>  <s_epik_cmdline>  (78) 
J2VwaWtfcHl0aG9uJywgJy1waHQnLCAnMi4wJywgJy1waCcsICc3LjAnLCAnLXRuJywgJzgnLCAnLW1hJywgJzIwMCcsICctaW1hZScsICc8aW5maWxlLm1hZT4nLCAnLW9tYWUnLCAnPG91dGZpbGUubWFlPic=

>  <r_epik_Ionization_Penalty>  (78) 
2.53008e-06

>  <r_epik_Ionization_Penalty_Charging>  (78) 
1.19438e-09

>  <r_epik_Ionization_Penalty_Neutral>  (78) 
2.52889e-06

>  <r_epik_State_Penalty>  (78) 
5.0415e-05

>  <r_epik_Charging_Adjusted_Penalty>  (78) 
5.04161e-05

>  <i_epik_Tot_Q>  (78) 
-1

>  <i_epik_Tot_abs_Q>  (78) 
1

>  <s_lp_Force_Field>  (78) 
OPLS3e

>  <r_lp_Energy>  (78) 
27.5686

>  <b_lp_Chiralities_Consistent>  (78) 
1

>  <s_lp_Variant>  (78) 
19:0-1

>  <s_i_glide_gridfile>  (78) 
pfpi4k_grid

>  <i_i_glide_lignum>  (78) 
29

>  <i_i_glide_rotatable_bonds>  (78) 
2

>  <r_i_docking_score>  (78) 
-3.99115

>  <r_i_glide_ligand_efficiency>  (78) 
-0.285082

>  <r_i_glide_ligand_efficiency_sa>  (78) 
-0.687089

>  <r_i_glide_ligand_efficiency_ln>  (78) 
-1.09675

>  <r_i_glide_gscore>  (78) 
-3.99115

>  <r_i_glide_lipo>  (78) 
-0.29615

>  <r_i_glide_hbond>  (78) 
-0.0858492

>  <r_i_glide_metal>  (78) 
-0

>  <r_i_glide_rewards>  (78) 
-2.12258

>  <r_i_glide_evdw>  (78) 
-18.2803

>  <r_i_glide_ecoul>  (78) 
-3.24828

>  <r_i_glide_erotb>  (78) 
0

>  <r_i_glide_esite>  (78) 
-0.0853172

>  <r_i_glide_emodel>  (78) 
-27.7844

>  <r_i_glide_energy>  (78) 
-21.5286

>  <r_i_glide_einternal>  (78) 
1.82121

>  <r_i_glide_intrahb_reward>  (78) 
-0

>  <i_i_glide_confnum>  (78) 
1

>  <i_i_glide_posenum>  (78) 
16

>  <r_i_glide_eff_state_penalty>  (78) 
0

>  <ligand_id>  (78) 
19

>  <original_smiles>  (78) 
CCCn1c(=S)[nH]c2nnnn2c1=O

>  <smiles>  (78) 
[H]C([H])([H])C([H])([H])C([H])([H])n1c([S-])nc2nnnn2c1=O

$$$$
19:0:1
     RDKit          3D

 21 22  0  0  1  0  0  0  0  0999 V2000
    3.9847   -0.9456   -4.1641 C   0  0  0  0  0  0  0  0  0  0  0  0
    4.2714   -2.1751   -3.2997 C   0  0  0  0  0  0  0  0  0  0  0  0
    3.9815   -1.9067   -1.8112 C   0  0  0  0  0  0  0  0  0  0  0  0
    4.1397   -3.1267   -0.9716 N   0  0  0  0  0  0  0  0  0  0  0  0
    5.3992   -3.5672   -0.4269 C   0  0  0  0  0  0  0  0  0  0  0  0
    6.8957   -2.5855   -0.8116 S   0  0  0  0  0  0  0  0  0  0  0  0
    5.5090   -4.6294    0.3170 N   0  0  0  0  0  0  0  0  0  0  0  0
    4.3907   -5.3563    0.5944 C   0  0  0  0  0  0  0  0  0  0  0  0
    4.2546   -6.4597    1.3236 N   0  0  0  0  0  0  0  0  0  0  0  0
    2.8984   -6.7444    1.2882 N   0  0  0  0  0  0  0  0  0  0  0  0
    2.2465   -5.8726    0.5782 N   0  0  0  0  0  0  0  0  0  0  0  0
    3.1816   -5.0060    0.1289 N   0  0  0  0  0  0  0  0  0  0  0  0
    3.0229   -3.8536   -0.7099 C   0  0  0  0  0  0  0  0  0  0  0  0
    1.8843   -3.6225   -1.1256 O   0  0  0  0  0  0  0  0  0  0  0  0
    4.2147   -1.1270   -5.2128 H   0  0  0  0  0  0  0  0  0  0  0  0
    4.5835   -0.0961   -3.8368 H   0  0  0  0  0  0  0  0  0  0  0  0
    2.9341   -0.6560   -4.1024 H   0  0  0  0  0  0  0  0  0  0  0  0
    3.6766   -3.0165   -3.6579 H   0  0  0  0  0  0  0  0  0  0  0  0
    5.3128   -2.4676   -3.4282 H   0  0  0  0  0  0  0  0  0  0  0  0
    4.5640   -1.0656   -1.4346 H   0  0  0  0  0  0  0  0  0  0  0  0
    2.9644   -1.5229   -1.7411 H   0  0  0  0  0  0  0  0  0  0  0  0
  1  2  1  0
  1 15  1  0
  1 16  1  0
  1 17  1  0
  2  3  1  0
  2 18  1  0
  2 19  1  0
  3  4  1  0
  3 20  1  0
  3 21  1  0
  4 13  1  0
  4  5  1  0
  5  6  1  0
  5  7  2  0
  7  8  1  0
  8 12  1  0
  8  9  2  0
  9 10  1  0
 10 11  2  0
 11 12  1  0
 12 13  1  0
 13 14  2  0
M  CHG  1   6  -1
M  END
>  <i_m_ct_stereo_status>  (79) 
1

>  <s_m_source_file>  (79) 
/var/tmp/pbs.5076255.sched01/tmpbmel7479/053vx75p8.sdf

>  <i_m_source_file_index>  (79) 
29

>  <i_lp_mmshare_version>  (79) 
48012

>  <i_f3d_flags>  (79) 
0

>  <s_epik_input>  (79) 
W0NIM11bQ0gyXVtDSDJdbihjKD1TKVtuSF0xKWMoPU8pbihjMTIpbm5uMg==

>  <s_epik_cmdline>  (79) 
J2VwaWtfcHl0aG9uJywgJy1waHQnLCAnMi4wJywgJy1waCcsICc3LjAnLCAnLXRuJywgJzgnLCAnLW1hJywgJzIwMCcsICctaW1hZScsICc8aW5maWxlLm1hZT4nLCAnLW9tYWUnLCAnPG91dGZpbGUubWFlPic=

>  <r_epik_Ionization_Penalty>  (79) 
2.53008e-06

>  <r_epik_Ionization_Penalty_Charging>  (79) 
1.19438e-09

>  <r_epik_Ionization_Penalty_Neutral>  (79) 
2.52889e-06

>  <r_epik_State_Penalty>  (79) 
5.0415e-05

>  <r_epik_Charging_Adjusted_Penalty>  (79) 
5.04161e-05

>  <i_epik_Tot_Q>  (79) 
-1

>  <i_epik_Tot_abs_Q>  (79) 
1

>  <s_lp_Force_Field>  (79) 
OPLS3e

>  <r_lp_Energy>  (79) 
27.5686

>  <b_lp_Chiralities_Consistent>  (79) 
1

>  <s_lp_Variant>  (79) 
19:0-1

>  <s_i_glide_gridfile>  (79) 
pfpi4k_grid

>  <i_i_glide_lignum>  (79) 
29

>  <i_i_glide_rotatable_bonds>  (79) 
2

>  <r_i_docking_score>  (79) 
-3.88093

>  <r_i_glide_ligand_efficiency>  (79) 
-0.277209

>  <r_i_glide_ligand_efficiency_sa>  (79) 
-0.668114

>  <r_i_glide_ligand_efficiency_ln>  (79) 
-1.06647

>  <r_i_glide_gscore>  (79) 
-3.88093

>  <r_i_glide_lipo>  (79) 
-0.242981

>  <r_i_glide_hbond>  (79) 
-0.0686154

>  <r_i_glide_metal>  (79) 
-0

>  <r_i_glide_rewards>  (79) 
-2.12204

>  <r_i_glide_evdw>  (79) 
-18.1845

>  <r_i_glide_ecoul>  (79) 
-2.97874

>  <r_i_glide_erotb>  (79) 
0

>  <r_i_glide_esite>  (79) 
-0.0912539

>  <r_i_glide_emodel>  (79) 
-28.0219

>  <r_i_glide_energy>  (79) 
-21.1632

>  <r_i_glide_einternal>  (79) 
0.279706

>  <r_i_glide_intrahb_reward>  (79) 
-0

>  <i_i_glide_confnum>  (79) 
1

>  <i_i_glide_posenum>  (79) 
1

>  <r_i_glide_eff_state_penalty>  (79) 
0

>  <ligand_id>  (79) 
19

>  <original_smiles>  (79) 
CCCn1c(=S)[nH]c2nnnn2c1=O

>  <smiles>  (79) 
[H]C([H])([H])C([H])([H])C([H])([H])n1c([S-])nc2nnnn2c1=O

$$$$
19:0:2
     RDKit          3D

 21 22  0  0  1  0  0  0  0  0999 V2000
    3.4091   -1.3749   -3.6393 C   0  0  0  0  0  0  0  0  0  0  0  0
    2.6432   -2.1634   -2.5608 C   0  0  0  0  0  0  0  0  0  0  0  0
    3.1590   -3.5830   -2.2397 C   0  0  0  0  0  0  0  0  0  0  0  0
    4.3354   -3.6414   -1.3369 N   0  0  0  0  0  0  0  0  0  0  0  0
    4.3121   -4.0978    0.0408 C   0  0  0  0  0  0  0  0  0  0  0  0
    2.7388   -4.7641    0.7042 S   0  0  0  0  0  0  0  0  0  0  0  0
    5.3730   -4.0839    0.7959 N   0  0  0  0  0  0  0  0  0  0  0  0
    6.5497   -3.6027    0.2895 C   0  0  0  0  0  0  0  0  0  0  0  0
    7.7584   -3.5021    0.8707 N   0  0  0  0  0  0  0  0  0  0  0  0
    8.5653   -2.9386   -0.1357 N   0  0  0  0  0  0  0  0  0  0  0  0
    7.9062   -2.7338   -1.2207 N   0  0  0  0  0  0  0  0  0  0  0  0
    6.6438   -3.1720   -0.9940 N   0  0  0  0  0  0  0  0  0  0  0  0
    5.5203   -3.2716   -1.8764 C   0  0  0  0  0  0  0  0  0  0  0  0
    5.7318   -3.0498   -3.0831 O   0  0  0  0  0  0  0  0  0  0  0  0
    2.8983   -0.4456   -3.8782 H   0  0  0  0  0  0  0  0  0  0  0  0
    3.4835   -1.9695   -4.5489 H   0  0  0  0  0  0  0  0  0  0  0  0
    4.4154   -1.1345   -3.2981 H   0  0  0  0  0  0  0  0  0  0  0  0
    2.6040   -1.5962   -1.6370 H   0  0  0  0  0  0  0  0  0  0  0  0
    1.5957   -2.2671   -2.8777 H   0  0  0  0  0  0  0  0  0  0  0  0
    2.2944   -4.1539   -1.9218 H   0  0  0  0  0  0  0  0  0  0  0  0
    3.4035   -4.0671   -3.1879 H   0  0  0  0  0  0  0  0  0  0  0  0
  1  2  1  0
  1 15  1  0
  1 16  1  0
  1 17  1  0
  2  3  1  0
  2 18  1  0
  2 19  1  0
  3  4  1  0
  3 20  1  0
  3 21  1  0
  4 13  1  0
  4  5  1  0
  5  6  1  0
  5  7  2  0
  7  8  1  0
  8 12  1  0
  8  9  2  0
  9 10  1  0
 10 11  2  0
 11 12  1  0
 12 13  1  0
 13 14  2  0
M  CHG  1   6  -1
M  END
>  <i_m_ct_stereo_status>  (80) 
1

>  <s_m_source_file>  (80) 
/var/tmp/pbs.5076255.sched01/tmpbmel7479/053vx75p8.sdf

>  <i_m_source_file_index>  (80) 
29

>  <i_lp_mmshare_version>  (80) 
48012

>  <i_f3d_flags>  (80) 
0

>  <s_epik_input>  (80) 
W0NIM11bQ0gyXVtDSDJdbihjKD1TKVtuSF0xKWMoPU8pbihjMTIpbm5uMg==

>  <s_epik_cmdline>  (80) 
J2VwaWtfcHl0aG9uJywgJy1waHQnLCAnMi4wJywgJy1waCcsICc3LjAnLCAnLXRuJywgJzgnLCAnLW1hJywgJzIwMCcsICctaW1hZScsICc8aW5maWxlLm1hZT4nLCAnLW9tYWUnLCAnPG91dGZpbGUubWFlPic=

>  <r_epik_Ionization_Penalty>  (80) 
2.53008e-06

>  <r_epik_Ionization_Penalty_Charging>  (80) 
1.19438e-09

>  <r_epik_Ionization_Penalty_Neutral>  (80) 
2.52889e-06

>  <r_epik_State_Penalty>  (80) 
5.0415e-05

>  <r_epik_Charging_Adjusted_Penalty>  (80) 
5.04161e-05

>  <i_epik_Tot_Q>  (80) 
-1

>  <i_epik_Tot_abs_Q>  (80) 
1

>  <s_lp_Force_Field>  (80) 
OPLS3e

>  <r_lp_Energy>  (80) 
27.5686

>  <b_lp_Chiralities_Consistent>  (80) 
1

>  <s_lp_Variant>  (80) 
19:0-1

>  <s_i_glide_gridfile>  (80) 
pfpi4k_grid

>  <i_i_glide_lignum>  (80) 
29

>  <i_i_glide_rotatable_bonds>  (80) 
2

>  <r_i_docking_score>  (80) 
-3.68092

>  <r_i_glide_ligand_efficiency>  (80) 
-0.262923

>  <r_i_glide_ligand_efficiency_sa>  (80) 
-0.633681

>  <r_i_glide_ligand_efficiency_ln>  (80) 
-1.0115

>  <r_i_glide_gscore>  (80) 
-3.68092

>  <r_i_glide_lipo>  (80) 
-0.23132

>  <r_i_glide_hbond>  (80) 
0

>  <r_i_glide_metal>  (80) 
-0

>  <r_i_glide_rewards>  (80) 
-2.43542

>  <r_i_glide_evdw>  (80) 
-17.9285

>  <r_i_glide_ecoul>  (80) 
-0.224853

>  <r_i_glide_erotb>  (80) 
0

>  <r_i_glide_esite>  (80) 
-0.084023

>  <r_i_glide_emodel>  (80) 
-22.3235

>  <r_i_glide_energy>  (80) 
-18.1534

>  <r_i_glide_einternal>  (80) 
3.25231

>  <r_i_glide_intrahb_reward>  (80) 
-0

>  <i_i_glide_confnum>  (80) 
1

>  <i_i_glide_posenum>  (80) 
3

>  <r_i_glide_eff_state_penalty>  (80) 
0

>  <ligand_id>  (80) 
19

>  <original_smiles>  (80) 
CCCn1c(=S)[nH]c2nnnn2c1=O

>  <smiles>  (80) 
[H]C([H])([H])C([H])([H])C([H])([H])n1c([S-])nc2nnnn2c1=O

$$$$
20:0:0
     RDKit          3D

 31 34  0  0  1  0  0  0  0  0999 V2000
   -2.6772    2.7774    7.9799 C   0  0  0  0  0  0  0  0  0  0  0  0
   -2.0416    2.5834    6.6951 N   0  0  0  0  0  0  0  0  0  0  0  0
   -1.4192    3.5147    5.8936 C   0  0  0  0  0  0  0  0  0  0  0  0
   -0.9605    2.8755    4.7742 C   0  0  0  0  0  0  0  0  0  0  0  0
   -0.1874    3.4467    3.5979 C   0  0  2  0  0  0  0  0  0  0  0  0
    0.6060    2.3261    2.9206 C   0  0  0  0  0  0  0  0  0  0  0  0
    0.2262    1.3330    2.1109 C   0  0  0  0  0  0  0  0  0  0  0  0
   -0.9997    1.0188    1.6895 O   0  0  0  0  0  0  0  0  0  0  0  0
    1.3671    0.4899    1.5768 C   0  0  0  0  0  0  0  0  0  0  0  0
    2.4880    1.2505    2.2576 C   0  0  0  0  0  0  0  0  0  0  0  0
    2.0328    2.2860    2.9820 C   0  0  0  0  0  0  0  0  0  0  0  0
    2.7459    3.2627    3.6451 N   0  0  0  0  0  0  0  0  0  0  0  0
    2.0983    4.4036    4.1227 C   0  0  0  0  0  0  0  0  0  0  0  0
    2.6708    5.4778    4.6397 N   0  0  0  0  0  0  0  0  0  0  0  0
    1.5510    6.2469    4.8402 C   0  0  0  0  0  0  0  0  0  0  0  0
    0.3790    5.6921    4.5104 N   0  0  0  0  0  0  0  0  0  0  0  0
    0.7591    4.4757    4.0527 N   0  0  0  0  0  0  0  0  0  0  0  0
   -1.3822    1.5279    4.9966 C   0  0  0  0  0  0  0  0  0  0  0  0
   -2.0027    1.3510    6.1565 N   0  0  0  0  0  0  0  0  0  0  0  0
   -2.7249    3.8370    8.2246 H   0  0  0  0  0  0  0  0  0  0  0  0
   -2.1088    2.2587    8.7515 H   0  0  0  0  0  0  0  0  0  0  0  0
   -3.6933    2.3895    7.9480 H   0  0  0  0  0  0  0  0  0  0  0  0
   -1.3446    4.5469    6.1983 H   0  0  0  0  0  0  0  0  0  0  0  0
   -0.8506    3.9068    2.8751 H   0  0  0  0  0  0  0  0  0  0  0  0
    3.7547    3.2599    3.6090 H   0  0  0  0  0  0  0  0  0  0  0  0
    1.4701    0.5429    0.4894 H   0  0  0  0  0  0  0  0  0  0  0  0
    1.3250   -0.5424    1.9273 H   0  0  0  0  0  0  0  0  0  0  0  0
    3.5304    1.0084    2.1150 H   0  0  0  0  0  0  0  0  0  0  0  0
    1.5955    7.2439    5.2704 H   0  0  0  0  0  0  0  0  0  0  0  0
   -1.2399    0.6628    4.3591 H   0  0  0  0  0  0  0  0  0  0  0  0
   -0.9169    0.6986    0.7813 H   0  0  0  0  0  0  0  0  0  0  0  0
  1  2  1  0
  1 20  1  0
  1 21  1  0
  1 22  1  0
  2 19  1  0
  2  3  1  0
  3  4  2  0
  3 23  1  0
  4  5  1  0
  4 18  1  0
  5 17  1  0
  5 24  1  6
  5  6  1  0
  6  7  2  0
  6 11  1  0
  7  8  1  0
  7  9  1  0
  8 31  1  0
  9 10  1  0
  9 26  1  0
  9 27  1  0
 10 28  1  0
 10 11  2  0
 11 12  1  0
 12 13  1  0
 12 25  1  0
 13 17  1  0
 13 14  2  0
 14 15  1  0
 15 16  2  0
 15 29  1  0
 16 17  1  0
 18 19  2  0
 18 30  1  0
M  END
>  <i_m_ct_stereo_status>  (81) 
1

>  <s_m_source_file>  (81) 
/var/tmp/pbs.5076255.sched01/tmpbmel7479/053vx75p8.sdf

>  <i_m_source_file_index>  (81) 
30

>  <i_lp_mmshare_version>  (81) 
48012

>  <i_f3d_flags>  (81) 
0

>  <s_epik_input>  (81) 
W0NIM11uMVtjSF1jKFtjSF1uMSlbQ0BIXTJuKG5bY0hdbjMpYzNOPUMoW0NAQEhdMjQpW0NIMl1bQ0gyXUM0PU8=

>  <s_epik_cmdline>  (81) 
J2VwaWtfcHl0aG9uJywgJy1waHQnLCAnMi4wJywgJy1waCcsICc3LjAnLCAnLXRuJywgJzgnLCAnLW1hJywgJzIwMCcsICctaW1hZScsICc8aW5maWxlLm1hZT4nLCAnLW9tYWUnLCAnPG91dGZpbGUubWFlPic=

>  <r_lp_tautomer_probability>  (81) 
1

>  <r_epik_Ionization_Penalty>  (81) 
0.41064

>  <r_epik_Ionization_Penalty_Charging>  (81) 
9.11783e-11

>  <r_epik_Ionization_Penalty_Neutral>  (81) 
0.41064

>  <r_epik_State_Penalty>  (81) 
0.410545

>  <r_epik_Charging_Adjusted_Penalty>  (81) 
0.410545

>  <i_epik_Tot_Q>  (81) 
0

>  <i_epik_Tot_abs_Q>  (81) 
0

>  <s_epik_Chemistry_Notes>  (81) 
This compound has an imine and may undergo hydrolysis.

>  <s_lp_Force_Field>  (81) 
OPLS3e

>  <r_lp_Energy>  (81) 
7.65148

>  <b_lp_Chiralities_Consistent>  (81) 
1

>  <s_lp_Variant>  (81) 
20:0-1

>  <s_i_glide_gridfile>  (81) 
pfpi4k_grid

>  <i_i_glide_lignum>  (81) 
30

>  <i_i_glide_rotatable_bonds>  (81) 
2

>  <r_i_docking_score>  (81) 
-3.88998

>  <r_i_glide_ligand_efficiency>  (81) 
-0.204736

>  <r_i_glide_ligand_efficiency_sa>  (81) 
-0.546318

>  <r_i_glide_ligand_efficiency_ln>  (81) 
-0.986194

>  <r_i_glide_gscore>  (81) 
-3.88998

>  <r_i_glide_lipo>  (81) 
-0.125366

>  <r_i_glide_hbond>  (81) 
-0.195398

>  <r_i_glide_metal>  (81) 
-0

>  <r_i_glide_rewards>  (81) 
-1.76053

>  <r_i_glide_evdw>  (81) 
-19.8817

>  <r_i_glide_ecoul>  (81) 
-6.33181

>  <r_i_glide_erotb>  (81) 
0.268354

>  <r_i_glide_esite>  (81) 
-0.133188

>  <r_i_glide_emodel>  (81) 
-30.8374

>  <r_i_glide_energy>  (81) 
-26.2135

>  <r_i_glide_einternal>  (81) 
4.81643

>  <r_i_glide_intrahb_reward>  (81) 
-0

>  <i_i_glide_confnum>  (81) 
2

>  <i_i_glide_posenum>  (81) 
5

>  <r_i_glide_eff_state_penalty>  (81) 
0

>  <ligand_id>  (81) 
20

>  <original_smiles>  (81) 
Cn1cc(C2C3C(=O)CCC3=Nc3ncnn32)cn1

>  <smiles>  (81) 
[H]OC1=C2C(=C([H])C1([H])[H])N([H])c1nc([H])nn1C2([H])c1c([H])nn(C([H])([H])[H])c1[H]

$$$$
20:0:1
     RDKit          3D

 31 34  0  0  1  0  0  0  0  0999 V2000
   -3.1309    2.6697    7.8322 C   0  0  0  0  0  0  0  0  0  0  0  0
   -2.0436    2.9329    6.9124 N   0  0  0  0  0  0  0  0  0  0  0  0
   -2.0913    3.2112    5.5597 C   0  0  0  0  0  0  0  0  0  0  0  0
   -0.8082    3.4018    5.1270 C   0  0  0  0  0  0  0  0  0  0  0  0
   -0.2937    3.7453    3.7461 C   0  0  2  0  0  0  0  0  0  0  0  0
    0.3954    2.5162    3.1625 C   0  0  0  0  0  0  0  0  0  0  0  0
   -0.0911    1.3770    2.6563 C   0  0  0  0  0  0  0  0  0  0  0  0
   -1.3555    0.9551    2.5410 O   0  0  0  0  0  0  0  0  0  0  0  0
    0.9612    0.4525    2.0921 C   0  0  0  0  0  0  0  0  0  0  0  0
    2.1634    1.3316    2.3708 C   0  0  0  0  0  0  0  0  0  0  0  0
    1.8146    2.4880    2.9525 C   0  0  0  0  0  0  0  0  0  0  0  0
    2.6120    3.5680    3.2631 N   0  0  0  0  0  0  0  0  0  0  0  0
    2.0245    4.7766    3.6378 C   0  0  0  0  0  0  0  0  0  0  0  0
    2.6400    5.9319    3.8247 N   0  0  0  0  0  0  0  0  0  0  0  0
    1.5557    6.7163    4.1104 C   0  0  0  0  0  0  0  0  0  0  0  0
    0.3686    6.1045    4.1625 N   0  0  0  0  0  0  0  0  0  0  0  0
    0.6903    4.8295    3.8313 N   0  0  0  0  0  0  0  0  0  0  0  0
   -0.0374    3.2072    6.3139 C   0  0  0  0  0  0  0  0  0  0  0  0
   -0.7799    2.9240    7.3737 N   0  0  0  0  0  0  0  0  0  0  0  0
   -4.0691    2.5639    7.2885 H   0  0  0  0  0  0  0  0  0  0  0  0
   -3.2252    3.4828    8.5524 H   0  0  0  0  0  0  0  0  0  0  0  0
   -2.9345    1.7473    8.3803 H   0  0  0  0  0  0  0  0  0  0  0  0
   -3.0346    3.2574    5.0310 H   0  0  0  0  0  0  0  0  0  0  0  0
   -1.0878    4.0671    3.0715 H   0  0  0  0  0  0  0  0  0  0  0  0
    3.6001    3.5488    3.0478 H   0  0  0  0  0  0  0  0  0  0  0  0
    0.8347    0.3008    1.0207 H   0  0  0  0  0  0  0  0  0  0  0  0
    1.0134   -0.4928    2.6300 H   0  0  0  0  0  0  0  0  0  0  0  0
    3.1644    1.0590    2.0746 H   0  0  0  0  0  0  0  0  0  0  0  0
    1.6485    7.7766    4.3020 H   0  0  0  0  0  0  0  0  0  0  0  0
    1.0352    3.2778    6.4434 H   0  0  0  0  0  0  0  0  0  0  0  0
   -1.9113    1.6339    2.8850 H   0  0  0  0  0  0  0  0  0  0  0  0
  1  2  1  0
  1 20  1  0
  1 21  1  0
  1 22  1  0
  2 19  1  0
  2  3  1  0
  3  4  2  0
  3 23  1  0
  4  5  1  0
  4 18  1  0
  5 17  1  0
  5 24  1  6
  5  6  1  0
  6  7  2  0
  6 11  1  0
  7  8  1  0
  7  9  1  0
  8 31  1  0
  9 10  1  0
  9 26  1  0
  9 27  1  0
 10 28  1  0
 10 11  2  0
 11 12  1  0
 12 13  1  0
 12 25  1  0
 13 17  1  0
 13 14  2  0
 14 15  1  0
 15 16  2  0
 15 29  1  0
 16 17  1  0
 18 19  2  0
 18 30  1  0
M  END
>  <i_m_ct_stereo_status>  (82) 
1

>  <s_m_source_file>  (82) 
/var/tmp/pbs.5076255.sched01/tmpbmel7479/053vx75p8.sdf

>  <i_m_source_file_index>  (82) 
30

>  <i_lp_mmshare_version>  (82) 
48012

>  <i_f3d_flags>  (82) 
0

>  <s_epik_input>  (82) 
W0NIM11uMVtjSF1jKFtjSF1uMSlbQ0BIXTJuKG5bY0hdbjMpYzNOPUMoW0NAQEhdMjQpW0NIMl1bQ0gyXUM0PU8=

>  <s_epik_cmdline>  (82) 
J2VwaWtfcHl0aG9uJywgJy1waHQnLCAnMi4wJywgJy1waCcsICc3LjAnLCAnLXRuJywgJzgnLCAnLW1hJywgJzIwMCcsICctaW1hZScsICc8aW5maWxlLm1hZT4nLCAnLW9tYWUnLCAnPG91dGZpbGUubWFlPic=

>  <r_lp_tautomer_probability>  (82) 
1

>  <r_epik_Ionization_Penalty>  (82) 
0.41064

>  <r_epik_Ionization_Penalty_Charging>  (82) 
9.11783e-11

>  <r_epik_Ionization_Penalty_Neutral>  (82) 
0.41064

>  <r_epik_State_Penalty>  (82) 
0.410545

>  <r_epik_Charging_Adjusted_Penalty>  (82) 
0.410545

>  <i_epik_Tot_Q>  (82) 
0

>  <i_epik_Tot_abs_Q>  (82) 
0

>  <s_epik_Chemistry_Notes>  (82) 
This compound has an imine and may undergo hydrolysis.

>  <s_lp_Force_Field>  (82) 
OPLS3e

>  <r_lp_Energy>  (82) 
7.65148

>  <b_lp_Chiralities_Consistent>  (82) 
1

>  <s_lp_Variant>  (82) 
20:0-1

>  <s_i_glide_gridfile>  (82) 
pfpi4k_grid

>  <i_i_glide_lignum>  (82) 
30

>  <i_i_glide_rotatable_bonds>  (82) 
2

>  <r_i_docking_score>  (82) 
-3.59705

>  <r_i_glide_ligand_efficiency>  (82) 
-0.189319

>  <r_i_glide_ligand_efficiency_sa>  (82) 
-0.505178

>  <r_i_glide_ligand_efficiency_ln>  (82) 
-0.91193

>  <r_i_glide_gscore>  (82) 
-3.59705

>  <r_i_glide_lipo>  (82) 
-0.176232

>  <r_i_glide_hbond>  (82) 
-0.12772

>  <r_i_glide_metal>  (82) 
-0

>  <r_i_glide_rewards>  (82) 
-1.76475

>  <r_i_glide_evdw>  (82) 
-22.1212

>  <r_i_glide_ecoul>  (82) 
-3.13898

>  <r_i_glide_erotb>  (82) 
0.268354

>  <r_i_glide_esite>  (82) 
-0.219795

>  <r_i_glide_emodel>  (82) 
-32.1729

>  <r_i_glide_energy>  (82) 
-25.2602

>  <r_i_glide_einternal>  (82) 
0.250445

>  <r_i_glide_intrahb_reward>  (82) 
-0

>  <i_i_glide_confnum>  (82) 
4

>  <i_i_glide_posenum>  (82) 
31

>  <r_i_glide_eff_state_penalty>  (82) 
0

>  <ligand_id>  (82) 
20

>  <original_smiles>  (82) 
Cn1cc(C2C3C(=O)CCC3=Nc3ncnn32)cn1

>  <smiles>  (82) 
[H]OC1=C2C(=C([H])C1([H])[H])N([H])c1nc([H])nn1C2([H])c1c([H])nn(C([H])([H])[H])c1[H]

$$$$
20:0:2
     RDKit          3D

 31 34  0  0  1  0  0  0  0  0999 V2000
   -1.4948    2.7627    8.7727 C   0  0  0  0  0  0  0  0  0  0  0  0
   -1.4067    2.6329    7.3343 N   0  0  0  0  0  0  0  0  0  0  0  0
   -0.6977    3.4111    6.4422 C   0  0  0  0  0  0  0  0  0  0  0  0
   -0.9089    2.9171    5.1825 C   0  0  0  0  0  0  0  0  0  0  0  0
   -0.3669    3.4098    3.8501 C   0  0  2  0  0  0  0  0  0  0  0  0
    0.5154    2.3278    3.2321 C   0  0  0  0  0  0  0  0  0  0  0  0
    0.2219    1.1682    2.6280 C   0  0  0  0  0  0  0  0  0  0  0  0
   -0.9604    0.5873    2.4214 O   0  0  0  0  0  0  0  0  0  0  0  0
    1.4235    0.4308    2.0846 C   0  0  0  0  0  0  0  0  0  0  0  0
    2.4723    1.4479    2.4996 C   0  0  0  0  0  0  0  0  0  0  0  0
    1.9345    2.5043    3.1175 C   0  0  0  0  0  0  0  0  0  0  0  0
    2.5530    3.6636    3.5485 N   0  0  0  0  0  0  0  0  0  0  0  0
    1.7827    4.7556    3.9414 C   0  0  0  0  0  0  0  0  0  0  0  0
    2.2153    5.9682    4.2428 N   0  0  0  0  0  0  0  0  0  0  0  0
    1.0153    6.5806    4.4832 C   0  0  0  0  0  0  0  0  0  0  0  0
   -0.0738    5.8144    4.4002 N   0  0  0  0  0  0  0  0  0  0  0  0
    0.4457    4.6167    4.0366 N   0  0  0  0  0  0  0  0  0  0  0  0
   -1.7793    1.8123    5.4268 C   0  0  0  0  0  0  0  0  0  0  0  0
   -2.0686    1.6395    6.7114 N   0  0  0  0  0  0  0  0  0  0  0  0
   -1.0091    3.6834    9.0977 H   0  0  0  0  0  0  0  0  0  0  0  0
   -0.9981    1.9197    9.2496 H   0  0  0  0  0  0  0  0  0  0  0  0
   -2.5392    2.7890    9.0869 H   0  0  0  0  0  0  0  0  0  0  0  0
   -0.1053    4.2547    6.7785 H   0  0  0  0  0  0  0  0  0  0  0  0
   -1.1663    3.6532    3.1496 H   0  0  0  0  0  0  0  0  0  0  0  0
    3.5460    3.7886    3.4073 H   0  0  0  0  0  0  0  0  0  0  0  0
    1.3981    0.3195    0.9987 H   0  0  0  0  0  0  0  0  0  0  0  0
    1.5793   -0.5315    2.5717 H   0  0  0  0  0  0  0  0  0  0  0  0
    3.5149    1.3272    2.2599 H   0  0  0  0  0  0  0  0  0  0  0  0
    0.9424    7.6263    4.7524 H   0  0  0  0  0  0  0  0  0  0  0  0
   -2.2098    1.1275    4.7100 H   0  0  0  0  0  0  0  0  0  0  0  0
   -1.6261    1.1809    2.7266 H   0  0  0  0  0  0  0  0  0  0  0  0
  1  2  1  0
  1 20  1  0
  1 21  1  0
  1 22  1  0
  2 19  1  0
  2  3  1  0
  3  4  2  0
  3 23  1  0
  4  5  1  0
  4 18  1  0
  5 17  1  0
  5 24  1  6
  5  6  1  0
  6  7  2  0
  6 11  1  0
  7  8  1  0
  7  9  1  0
  8 31  1  0
  9 10  1  0
  9 26  1  0
  9 27  1  0
 10 28  1  0
 10 11  2  0
 11 12  1  0
 12 13  1  0
 12 25  1  0
 13 17  1  0
 13 14  2  0
 14 15  1  0
 15 16  2  0
 15 29  1  0
 16 17  1  0
 18 19  2  0
 18 30  1  0
M  END
>  <i_m_ct_stereo_status>  (83) 
1

>  <s_m_source_file>  (83) 
/var/tmp/pbs.5076255.sched01/tmpbmel7479/053vx75p8.sdf

>  <i_m_source_file_index>  (83) 
30

>  <i_lp_mmshare_version>  (83) 
48012

>  <i_f3d_flags>  (83) 
0

>  <s_epik_input>  (83) 
W0NIM11uMVtjSF1jKFtjSF1uMSlbQ0BIXTJuKG5bY0hdbjMpYzNOPUMoW0NAQEhdMjQpW0NIMl1bQ0gyXUM0PU8=

>  <s_epik_cmdline>  (83) 
J2VwaWtfcHl0aG9uJywgJy1waHQnLCAnMi4wJywgJy1waCcsICc3LjAnLCAnLXRuJywgJzgnLCAnLW1hJywgJzIwMCcsICctaW1hZScsICc8aW5maWxlLm1hZT4nLCAnLW9tYWUnLCAnPG91dGZpbGUubWFlPic=

>  <r_lp_tautomer_probability>  (83) 
1

>  <r_epik_Ionization_Penalty>  (83) 
0.41064

>  <r_epik_Ionization_Penalty_Charging>  (83) 
9.11783e-11

>  <r_epik_Ionization_Penalty_Neutral>  (83) 
0.41064

>  <r_epik_State_Penalty>  (83) 
0.410545

>  <r_epik_Charging_Adjusted_Penalty>  (83) 
0.410545

>  <i_epik_Tot_Q>  (83) 
0

>  <i_epik_Tot_abs_Q>  (83) 
0

>  <s_epik_Chemistry_Notes>  (83) 
This compound has an imine and may undergo hydrolysis.

>  <s_lp_Force_Field>  (83) 
OPLS3e

>  <r_lp_Energy>  (83) 
7.65148

>  <b_lp_Chiralities_Consistent>  (83) 
1

>  <s_lp_Variant>  (83) 
20:0-1

>  <s_i_glide_gridfile>  (83) 
pfpi4k_grid

>  <i_i_glide_lignum>  (83) 
30

>  <i_i_glide_rotatable_bonds>  (83) 
2

>  <r_i_docking_score>  (83) 
-3.43889

>  <r_i_glide_ligand_efficiency>  (83) 
-0.180994

>  <r_i_glide_ligand_efficiency_sa>  (83) 
-0.482966

>  <r_i_glide_ligand_efficiency_ln>  (83) 
-0.871833

>  <r_i_glide_gscore>  (83) 
-3.43889

>  <r_i_glide_lipo>  (83) 
-0.0226498

>  <r_i_glide_hbond>  (83) 
-0.000655375

>  <r_i_glide_metal>  (83) 
-0

>  <r_i_glide_rewards>  (83) 
-1.68501

>  <r_i_glide_evdw>  (83) 
-19.7595

>  <r_i_glide_ecoul>  (83) 
-5.39105

>  <r_i_glide_erotb>  (83) 
0.268354

>  <r_i_glide_esite>  (83) 
-0.202302

>  <r_i_glide_emodel>  (83) 
-31.5215

>  <r_i_glide_energy>  (83) 
-25.1505

>  <r_i_glide_einternal>  (83) 
0.785614

>  <r_i_glide_intrahb_reward>  (83) 
-0

>  <i_i_glide_confnum>  (83) 
4

>  <i_i_glide_posenum>  (83) 
11

>  <r_i_glide_eff_state_penalty>  (83) 
0

>  <ligand_id>  (83) 
20

>  <original_smiles>  (83) 
Cn1cc(C2C3C(=O)CCC3=Nc3ncnn32)cn1

>  <smiles>  (83) 
[H]OC1=C2C(=C([H])C1([H])[H])N([H])c1nc([H])nn1C2([H])c1c([H])nn(C([H])([H])[H])c1[H]

$$$$
20:1:0
     RDKit          3D

 30 33  0  0  1  0  0  0  0  0999 V2000
   -3.4056    3.2179    9.6430 C   0  0  0  0  0  0  0  0  0  0  0  0
   -2.5812    2.6459    8.5945 N   0  0  0  0  0  0  0  0  0  0  0  0
   -2.8411    2.5404    7.2434 C   0  0  0  0  0  0  0  0  0  0  0  0
   -1.7566    1.9436    6.6531 C   0  0  0  0  0  0  0  0  0  0  0  0
   -1.5147    1.6170    5.1922 C   0  0  2  0  0  0  0  0  0  0  0  0
   -0.7208    0.3179    5.0910 C   0  0  0  0  0  0  0  0  0  0  0  0
   -1.1164   -0.9871    5.3046 C   0  0  0  0  0  0  0  0  0  0  0  0
   -2.1557   -1.5742    5.6805 O   0  0  0  0  0  0  0  0  0  0  0  0
    0.0387   -1.9421    4.9871 C   0  0  0  0  0  0  0  0  0  0  0  0
    1.0910   -0.9508    4.5565 C   0  0  0  0  0  0  0  0  0  0  0  0
    0.6315    0.2989    4.6063 C   0  0  0  0  0  0  0  0  0  0  0  0
    1.2616    1.4647    4.2172 N   0  0  0  0  0  0  0  0  0  0  0  0
    0.5448    2.6553    4.1501 C   0  0  0  0  0  0  0  0  0  0  0  0
    0.9809    3.8111    3.6747 N   0  0  0  0  0  0  0  0  0  0  0  0
   -0.1785    4.5363    3.7607 C   0  0  0  0  0  0  0  0  0  0  0  0
   -1.2304    3.9219    4.3174 N   0  0  0  0  0  0  0  0  0  0  0  0
   -0.7345    2.6857    4.5648 N   0  0  0  0  0  0  0  0  0  0  0  0
   -0.8710    1.7312    7.7509 C   0  0  0  0  0  0  0  0  0  0  0  0
   -1.3725    2.1378    8.9068 N   0  0  0  0  0  0  0  0  0  0  0  0
   -4.4171    3.3946    9.2776 H   0  0  0  0  0  0  0  0  0  0  0  0
   -2.9825    4.1666    9.9738 H   0  0  0  0  0  0  0  0  0  0  0  0
   -3.4526    2.5435   10.4981 H   0  0  0  0  0  0  0  0  0  0  0  0
   -3.7673    2.8944    6.8178 H   0  0  0  0  0  0  0  0  0  0  0  0
   -2.4371    1.4975    4.6281 H   0  0  0  0  0  0  0  0  0  0  0  0
    2.1935    1.4505    3.8254 H   0  0  0  0  0  0  0  0  0  0  0  0
   -0.2026   -2.6279    4.1731 H   0  0  0  0  0  0  0  0  0  0  0  0
    0.3625   -2.4937    5.8668 H   0  0  0  0  0  0  0  0  0  0  0  0
    2.0672   -1.2582    4.2221 H   0  0  0  0  0  0  0  0  0  0  0  0
   -0.2460    5.5629    3.4290 H   0  0  0  0  0  0  0  0  0  0  0  0
    0.1193    1.2931    7.7424 H   0  0  0  0  0  0  0  0  0  0  0  0
  1  2  1  0
  1 20  1  0
  1 21  1  0
  1 22  1  0
  2 19  1  0
  2  3  1  0
  3  4  2  0
  3 23  1  0
  4  5  1  0
  4 18  1  0
  5 17  1  0
  5 24  1  6
  5  6  1  0
  6  7  2  0
  6 11  1  0
  7  8  1  0
  7  9  1  0
  9 10  1  0
  9 26  1  0
  9 27  1  0
 10 28  1  0
 10 11  2  0
 11 12  1  0
 12 13  1  0
 12 25  1  0
 13 17  1  0
 13 14  2  0
 14 15  1  0
 15 16  2  0
 15 29  1  0
 16 17  1  0
 18 19  2  0
 18 30  1  0
M  CHG  1   8  -1
M  END
>  <i_m_ct_stereo_status>  (84) 
1

>  <s_m_source_file>  (84) 
/var/tmp/pbs.5076255.sched01/tmpbmel7479/053vx75p8.sdf

>  <i_m_source_file_index>  (84) 
31

>  <i_lp_mmshare_version>  (84) 
48012

>  <i_f3d_flags>  (84) 
0

>  <s_epik_input>  (84) 
W0NIM11uMVtjSF1jKFtjSF1uMSlbQ0BIXTJuKG5bY0hdbjMpYzNOPUMoW0NAQEhdMjQpW0NIMl1bQ0gyXUM0PU8=

>  <s_epik_cmdline>  (84) 
J2VwaWtfcHl0aG9uJywgJy1waHQnLCAnMi4wJywgJy1waCcsICc3LjAnLCAnLXRuJywgJzgnLCAnLW1hJywgJzIwMCcsICctaW1hZScsICc8aW5maWxlLm1hZT4nLCAnLW9tYWUnLCAnPG91dGZpbGUubWFlPic=

>  <r_lp_tautomer_probability>  (84) 
1

>  <r_epik_Ionization_Penalty>  (84) 
0.41082

>  <r_epik_Ionization_Penalty_Charging>  (84) 
0.410807

>  <r_epik_Ionization_Penalty_Neutral>  (84) 
1.37844e-05

>  <r_epik_State_Penalty>  (84) 
0.410815

>  <r_epik_Charging_Adjusted_Penalty>  (84) 
0.821621

>  <i_epik_Tot_Q>  (84) 
-1

>  <i_epik_Tot_abs_Q>  (84) 
1

>  <s_epik_Chemistry_Notes>  (84) 
This compound has an imine and may undergo hydrolysis.

>  <s_lp_Force_Field>  (84) 
OPLS3e

>  <r_lp_Energy>  (84) 
7.94775

>  <b_lp_Chiralities_Consistent>  (84) 
1

>  <s_lp_Variant>  (84) 
20:0-2

>  <s_i_glide_gridfile>  (84) 
pfpi4k_grid

>  <i_i_glide_lignum>  (84) 
31

>  <i_i_glide_rotatable_bonds>  (84) 
1

>  <r_i_docking_score>  (84) 
-2.92295

>  <r_i_glide_ligand_efficiency>  (84) 
-0.15384

>  <r_i_glide_ligand_efficiency_sa>  (84) 
-0.410506

>  <r_i_glide_ligand_efficiency_ln>  (84) 
-0.741031

>  <r_i_glide_gscore>  (84) 
-2.92295

>  <r_i_glide_lipo>  (84) 
-0.164078

>  <r_i_glide_hbond>  (84) 
-0.00994649

>  <r_i_glide_metal>  (84) 
-0

>  <r_i_glide_rewards>  (84) 
-1.68354

>  <r_i_glide_evdw>  (84) 
-20.4685

>  <r_i_glide_ecoul>  (84) 
-1.03951

>  <r_i_glide_erotb>  (84) 
0.270178

>  <r_i_glide_esite>  (84) 
-0.156212

>  <r_i_glide_emodel>  (84) 
-28.0436

>  <r_i_glide_energy>  (84) 
-21.508

>  <r_i_glide_einternal>  (84) 
0.0184439

>  <r_i_glide_intrahb_reward>  (84) 
-0

>  <i_i_glide_confnum>  (84) 
2

>  <i_i_glide_posenum>  (84) 
32

>  <r_i_glide_eff_state_penalty>  (84) 
0

>  <ligand_id>  (84) 
20

>  <original_smiles>  (84) 
Cn1cc(C2C3C(=O)CCC3=Nc3ncnn32)cn1

>  <smiles>  (84) 
[H]C1=C2C(=C([O-])C1([H])[H])C([H])(c1c([H])nn(C([H])([H])[H])c1[H])n1nc([H])nc1N2[H]

$$$$
20:1:1
     RDKit          3D

 30 33  0  0  1  0  0  0  0  0999 V2000
    2.9906   -4.3303    6.1527 C   0  0  0  0  0  0  0  0  0  0  0  0
    2.9341   -4.7626    4.7717 N   0  0  0  0  0  0  0  0  0  0  0  0
    2.7170   -6.0283    4.2640 C   0  0  0  0  0  0  0  0  0  0  0  0
    2.7515   -5.9384    2.9002 C   0  0  0  0  0  0  0  0  0  0  0  0
    2.5939   -7.0246    1.8619 C   0  0  2  0  0  0  0  0  0  0  0  0
    1.4269   -7.9139    2.2440 C   0  0  0  0  0  0  0  0  0  0  0  0
    0.0783   -7.6531    2.1860 C   0  0  0  0  0  0  0  0  0  0  0  0
   -0.6137   -6.6582    1.8795 O   0  0  0  0  0  0  0  0  0  0  0  0
   -0.7135   -8.9014    2.6046 C   0  0  0  0  0  0  0  0  0  0  0  0
    0.4328   -9.8546    2.8818 C   0  0  0  0  0  0  0  0  0  0  0  0
    1.6122   -9.2799    2.6414 C   0  0  0  0  0  0  0  0  0  0  0  0
    2.8804   -9.8344    2.6764 N   0  0  0  0  0  0  0  0  0  0  0  0
    3.9722   -9.1193    2.1906 C   0  0  0  0  0  0  0  0  0  0  0  0
    5.2112   -9.5571    2.0340 N   0  0  0  0  0  0  0  0  0  0  0  0
    5.7700   -8.4498    1.4526 C   0  0  0  0  0  0  0  0  0  0  0  0
    4.9692   -7.3972    1.2839 N   0  0  0  0  0  0  0  0  0  0  0  0
    3.7959   -7.8472    1.7889 N   0  0  0  0  0  0  0  0  0  0  0  0
    2.9880   -4.5510    2.6696 C   0  0  0  0  0  0  0  0  0  0  0  0
    3.1031   -3.8544    3.7911 N   0  0  0  0  0  0  0  0  0  0  0  0
    3.0367   -5.1945    6.8125 H   0  0  0  0  0  0  0  0  0  0  0  0
    2.1019   -3.7485    6.3951 H   0  0  0  0  0  0  0  0  0  0  0  0
    3.8743   -3.7151    6.3251 H   0  0  0  0  0  0  0  0  0  0  0  0
    2.5640   -6.8848    4.9081 H   0  0  0  0  0  0  0  0  0  0  0  0
    2.4003   -6.6160    0.8733 H   0  0  0  0  0  0  0  0  0  0  0  0
    3.0132  -10.8083    2.9052 H   0  0  0  0  0  0  0  0  0  0  0  0
   -1.3500   -9.2940    1.8044 H   0  0  0  0  0  0  0  0  0  0  0  0
   -1.3009   -8.7468    3.5104 H   0  0  0  0  0  0  0  0  0  0  0  0
    0.2769  -10.8775    3.1769 H   0  0  0  0  0  0  0  0  0  0  0  0
    6.8025   -8.4171    1.1364 H   0  0  0  0  0  0  0  0  0  0  0  0
    3.0869   -4.0294    1.7267 H   0  0  0  0  0  0  0  0  0  0  0  0
  1  2  1  0
  1 20  1  0
  1 21  1  0
  1 22  1  0
  2 19  1  0
  2  3  1  0
  3  4  2  0
  3 23  1  0
  4  5  1  0
  4 18  1  0
  5 17  1  0
  5 24  1  6
  5  6  1  0
  6  7  2  0
  6 11  1  0
  7  8  1  0
  7  9  1  0
  9 10  1  0
  9 26  1  0
  9 27  1  0
 10 28  1  0
 10 11  2  0
 11 12  1  0
 12 13  1  0
 12 25  1  0
 13 17  1  0
 13 14  2  0
 14 15  1  0
 15 16  2  0
 15 29  1  0
 16 17  1  0
 18 19  2  0
 18 30  1  0
M  CHG  1   8  -1
M  END
>  <i_m_ct_stereo_status>  (85) 
1

>  <s_m_source_file>  (85) 
/var/tmp/pbs.5076255.sched01/tmpbmel7479/053vx75p8.sdf

>  <i_m_source_file_index>  (85) 
31

>  <i_lp_mmshare_version>  (85) 
48012

>  <i_f3d_flags>  (85) 
0

>  <s_epik_input>  (85) 
W0NIM11uMVtjSF1jKFtjSF1uMSlbQ0BIXTJuKG5bY0hdbjMpYzNOPUMoW0NAQEhdMjQpW0NIMl1bQ0gyXUM0PU8=

>  <s_epik_cmdline>  (85) 
J2VwaWtfcHl0aG9uJywgJy1waHQnLCAnMi4wJywgJy1waCcsICc3LjAnLCAnLXRuJywgJzgnLCAnLW1hJywgJzIwMCcsICctaW1hZScsICc8aW5maWxlLm1hZT4nLCAnLW9tYWUnLCAnPG91dGZpbGUubWFlPic=

>  <r_lp_tautomer_probability>  (85) 
1

>  <r_epik_Ionization_Penalty>  (85) 
0.41082

>  <r_epik_Ionization_Penalty_Charging>  (85) 
0.410807

>  <r_epik_Ionization_Penalty_Neutral>  (85) 
1.37844e-05

>  <r_epik_State_Penalty>  (85) 
0.410815

>  <r_epik_Charging_Adjusted_Penalty>  (85) 
0.821621

>  <i_epik_Tot_Q>  (85) 
-1

>  <i_epik_Tot_abs_Q>  (85) 
1

>  <s_epik_Chemistry_Notes>  (85) 
This compound has an imine and may undergo hydrolysis.

>  <s_lp_Force_Field>  (85) 
OPLS3e

>  <r_lp_Energy>  (85) 
7.94775

>  <b_lp_Chiralities_Consistent>  (85) 
1

>  <s_lp_Variant>  (85) 
20:0-2

>  <s_i_glide_gridfile>  (85) 
pfpi4k_grid

>  <i_i_glide_lignum>  (85) 
31

>  <i_i_glide_rotatable_bonds>  (85) 
1

>  <r_i_docking_score>  (85) 
-2.71449

>  <r_i_glide_ligand_efficiency>  (85) 
-0.142868

>  <r_i_glide_ligand_efficiency_sa>  (85) 
-0.381229

>  <r_i_glide_ligand_efficiency_ln>  (85) 
-0.688182

>  <r_i_glide_gscore>  (85) 
-2.71449

>  <r_i_glide_lipo>  (85) 
-0.0558026

>  <r_i_glide_hbond>  (85) 
-0.227785

>  <r_i_glide_metal>  (85) 
-0

>  <r_i_glide_rewards>  (85) 
-1.80235

>  <r_i_glide_evdw>  (85) 
-18.7099

>  <r_i_glide_ecoul>  (85) 
0.608292

>  <r_i_glide_erotb>  (85) 
0.270178

>  <r_i_glide_esite>  (85) 
-0.0544827

>  <r_i_glide_emodel>  (85) 
-24.1657

>  <r_i_glide_energy>  (85) 
-18.1016

>  <r_i_glide_einternal>  (85) 
0.0267646

>  <r_i_glide_intrahb_reward>  (85) 
-0

>  <i_i_glide_confnum>  (85) 
3

>  <i_i_glide_posenum>  (85) 
2

>  <r_i_glide_eff_state_penalty>  (85) 
0

>  <ligand_id>  (85) 
20

>  <original_smiles>  (85) 
Cn1cc(C2C3C(=O)CCC3=Nc3ncnn32)cn1

>  <smiles>  (85) 
[H]C1=C2C(=C([O-])C1([H])[H])C([H])(c1c([H])nn(C([H])([H])[H])c1[H])n1nc([H])nc1N2[H]

$$$$
20:1:2
     RDKit          3D

 30 33  0  0  1  0  0  0  0  0999 V2000
    3.4278   -2.9623    2.9209 C   0  0  0  0  0  0  0  0  0  0  0  0
    3.1710   -4.2418    2.2894 N   0  0  0  0  0  0  0  0  0  0  0  0
    2.5462   -5.3547    2.8098 C   0  0  0  0  0  0  0  0  0  0  0  0
    2.5414   -6.3180    1.8378 C   0  0  0  0  0  0  0  0  0  0  0  0
    2.0050   -7.7330    1.8779 C   0  0  2  0  0  0  0  0  0  0  0  0
    0.9431   -7.8440    2.9543 C   0  0  0  0  0  0  0  0  0  0  0  0
   -0.3313   -7.3600    2.9591 C   0  0  0  0  0  0  0  0  0  0  0  0
   -0.9925   -6.6582    2.1725 O   0  0  0  0  0  0  0  0  0  0  0  0
   -1.0764   -7.7841    4.2304 C   0  0  0  0  0  0  0  0  0  0  0  0
    0.0161   -8.5911    4.8825 C   0  0  0  0  0  0  0  0  0  0  0  0
    1.1217   -8.6276    4.1347 C   0  0  0  0  0  0  0  0  0  0  0  0
    2.2919   -9.3239    4.3337 N   0  0  0  0  0  0  0  0  0  0  0  0
    3.2471   -9.3913    3.3149 C   0  0  0  0  0  0  0  0  0  0  0  0
    4.3453  -10.1321    3.3086 N   0  0  0  0  0  0  0  0  0  0  0  0
    4.7885   -9.8493    2.0431 C   0  0  0  0  0  0  0  0  0  0  0  0
    4.0715   -8.9714    1.3362 N   0  0  0  0  0  0  0  0  0  0  0  0
    3.0687   -8.6785    2.1915 N   0  0  0  0  0  0  0  0  0  0  0  0
    3.1885   -5.6782    0.7403 C   0  0  0  0  0  0  0  0  0  0  0  0
    3.5681   -4.4423    1.0171 N   0  0  0  0  0  0  0  0  0  0  0  0
    3.2278   -3.0272    3.9894 H   0  0  0  0  0  0  0  0  0  0  0  0
    2.7804   -2.1990    2.4877 H   0  0  0  0  0  0  0  0  0  0  0  0
    4.4688   -2.6656    2.7780 H   0  0  0  0  0  0  0  0  0  0  0  0
    2.1663   -5.3756    3.8210 H   0  0  0  0  0  0  0  0  0  0  0  0
    1.5462   -8.0229    0.9362 H   0  0  0  0  0  0  0  0  0  0  0  0
    2.4102   -9.9185    5.1400 H   0  0  0  0  0  0  0  0  0  0  0  0
   -1.9517   -8.4083    4.0251 H   0  0  0  0  0  0  0  0  0  0  0  0
   -1.3523   -6.9277    4.8424 H   0  0  0  0  0  0  0  0  0  0  0  0
   -0.1270   -9.1038    5.8145 H   0  0  0  0  0  0  0  0  0  0  0  0
    5.6810  -10.2931    1.6248 H   0  0  0  0  0  0  0  0  0  0  0  0
    3.4025   -6.0695   -0.2445 H   0  0  0  0  0  0  0  0  0  0  0  0
  1  2  1  0
  1 20  1  0
  1 21  1  0
  1 22  1  0
  2 19  1  0
  2  3  1  0
  3  4  2  0
  3 23  1  0
  4  5  1  0
  4 18  1  0
  5 17  1  0
  5 24  1  6
  5  6  1  0
  6  7  2  0
  6 11  1  0
  7  8  1  0
  7  9  1  0
  9 10  1  0
  9 26  1  0
  9 27  1  0
 10 28  1  0
 10 11  2  0
 11 12  1  0
 12 13  1  0
 12 25  1  0
 13 17  1  0
 13 14  2  0
 14 15  1  0
 15 16  2  0
 15 29  1  0
 16 17  1  0
 18 19  2  0
 18 30  1  0
M  CHG  1   8  -1
M  END
>  <i_m_ct_stereo_status>  (86) 
1

>  <s_m_source_file>  (86) 
/var/tmp/pbs.5076255.sched01/tmpbmel7479/053vx75p8.sdf

>  <i_m_source_file_index>  (86) 
31

>  <i_lp_mmshare_version>  (86) 
48012

>  <i_f3d_flags>  (86) 
0

>  <s_epik_input>  (86) 
W0NIM11uMVtjSF1jKFtjSF1uMSlbQ0BIXTJuKG5bY0hdbjMpYzNOPUMoW0NAQEhdMjQpW0NIMl1bQ0gyXUM0PU8=

>  <s_epik_cmdline>  (86) 
J2VwaWtfcHl0aG9uJywgJy1waHQnLCAnMi4wJywgJy1waCcsICc3LjAnLCAnLXRuJywgJzgnLCAnLW1hJywgJzIwMCcsICctaW1hZScsICc8aW5maWxlLm1hZT4nLCAnLW9tYWUnLCAnPG91dGZpbGUubWFlPic=

>  <r_lp_tautomer_probability>  (86) 
1

>  <r_epik_Ionization_Penalty>  (86) 
0.41082

>  <r_epik_Ionization_Penalty_Charging>  (86) 
0.410807

>  <r_epik_Ionization_Penalty_Neutral>  (86) 
1.37844e-05

>  <r_epik_State_Penalty>  (86) 
0.410815

>  <r_epik_Charging_Adjusted_Penalty>  (86) 
0.821621

>  <i_epik_Tot_Q>  (86) 
-1

>  <i_epik_Tot_abs_Q>  (86) 
1

>  <s_epik_Chemistry_Notes>  (86) 
This compound has an imine and may undergo hydrolysis.

>  <s_lp_Force_Field>  (86) 
OPLS3e

>  <r_lp_Energy>  (86) 
7.94775

>  <b_lp_Chiralities_Consistent>  (86) 
1

>  <s_lp_Variant>  (86) 
20:0-2

>  <s_i_glide_gridfile>  (86) 
pfpi4k_grid

>  <i_i_glide_lignum>  (86) 
31

>  <i_i_glide_rotatable_bonds>  (86) 
1

>  <r_i_docking_score>  (86) 
-2.6949

>  <r_i_glide_ligand_efficiency>  (86) 
-0.141837

>  <r_i_glide_ligand_efficiency_sa>  (86) 
-0.378478

>  <r_i_glide_ligand_efficiency_ln>  (86) 
-0.683215

>  <r_i_glide_gscore>  (86) 
-2.6949

>  <r_i_glide_lipo>  (86) 
-0.000244074

>  <r_i_glide_hbond>  (86) 
-0.2

>  <r_i_glide_metal>  (86) 
-0

>  <r_i_glide_rewards>  (86) 
-1.66894

>  <r_i_glide_evdw>  (86) 
-17.5605

>  <r_i_glide_ecoul>  (86) 
-0.734456

>  <r_i_glide_erotb>  (86) 
0.270178

>  <r_i_glide_esite>  (86) 
-0.107701

>  <r_i_glide_emodel>  (86) 
-24.318

>  <r_i_glide_energy>  (86) 
-18.295

>  <r_i_glide_einternal>  (86) 
0.0235015

>  <r_i_glide_intrahb_reward>  (86) 
-0

>  <i_i_glide_confnum>  (86) 
1

>  <i_i_glide_posenum>  (86) 
28

>  <r_i_glide_eff_state_penalty>  (86) 
0

>  <ligand_id>  (86) 
20

>  <original_smiles>  (86) 
Cn1cc(C2C3C(=O)CCC3=Nc3ncnn32)cn1

>  <smiles>  (86) 
[H]C1=C2C(=C([O-])C1([H])[H])C([H])(c1c([H])nn(C([H])([H])[H])c1[H])n1nc([H])nc1N2[H]

$$$$
24:0:0
     RDKit          3D

 30 34  0  0  1  0  0  0  0  0999 V2000
    3.6779    0.9037   -4.6405 C   0  0  0  0  0  0  0  0  0  0  0  0
    4.2020   -0.3811   -4.3638 O   0  0  0  0  0  0  0  0  0  0  0  0
    3.6338   -0.9047   -3.1828 C   0  0  1  0  0  0  0  0  0  0  0  0
    4.7322   -0.5174   -1.9463 C   0  0  0  0  0  0  0  0  0  0  0  0
    5.6143   -1.6965   -1.1215 C   0  0  0  0  0  0  0  0  0  0  0  0
    4.9208   -3.1898   -1.2436 C   0  0  2  0  0  0  0  0  0  0  0  0
    5.1792   -4.1737   -2.6050 C   0  0  0  0  0  0  0  0  0  0  0  0
    4.0749   -3.6957   -3.8225 C   0  0  1  0  0  0  0  0  0  0  0  0
    3.0138   -3.7568   -2.9770 C   0  0  2  0  0  0  0  0  0  0  0  0
    2.4140   -2.6099   -2.5418 C   0  0  2  0  0  0  0  0  0  0  0  0
    3.1124   -2.2046   -3.8565 C   0  0  1  0  0  0  0  0  0  0  0  0
    3.4445   -2.7244   -1.3546 C   0  0  1  0  0  0  0  0  0  0  0  0
    3.0419   -1.9235   -0.2420 O   0  0  0  0  0  0  0  0  0  0  0  0
    3.8582   -2.2443   -2.7422 C   0  0  2  0  0  0  0  0  0  0  0  0
    4.1424    1.3305   -5.5256 H   0  0  0  0  0  0  0  0  0  0  0  0
    3.8737    1.5886   -3.8208 H   0  0  0  0  0  0  0  0  0  0  0  0
    2.6003    0.8652   -4.8045 H   0  0  0  0  0  0  0  0  0  0  0  0
    5.4769    0.1470   -2.3531 H   0  0  0  0  0  0  0  0  0  0  0  0
    4.2257    0.0768   -1.1996 H   0  0  0  0  0  0  0  0  0  0  0  0
    6.6272   -1.7721   -1.5305 H   0  0  0  0  0  0  0  0  0  0  0  0
    5.7025   -1.4042   -0.0675 H   0  0  0  0  0  0  0  0  0  0  0  0
    5.1154   -3.7636   -0.3256 H   0  0  0  0  0  0  0  0  0  0  0  0
    6.2153   -4.0924   -2.9513 H   0  0  0  0  0  0  0  0  0  0  0  0
    5.0167   -5.2167   -2.3051 H   0  0  0  0  0  0  0  0  0  0  0  0
    3.9721   -4.3698   -4.6746 H   0  0  0  0  0  0  0  0  0  0  0  0
    2.1899   -4.1326   -3.6305 H   0  0  0  0  0  0  0  0  0  0  0  0
    1.3341   -2.7331   -2.4131 H   0  0  0  0  0  0  0  0  0  0  0  0
    2.4183   -2.0987   -4.6956 H   0  0  0  0  0  0  0  0  0  0  0  0
    2.1654   -1.5739   -0.4679 H   0  0  0  0  0  0  0  0  0  0  0  0
    5.0072   -2.1026   -3.1469 H   0  0  0  0  0  0  0  0  0  0  0  0
  1  2  1  0
  1 15  1  0
  1 16  1  0
  1 17  1  0
  3  2  1  6
  3 11  1  0
  3 14  1  0
  3  4  1  0
  4  5  1  0
  4 18  1  0
  4 19  1  0
  5  6  1  0
  5 20  1  0
  5 21  1  0
  6 12  1  0
  6  7  1  0
  6 22  1  1
  7  8  1  0
  7 23  1  0
  7 24  1  0
  8 11  1  0
  8  9  1  0
  8 25  1  6
  9 14  1  0
  9 10  1  0
  9 26  1  1
 10 11  1  0
 10 12  1  0
 10 27  1  1
 11 28  1  6
 12 13  1  6
 12 14  1  0
 13 29  1  0
 14 30  1  1
M  END
>  <i_m_ct_stereo_status>  (87) 
1

>  <s_m_source_file>  (87) 
/var/tmp/pbs.5076255.sched01/tmpbmel7479/053vx75p8.sdf

>  <i_m_source_file_index>  (87) 
35

>  <i_lp_mmshare_version>  (87) 
48012

>  <i_f3d_flags>  (87) 
0

>  <s_epik_input>  (87) 
W0NIM11PQzEyW0NASF0zW0NAQEhdNFtDQEBIXTVbQ0BIXTNbQ0BdKFtPSF0pKFtDQEhdMjUpW0NAQEhdKFtDSDJdNClbQ0gyXVtDSDJdMQ==

>  <s_epik_cmdline>  (87) 
J2VwaWtfcHl0aG9uJywgJy1waHQnLCAnMi4wJywgJy1waCcsICc3LjAnLCAnLXRuJywgJzgnLCAnLW1hJywgJzIwMCcsICctaW1hZScsICc8aW5maWxlLm1hZT4nLCAnLW9tYWUnLCAnPG91dGZpbGUubWFlPic=

>  <r_lp_tautomer_probability>  (87) 
1

>  <r_epik_Ionization_Penalty>  (87) 
1.1561e-06

>  <r_epik_Ionization_Penalty_Charging>  (87) 
0

>  <r_epik_Ionization_Penalty_Neutral>  (87) 
1.1561e-06

>  <r_epik_State_Penalty>  (87) 
-0

>  <r_epik_Charging_Adjusted_Penalty>  (87) 
0

>  <i_epik_Tot_Q>  (87) 
0

>  <i_epik_Tot_abs_Q>  (87) 
0

>  <s_lp_Force_Field>  (87) 
OPLS3e

>  <r_lp_Energy>  (87) 
537.943

>  <b_lp_Chiralities_Consistent>  (87) 
1

>  <s_lp_Variant>  (87) 
24:0-1

>  <s_i_glide_gridfile>  (87) 
pfpi4k_grid

>  <i_i_glide_lignum>  (87) 
35

>  <i_i_glide_rotatable_bonds>  (87) 
2

>  <r_i_docking_score>  (87) 
-4.07135

>  <r_i_glide_ligand_efficiency>  (87) 
-0.290811

>  <r_i_glide_ligand_efficiency_sa>  (87) 
-0.700896

>  <r_i_glide_ligand_efficiency_ln>  (87) 
-1.11879

>  <r_i_glide_gscore>  (87) 
-4.07135

>  <r_i_glide_lipo>  (87) 
-0.330716

>  <r_i_glide_hbond>  (87) 
-0.16

>  <r_i_glide_metal>  (87) 
-0

>  <r_i_glide_rewards>  (87) 
-2.09827

>  <r_i_glide_evdw>  (87) 
-10.5745

>  <r_i_glide_ecoul>  (87) 
-6.35763

>  <r_i_glide_erotb>  (87) 
0

>  <r_i_glide_esite>  (87) 
0

>  <r_i_glide_emodel>  (87) 
-20.3362

>  <r_i_glide_energy>  (87) 
-16.9321

>  <r_i_glide_einternal>  (87) 
0.74149

>  <r_i_glide_intrahb_reward>  (87) 
-0

>  <i_i_glide_confnum>  (87) 
2

>  <i_i_glide_posenum>  (87) 
39

>  <r_i_glide_eff_state_penalty>  (87) 
0

>  <ligand_id>  (87) 
24

>  <original_smiles>  (87) 
COC12CCC3CC4C5C(C41)C3(O)C52

>  <smiles>  (87) 
[H]OC12C3([H])C([H])([H])C([H])([H])C4(OC([H])([H])[H])C5([H])C([H])(C3([H])[H])C([H])(C51[H])C42[H]

$$$$
24:0:1
     RDKit          3D

 30 34  0  0  1  0  0  0  0  0999 V2000
    7.9879   -3.1005   -1.2845 C   0  0  0  0  0  0  0  0  0  0  0  0
    6.9261   -2.7262   -2.1516 O   0  0  0  0  0  0  0  0  0  0  0  0
    5.6632   -3.0969   -1.6239 C   0  0  1  0  0  0  0  0  0  0  0  0
    5.0151   -4.1492   -2.7835 C   0  0  0  0  0  0  0  0  0  0  0  0
    3.6525   -3.7342   -3.7001 C   0  0  0  0  0  0  0  0  0  0  0  0
    2.7512   -2.5583   -2.9747 C   0  0  2  0  0  0  0  0  0  0  0  0
    3.1403   -0.9150   -3.1553 C   0  0  0  0  0  0  0  0  0  0  0  0
    4.3443   -0.5485   -2.0066 C   0  0  1  0  0  0  0  0  0  0  0  0
    3.6330   -1.0678   -0.9755 C   0  0  2  0  0  0  0  0  0  0  0  0
    4.0368   -2.2479   -0.4165 C   0  0  2  0  0  0  0  0  0  0  0  0
    5.3156   -1.6925   -1.0564 C   0  0  1  0  0  0  0  0  0  0  0  0
    3.0815   -2.8857   -1.4959 C   0  0  1  0  0  0  0  0  0  0  0  0
    2.7294   -4.1970   -1.0976 O   0  0  0  0  0  0  0  0  0  0  0  0
    4.4711   -2.3464   -1.8465 C   0  0  2  0  0  0  0  0  0  0  0  0
    8.9415   -2.8677   -1.7510 H   0  0  0  0  0  0  0  0  0  0  0  0
    7.9853   -4.1633   -1.0466 H   0  0  0  0  0  0  0  0  0  0  0  0
    7.9284   -2.5563   -0.3429 H   0  0  0  0  0  0  0  0  0  0  0  0
    5.8084   -4.3045   -3.5143 H   0  0  0  0  0  0  0  0  0  0  0  0
    4.8781   -5.0965   -2.2642 H   0  0  0  0  0  0  0  0  0  0  0  0
    3.9748   -3.3592   -4.6770 H   0  0  0  0  0  0  0  0  0  0  0  0
    3.0373   -4.6017   -3.9237 H   0  0  0  0  0  0  0  0  0  0  0  0
    1.6898   -2.7080   -3.2002 H   0  0  0  0  0  0  0  0  0  0  0  0
    3.4587   -0.6816   -4.1735 H   0  0  0  0  0  0  0  0  0  0  0  0
    2.2610   -0.3046   -2.9397 H   0  0  0  0  0  0  0  0  0  0  0  0
    4.5955    0.4967   -1.9337 H   0  0  0  0  0  0  0  0  0  0  0  0
    3.8763   -0.3925   -0.1266 H   0  0  0  0  0  0  0  0  0  0  0  0
    3.8799   -2.3525    0.6671 H   0  0  0  0  0  0  0  0  0  0  0  0
    6.0018   -1.2462   -0.3222 H   0  0  0  0  0  0  0  0  0  0  0  0
    3.0049   -4.8166   -1.7803 H   0  0  0  0  0  0  0  0  0  0  0  0
    4.9076   -2.1523   -2.9797 H   0  0  0  0  0  0  0  0  0  0  0  0
  1  2  1  0
  1 15  1  0
  1 16  1  0
  1 17  1  0
  3  2  1  6
  3 11  1  0
  3 14  1  0
  3  4  1  0
  4  5  1  0
  4 18  1  0
  4 19  1  0
  5  6  1  0
  5 20  1  0
  5 21  1  0
  6 12  1  0
  6  7  1  0
  6 22  1  1
  7  8  1  0
  7 23  1  0
  7 24  1  0
  8 11  1  0
  8  9  1  0
  8 25  1  1
  9 14  1  0
  9 10  1  0
  9 26  1  6
 10 11  1  0
 10 12  1  0
 10 27  1  1
 11 28  1  1
 12 13  1  6
 12 14  1  0
 13 29  1  0
 14 30  1  6
M  END
>  <i_m_ct_stereo_status>  (88) 
1

>  <s_m_source_file>  (88) 
/var/tmp/pbs.5076255.sched01/tmpbmel7479/053vx75p8.sdf

>  <i_m_source_file_index>  (88) 
35

>  <i_lp_mmshare_version>  (88) 
48012

>  <i_f3d_flags>  (88) 
0

>  <s_epik_input>  (88) 
W0NIM11PQzEyW0NASF0zW0NAQEhdNFtDQEBIXTVbQ0BIXTNbQ0BdKFtPSF0pKFtDQEhdMjUpW0NAQEhdKFtDSDJdNClbQ0gyXVtDSDJdMQ==

>  <s_epik_cmdline>  (88) 
J2VwaWtfcHl0aG9uJywgJy1waHQnLCAnMi4wJywgJy1waCcsICc3LjAnLCAnLXRuJywgJzgnLCAnLW1hJywgJzIwMCcsICctaW1hZScsICc8aW5maWxlLm1hZT4nLCAnLW9tYWUnLCAnPG91dGZpbGUubWFlPic=

>  <r_lp_tautomer_probability>  (88) 
1

>  <r_epik_Ionization_Penalty>  (88) 
1.1561e-06

>  <r_epik_Ionization_Penalty_Charging>  (88) 
0

>  <r_epik_Ionization_Penalty_Neutral>  (88) 
1.1561e-06

>  <r_epik_State_Penalty>  (88) 
-0

>  <r_epik_Charging_Adjusted_Penalty>  (88) 
0

>  <i_epik_Tot_Q>  (88) 
0

>  <i_epik_Tot_abs_Q>  (88) 
0

>  <s_lp_Force_Field>  (88) 
OPLS3e

>  <r_lp_Energy>  (88) 
537.943

>  <b_lp_Chiralities_Consistent>  (88) 
1

>  <s_lp_Variant>  (88) 
24:0-1

>  <s_i_glide_gridfile>  (88) 
pfpi4k_grid

>  <i_i_glide_lignum>  (88) 
35

>  <i_i_glide_rotatable_bonds>  (88) 
2

>  <r_i_docking_score>  (88) 
-3.83953

>  <r_i_glide_ligand_efficiency>  (88) 
-0.274252

>  <r_i_glide_ligand_efficiency_sa>  (88) 
-0.660987

>  <r_i_glide_ligand_efficiency_ln>  (88) 
-1.05509

>  <r_i_glide_gscore>  (88) 
-3.83953

>  <r_i_glide_lipo>  (88) 
-0.167515

>  <r_i_glide_hbond>  (88) 
-0.369748

>  <r_i_glide_metal>  (88) 
-0

>  <r_i_glide_rewards>  (88) 
-2.09827

>  <r_i_glide_evdw>  (88) 
-4.50264

>  <r_i_glide_ecoul>  (88) 
-6.52578

>  <r_i_glide_erotb>  (88) 
0

>  <r_i_glide_esite>  (88) 
0

>  <r_i_glide_emodel>  (88) 
-13.8765

>  <r_i_glide_energy>  (88) 
-11.0284

>  <r_i_glide_einternal>  (88) 
1.009

>  <r_i_glide_intrahb_reward>  (88) 
-0

>  <i_i_glide_confnum>  (88) 
2

>  <i_i_glide_posenum>  (88) 
7

>  <r_i_glide_eff_state_penalty>  (88) 
0

>  <ligand_id>  (88) 
24

>  <original_smiles>  (88) 
COC12CCC3CC4C5C(C41)C3(O)C52

>  <smiles>  (88) 
[H]OC12C3([H])C([H])([H])C([H])([H])C4(OC([H])([H])[H])C5([H])C([H])(C3([H])[H])C([H])(C51[H])C42[H]

$$$$
24:0:2
     RDKit          3D

 30 34  0  0  1  0  0  0  0  0999 V2000
    7.2680   -2.3151   -0.5426 C   0  0  0  0  0  0  0  0  0  0  0  0
    6.6202   -1.8872   -1.7210 O   0  0  0  0  0  0  0  0  0  0  0  0
    5.2478   -2.2049   -1.7011 C   0  0  1  0  0  0  0  0  0  0  0  0
    5.2277   -3.7397   -2.4315 C   0  0  0  0  0  0  0  0  0  0  0  0
    4.5078   -3.9887   -3.9420 C   0  0  0  0  0  0  0  0  0  0  0  0
    3.3774   -2.8148   -4.2834 C   0  0  2  0  0  0  0  0  0  0  0  0
    3.7881   -1.2940   -4.9355 C   0  0  0  0  0  0  0  0  0  0  0  0
    4.3276   -0.2875   -3.6990 C   0  0  1  0  0  0  0  0  0  0  0  0
    3.2047   -0.5808   -3.0455 C   0  0  2  0  0  0  0  0  0  0  0  0
    3.2898   -1.2563   -1.8709 C   0  0  2  0  0  0  0  0  0  0  0  0
    4.7195   -0.7606   -2.0465 C   0  0  1  0  0  0  0  0  0  0  0  0
    2.9573   -2.4628   -2.8363 C   0  0  1  0  0  0  0  0  0  0  0  0
    2.4213   -3.5197   -2.1049 O   0  0  0  0  0  0  0  0  0  0  0  0
    4.3530   -1.8620   -2.7512 C   0  0  2  0  0  0  0  0  0  0  0  0
    8.3256   -2.0544   -0.5754 H   0  0  0  0  0  0  0  0  0  0  0  0
    7.1986   -3.4005   -0.4258 H   0  0  0  0  0  0  0  0  0  0  0  0
    6.8306   -1.8476    0.3425 H   0  0  0  0  0  0  0  0  0  0  0  0
    6.2583   -4.0617   -2.5313 H   0  0  0  0  0  0  0  0  0  0  0  0
    4.7890   -4.4266   -1.6997 H   0  0  0  0  0  0  0  0  0  0  0  0
    5.2770   -4.0156   -4.7184 H   0  0  0  0  0  0  0  0  0  0  0  0
    4.0780   -4.9840   -3.9671 H   0  0  0  0  0  0  0  0  0  0  0  0
    2.5669   -3.2798   -4.8481 H   0  0  0  0  0  0  0  0  0  0  0  0
    4.6530   -1.3995   -5.5153 H   0  0  0  0  0  0  0  0  0  0  0  0
    2.9954   -0.8133   -5.5214 H   0  0  0  0  0  0  0  0  0  0  0  0
    4.4469    0.7617   -3.9803 H   0  0  0  0  0  0  0  0  0  0  0  0
    3.0264    0.4368   -2.7228 H   0  0  0  0  0  0  0  0  0  0  0  0
    2.6295   -0.9191   -1.0779 H   0  0  0  0  0  0  0  0  0  0  0  0
    4.9446    0.0616   -1.3594 H   0  0  0  0  0  0  0  0  0  0  0  0
    2.8889   -4.3151   -2.3559 H   0  0  0  0  0  0  0  0  0  0  0  0
    5.2783   -2.0238   -3.5378 H   0  0  0  0  0  0  0  0  0  0  0  0
  1  2  1  0
  1 15  1  0
  1 16  1  0
  1 17  1  0
  3  2  1  6
  3 11  1  0
  3 14  1  0
  3  4  1  0
  4  5  1  0
  4 18  1  0
  4 19  1  0
  5  6  1  0
  5 20  1  0
  5 21  1  0
  6 12  1  0
  6  7  1  0
  6 22  1  6
  7  8  1  0
  7 23  1  0
  7 24  1  0
  8 11  1  0
  8  9  1  0
  8 25  1  6
  9 14  1  0
  9 10  1  0
  9 26  1  6
 10 11  1  0
 10 12  1  0
 10 27  1  1
 11 28  1  1
 12 13  1  6
 12 14  1  0
 13 29  1  0
 14 30  1  6
M  END
>  <i_m_ct_stereo_status>  (89) 
1

>  <s_m_source_file>  (89) 
/var/tmp/pbs.5076255.sched01/tmpbmel7479/053vx75p8.sdf

>  <i_m_source_file_index>  (89) 
35

>  <i_lp_mmshare_version>  (89) 
48012

>  <i_f3d_flags>  (89) 
0

>  <s_epik_input>  (89) 
W0NIM11PQzEyW0NASF0zW0NAQEhdNFtDQEBIXTVbQ0BIXTNbQ0BdKFtPSF0pKFtDQEhdMjUpW0NAQEhdKFtDSDJdNClbQ0gyXVtDSDJdMQ==

>  <s_epik_cmdline>  (89) 
J2VwaWtfcHl0aG9uJywgJy1waHQnLCAnMi4wJywgJy1waCcsICc3LjAnLCAnLXRuJywgJzgnLCAnLW1hJywgJzIwMCcsICctaW1hZScsICc8aW5maWxlLm1hZT4nLCAnLW9tYWUnLCAnPG91dGZpbGUubWFlPic=

>  <r_lp_tautomer_probability>  (89) 
1

>  <r_epik_Ionization_Penalty>  (89) 
1.1561e-06

>  <r_epik_Ionization_Penalty_Charging>  (89) 
0

>  <r_epik_Ionization_Penalty_Neutral>  (89) 
1.1561e-06

>  <r_epik_State_Penalty>  (89) 
-0

>  <r_epik_Charging_Adjusted_Penalty>  (89) 
0

>  <i_epik_Tot_Q>  (89) 
0

>  <i_epik_Tot_abs_Q>  (89) 
0

>  <s_lp_Force_Field>  (89) 
OPLS3e

>  <r_lp_Energy>  (89) 
537.943

>  <b_lp_Chiralities_Consistent>  (89) 
1

>  <s_lp_Variant>  (89) 
24:0-1

>  <s_i_glide_gridfile>  (89) 
pfpi4k_grid

>  <i_i_glide_lignum>  (89) 
35

>  <i_i_glide_rotatable_bonds>  (89) 
2

>  <r_i_docking_score>  (89) 
-3.63939

>  <r_i_glide_ligand_efficiency>  (89) 
-0.259956

>  <r_i_glide_ligand_efficiency_sa>  (89) 
-0.626532

>  <r_i_glide_ligand_efficiency_ln>  (89) 
-1.00009

>  <r_i_glide_gscore>  (89) 
-3.63939

>  <r_i_glide_lipo>  (89) 
-0.28709

>  <r_i_glide_hbond>  (89) 
-0.48

>  <r_i_glide_metal>  (89) 
-0

>  <r_i_glide_rewards>  (89) 
-2.09827

>  <r_i_glide_evdw>  (89) 
-1.45301

>  <r_i_glide_ecoul>  (89) 
-4.67587

>  <r_i_glide_erotb>  (89) 
0

>  <r_i_glide_esite>  (89) 
0

>  <r_i_glide_emodel>  (89) 
-8.47068

>  <r_i_glide_energy>  (89) 
-6.12888

>  <r_i_glide_einternal>  (89) 
0.452798

>  <r_i_glide_intrahb_reward>  (89) 
-0

>  <i_i_glide_confnum>  (89) 
1

>  <i_i_glide_posenum>  (89) 
27

>  <r_i_glide_eff_state_penalty>  (89) 
0

>  <ligand_id>  (89) 
24

>  <original_smiles>  (89) 
COC12CCC3CC4C5C(C41)C3(O)C52

>  <smiles>  (89) 
[H]OC12C3([H])C([H])([H])C([H])([H])C4(OC([H])([H])[H])C5([H])C([H])(C3([H])[H])C([H])(C51[H])C42[H]

$$$$
25:0:0
     RDKit          3D

 42 45  0  0  1  0  0  0  0  0999 V2000
    3.5291   -0.2202   -4.5833 C   0  0  0  0  0  0  0  0  0  0  0  0
    3.2517   -1.3024   -3.5775 C   0  0  0  0  0  0  0  0  0  0  0  0
    2.4194   -2.3220   -3.9198 N   0  0  0  0  0  0  0  0  0  0  0  0
    2.4875   -3.4163   -2.9643 C   0  0  0  0  0  0  0  0  0  0  0  0
    3.1647   -2.7743   -1.7430 C   0  0  2  0  0  0  0  0  0  0  0  0
    3.7779   -1.5460   -2.3536 C   0  0  0  0  0  0  0  0  0  0  0  0
    4.9666   -0.9181   -1.6772 C   0  0  0  0  0  0  0  0  0  0  0  0
    5.9905   -2.0055   -1.2012 C   0  0  2  0  0  0  0  0  0  0  0  0
    5.5335   -3.4330   -1.5781 C   0  0  0  0  0  0  0  0  0  0  0  0
    4.1576   -3.6653   -0.9685 C   0  0  1  0  0  0  0  0  0  0  0  0
    4.0808   -3.3341    0.5312 C   0  0  1  0  0  0  0  0  0  0  0  0
    4.9462   -3.8493    1.6603 C   0  0  0  0  0  0  0  0  0  0  0  0
    4.2534   -4.1465    2.9834 C   0  0  0  0  0  0  0  0  0  0  0  0
    6.0335   -4.8903    1.4914 C   0  0  0  0  0  0  0  0  0  0  0  0
    5.0726   -2.3835    1.1518 C   0  0  2  0  0  0  0  0  0  0  0  0
    4.5756   -1.2424    2.0193 C   0  0  0  0  0  0  0  0  0  0  0  0
    6.2642   -1.9210    0.3221 C   0  0  0  0  0  0  0  0  0  0  0  0
    4.3672    0.4145   -4.3027 H   0  0  0  0  0  0  0  0  0  0  0  0
    3.1084   -4.1825   -3.4246 H   0  0  0  0  0  0  0  0  0  0  0  0
    1.5114   -3.8256   -2.7032 H   0  0  0  0  0  0  0  0  0  0  0  0
    2.4062   -2.4183   -1.0630 H   0  0  0  0  0  0  0  0  0  0  0  0
    4.5978   -0.3467   -0.8277 H   0  0  0  0  0  0  0  0  0  0  0  0
    5.4393   -0.2048   -2.3464 H   0  0  0  0  0  0  0  0  0  0  0  0
    6.9321   -1.8406   -1.7198 H   0  0  0  0  0  0  0  0  0  0  0  0
    5.5002   -3.5513   -2.6702 H   0  0  0  0  0  0  0  0  0  0  0  0
    6.2397   -4.1822   -1.2513 H   0  0  0  0  0  0  0  0  0  0  0  0
    3.8499   -4.6966   -1.0958 H   0  0  0  0  0  0  0  0  0  0  0  0
    3.0629   -3.2290    0.8456 H   0  0  0  0  0  0  0  0  0  0  0  0
    4.9285   -3.9314    3.8098 H   0  0  0  0  0  0  0  0  0  0  0  0
    3.9580   -5.1931    3.0303 H   0  0  0  0  0  0  0  0  0  0  0  0
    3.3587   -3.5454    3.1023 H   0  0  0  0  0  0  0  0  0  0  0  0
    6.6592   -4.9129    2.3822 H   0  0  0  0  0  0  0  0  0  0  0  0
    6.6805   -4.6685    0.6590 H   0  0  0  0  0  0  0  0  0  0  0  0
    5.5882   -5.8747    1.3447 H   0  0  0  0  0  0  0  0  0  0  0  0
    5.2947   -1.0505    2.8180 H   0  0  0  0  0  0  0  0  0  0  0  0
    3.6168   -1.4866    2.4609 H   0  0  0  0  0  0  0  0  0  0  0  0
    4.4383   -0.3336    1.4331 H   0  0  0  0  0  0  0  0  0  0  0  0
    7.1226   -2.5385    0.5787 H   0  0  0  0  0  0  0  0  0  0  0  0
    6.5582   -0.9022    0.5977 H   0  0  0  0  0  0  0  0  0  0  0  0
    2.6483    0.4193   -4.6778 H   0  0  0  0  0  0  0  0  0  0  0  0
    3.7073   -0.6560   -5.5663 H   0  0  0  0  0  0  0  0  0  0  0  0
    2.1387   -2.4425   -4.8982 H   0  0  0  0  0  0  0  0  0  0  0  0
  1  2  1  0
  1 18  1  0
  1 40  1  0
  1 41  1  0
  2  6  2  0
  2  3  1  0
  3  4  1  0
  3 42  1  0
  4  5  1  0
  4 19  1  0
  4 20  1  0
  5 10  1  0
  5 21  1  1
  5  6  1  0
  6  7  1  0
  7  8  1  0
  7 22  1  0
  7 23  1  0
  8 17  1  0
  8  9  1  0
  8 24  1  6
  9 10  1  0
  9 25  1  0
  9 26  1  0
 10 11  1  0
 10 27  1  1
 11 15  1  0
 11 12  1  0
 11 28  1  1
 12 13  1  0
 12 14  1  0
 12 15  1  0
 13 29  1  0
 13 30  1  0
 13 31  1  0
 14 32  1  0
 14 33  1  0
 14 34  1  0
 15 16  1  1
 15 17  1  0
 16 35  1  0
 16 36  1  0
 16 37  1  0
 17 38  1  0
 17 39  1  0
M  END
>  <i_m_ct_stereo_status>  (90) 
1

>  <s_m_source_file>  (90) 
/var/tmp/pbs.5076255.sched01/tmpbmel7479/053vx75p8.sdf

>  <i_m_source_file_index>  (90) 
36

>  <i_lp_mmshare_version>  (90) 
48012

>  <i_f3d_flags>  (90) 
0

>  <s_epik_input>  (90) 
W0NIMl0xTj1DKFtDSDNdKVtDQEBIXShbQ0gyXVtDQEhdKFtDSDJdMilbQ0gyXTMpW0NAQEhdMVtDQEBIXTJbQ0BASF0oQzQoW0NIM10pW0NIM10pW0NAXTM0W0NIM10=

>  <s_epik_cmdline>  (90) 
J2VwaWtfcHl0aG9uJywgJy1waHQnLCAnMi4wJywgJy1waCcsICc3LjAnLCAnLXRuJywgJzgnLCAnLW1hJywgJzIwMCcsICctaW1hZScsICc8aW5maWxlLm1hZT4nLCAnLW9tYWUnLCAnPG91dGZpbGUubWFlPic=

>  <r_lp_tautomer_probability>  (90) 
1

>  <r_epik_Ionization_Penalty>  (90) 
0.0463783

>  <r_epik_Ionization_Penalty_Charging>  (90) 
2.78166e-06

>  <r_epik_Ionization_Penalty_Neutral>  (90) 
0.0463755

>  <r_epik_State_Penalty>  (90) 
-0

>  <r_epik_Charging_Adjusted_Penalty>  (90) 
2.78166e-06

>  <i_epik_Tot_Q>  (90) 
0

>  <i_epik_Tot_abs_Q>  (90) 
0

>  <s_epik_Chemistry_Notes>  (90) 
This compound has an imine and may undergo hydrolysis.

>  <s_lp_Force_Field>  (90) 
OPLS3e

>  <r_lp_Energy>  (90) 
29.8006

>  <b_lp_Chiralities_Consistent>  (90) 
1

>  <s_lp_Variant>  (90) 
25:0-1

>  <s_i_glide_gridfile>  (90) 
pfpi4k_grid

>  <i_i_glide_lignum>  (90) 
36

>  <i_i_glide_rotatable_bonds>  (90) 
0

>  <r_i_docking_score>  (90) 
-4.86778

>  <r_i_glide_ligand_efficiency>  (90) 
-0.28634

>  <r_i_glide_ligand_efficiency_sa>  (90) 
-0.73626

>  <r_i_glide_ligand_efficiency_ln>  (90) 
-1.26989

>  <r_i_glide_gscore>  (90) 
-4.86778

>  <r_i_glide_lipo>  (90) 
-1.05902

>  <r_i_glide_hbond>  (90) 
-0.32

>  <r_i_glide_metal>  (90) 
-0

>  <r_i_glide_rewards>  (90) 
-1.83152

>  <r_i_glide_evdw>  (90) 
-22.6206

>  <r_i_glide_ecoul>  (90) 
-3.50807

>  <r_i_glide_erotb>  (90) 
0

>  <r_i_glide_esite>  (90) 
0

>  <r_i_glide_emodel>  (90) 
-32.5517

>  <r_i_glide_energy>  (90) 
-26.1286

>  <r_i_glide_einternal>  (90) 
0

>  <r_i_glide_intrahb_reward>  (90) 
-0

>  <i_i_glide_confnum>  (90) 
2

>  <i_i_glide_posenum>  (90) 
5

>  <r_i_glide_eff_state_penalty>  (90) 
0

>  <ligand_id>  (90) 
25

>  <original_smiles>  (90) 
CC1=NCC2C1CC1CC2C2C(C)(C)C2(C)C1

>  <smiles>  (90) 
[H]N1C(C([H])([H])[H])=C2C([H])([H])C3([H])C([H])([H])C([H])(C2([H])C1([H])[H])C1([H])C(C([H])([H])[H])(C([H])([H])[H])C1(C([H])([H])[H])C3([H])[H]

$$$$
25:0:1
     RDKit          3D

 42 45  0  0  1  0  0  0  0  0999 V2000
    5.1456   -6.4868    2.6203 C   0  0  0  0  0  0  0  0  0  0  0  0
    4.2655   -5.5246    1.8530 C   0  0  0  0  0  0  0  0  0  0  0  0
    3.1361   -5.0518    2.4714 N   0  0  0  0  0  0  0  0  0  0  0  0
    2.6245   -3.9058    1.7309 C   0  0  0  0  0  0  0  0  0  0  0  0
    3.2890   -4.0223    0.3357 C   0  0  2  0  0  0  0  0  0  0  0  0
    4.4546   -4.9149    0.6849 C   0  0  0  0  0  0  0  0  0  0  0  0
    5.6949   -4.8567   -0.1907 C   0  0  0  0  0  0  0  0  0  0  0  0
    6.1011   -3.3927   -0.5501 C   0  0  2  0  0  0  0  0  0  0  0  0
    5.1506   -2.3631    0.1111 C   0  0  0  0  0  0  0  0  0  0  0  0
    3.7064   -2.6936   -0.3361 C   0  0  1  0  0  0  0  0  0  0  0  0
    3.5625   -2.8480   -1.8605 C   0  0  1  0  0  0  0  0  0  0  0  0
    3.9563   -1.8746   -2.9192 C   0  0  0  0  0  0  0  0  0  0  0  0
    3.0507   -1.7050   -4.1108 C   0  0  0  0  0  0  0  0  0  0  0  0
    4.5415   -0.5346   -2.6443 C   0  0  0  0  0  0  0  0  0  0  0  0
    4.7711   -3.1439   -2.7365 C   0  0  2  0  0  0  0  0  0  0  0  0
    4.6734   -4.2201   -3.7951 C   0  0  0  0  0  0  0  0  0  0  0  0
    6.1588   -3.1405   -2.0859 C   0  0  0  0  0  0  0  0  0  0  0  0
    6.1285   -6.6111    2.1674 H   0  0  0  0  0  0  0  0  0  0  0  0
    2.9182   -2.9709    2.2121 H   0  0  0  0  0  0  0  0  0  0  0  0
    1.5395   -3.9364    1.6790 H   0  0  0  0  0  0  0  0  0  0  0  0
    2.6697   -4.5994   -0.3523 H   0  0  0  0  0  0  0  0  0  0  0  0
    5.4297   -5.4180   -1.0881 H   0  0  0  0  0  0  0  0  0  0  0  0
    6.5206   -5.3704    0.3088 H   0  0  0  0  0  0  0  0  0  0  0  0
    7.1111   -3.2124   -0.1610 H   0  0  0  0  0  0  0  0  0  0  0  0
    5.2201   -2.4290    1.2013 H   0  0  0  0  0  0  0  0  0  0  0  0
    5.4372   -1.3413   -0.1027 H   0  0  0  0  0  0  0  0  0  0  0  0
    3.0170   -1.9057   -0.0310 H   0  0  0  0  0  0  0  0  0  0  0  0
    2.6273   -3.3490   -2.1213 H   0  0  0  0  0  0  0  0  0  0  0  0
    3.6395   -1.4834   -5.0053 H   0  0  0  0  0  0  0  0  0  0  0  0
    2.3567   -0.8787   -3.9648 H   0  0  0  0  0  0  0  0  0  0  0  0
    2.4633   -2.6025   -4.2856 H   0  0  0  0  0  0  0  0  0  0  0  0
    4.8936   -0.2149   -3.6168 H   0  0  0  0  0  0  0  0  0  0  0  0
    5.3691   -0.5383   -1.9441 H   0  0  0  0  0  0  0  0  0  0  0  0
    3.7595    0.1416   -2.3238 H   0  0  0  0  0  0  0  0  0  0  0  0
    5.3056   -3.9657   -4.6431 H   0  0  0  0  0  0  0  0  0  0  0  0
    3.6462   -4.3482   -4.1210 H   0  0  0  0  0  0  0  0  0  0  0  0
    4.9811   -5.1660   -3.3482 H   0  0  0  0  0  0  0  0  0  0  0  0
    6.6370   -2.1897   -2.2934 H   0  0  0  0  0  0  0  0  0  0  0  0
    6.8069   -3.8545   -2.5794 H   0  0  0  0  0  0  0  0  0  0  0  0
    4.6508   -7.4579    2.6612 H   0  0  0  0  0  0  0  0  0  0  0  0
    5.2522   -6.1244    3.6392 H   0  0  0  0  0  0  0  0  0  0  0  0
    3.0477   -5.1320    3.4760 H   0  0  0  0  0  0  0  0  0  0  0  0
  1  2  1  0
  1 18  1  0
  1 40  1  0
  1 41  1  0
  2  6  2  0
  2  3  1  0
  3  4  1  0
  3 42  1  0
  4  5  1  0
  4 19  1  0
  4 20  1  0
  5 10  1  0
  5 21  1  6
  5  6  1  0
  6  7  1  0
  7  8  1  0
  7 22  1  0
  7 23  1  0
  8 17  1  0
  8  9  1  0
  8 24  1  1
  9 10  1  0
  9 25  1  0
  9 26  1  0
 10 11  1  0
 10 27  1  1
 11 15  1  0
 11 12  1  0
 11 28  1  1
 12 13  1  0
 12 14  1  0
 12 15  1  0
 13 29  1  0
 13 30  1  0
 13 31  1  0
 14 32  1  0
 14 33  1  0
 14 34  1  0
 15 16  1  6
 15 17  1  0
 16 35  1  0
 16 36  1  0
 16 37  1  0
 17 38  1  0
 17 39  1  0
M  END
>  <i_m_ct_stereo_status>  (91) 
1

>  <s_m_source_file>  (91) 
/var/tmp/pbs.5076255.sched01/tmpbmel7479/053vx75p8.sdf

>  <i_m_source_file_index>  (91) 
36

>  <i_lp_mmshare_version>  (91) 
48012

>  <i_f3d_flags>  (91) 
0

>  <s_epik_input>  (91) 
W0NIMl0xTj1DKFtDSDNdKVtDQEBIXShbQ0gyXVtDQEhdKFtDSDJdMilbQ0gyXTMpW0NAQEhdMVtDQEBIXTJbQ0BASF0oQzQoW0NIM10pW0NIM10pW0NAXTM0W0NIM10=

>  <s_epik_cmdline>  (91) 
J2VwaWtfcHl0aG9uJywgJy1waHQnLCAnMi4wJywgJy1waCcsICc3LjAnLCAnLXRuJywgJzgnLCAnLW1hJywgJzIwMCcsICctaW1hZScsICc8aW5maWxlLm1hZT4nLCAnLW9tYWUnLCAnPG91dGZpbGUubWFlPic=

>  <r_lp_tautomer_probability>  (91) 
1

>  <r_epik_Ionization_Penalty>  (91) 
0.0463783

>  <r_epik_Ionization_Penalty_Charging>  (91) 
2.78166e-06

>  <r_epik_Ionization_Penalty_Neutral>  (91) 
0.0463755

>  <r_epik_State_Penalty>  (91) 
-0

>  <r_epik_Charging_Adjusted_Penalty>  (91) 
2.78166e-06

>  <i_epik_Tot_Q>  (91) 
0

>  <i_epik_Tot_abs_Q>  (91) 
0

>  <s_epik_Chemistry_Notes>  (91) 
This compound has an imine and may undergo hydrolysis.

>  <s_lp_Force_Field>  (91) 
OPLS3e

>  <r_lp_Energy>  (91) 
29.8006

>  <b_lp_Chiralities_Consistent>  (91) 
1

>  <s_lp_Variant>  (91) 
25:0-1

>  <s_i_glide_gridfile>  (91) 
pfpi4k_grid

>  <i_i_glide_lignum>  (91) 
36

>  <i_i_glide_rotatable_bonds>  (91) 
0

>  <r_i_docking_score>  (91) 
-3.30096

>  <r_i_glide_ligand_efficiency>  (91) 
-0.194174

>  <r_i_glide_ligand_efficiency_sa>  (91) 
-0.499276

>  <r_i_glide_ligand_efficiency_ln>  (91) 
-0.861146

>  <r_i_glide_gscore>  (91) 
-3.30096

>  <r_i_glide_lipo>  (91) 
-0.575541

>  <r_i_glide_hbond>  (91) 
0

>  <r_i_glide_metal>  (91) 
-0

>  <r_i_glide_rewards>  (91) 
-1.83152

>  <r_i_glide_evdw>  (91) 
-16.2986

>  <r_i_glide_ecoul>  (91) 
-0.526415

>  <r_i_glide_erotb>  (91) 
0

>  <r_i_glide_esite>  (91) 
0

>  <r_i_glide_emodel>  (91) 
-20.9541

>  <r_i_glide_energy>  (91) 
-16.825

>  <r_i_glide_einternal>  (91) 
0

>  <r_i_glide_intrahb_reward>  (91) 
-0

>  <i_i_glide_confnum>  (91) 
2

>  <i_i_glide_posenum>  (91) 
7

>  <r_i_glide_eff_state_penalty>  (91) 
0

>  <ligand_id>  (91) 
25

>  <original_smiles>  (91) 
CC1=NCC2C1CC1CC2C2C(C)(C)C2(C)C1

>  <smiles>  (91) 
[H]N1C(C([H])([H])[H])=C2C([H])([H])C3([H])C([H])([H])C([H])(C2([H])C1([H])[H])C1([H])C(C([H])([H])[H])(C([H])([H])[H])C1(C([H])([H])[H])C3([H])[H]

$$$$
25:0:2
     RDKit          3D

 42 45  0  0  1  0  0  0  0  0999 V2000
    3.8168   -0.1299   -3.6140 C   0  0  0  0  0  0  0  0  0  0  0  0
    3.9487   -1.5319   -3.0599 C   0  0  0  0  0  0  0  0  0  0  0  0
    4.2124   -2.5396   -3.9369 N   0  0  0  0  0  0  0  0  0  0  0  0
    4.6498   -3.7289   -3.2292 C   0  0  0  0  0  0  0  0  0  0  0  0
    4.2135   -3.4636   -1.7770 C   0  0  2  0  0  0  0  0  0  0  0  0
    4.0267   -1.9671   -1.7922 C   0  0  0  0  0  0  0  0  0  0  0  0
    4.1795   -1.2047   -0.4939 C   0  0  0  0  0  0  0  0  0  0  0  0
    5.3813   -1.7314    0.3622 C   0  0  2  0  0  0  0  0  0  0  0  0
    6.1573   -2.8573   -0.3637 C   0  0  0  0  0  0  0  0  0  0  0  0
    5.1728   -3.9842   -0.6846 C   0  0  1  0  0  0  0  0  0  0  0  0
    4.3492   -4.4573    0.5207 C   0  0  1  0  0  0  0  0  0  0  0  0
    4.8257   -4.9178    1.8777 C   0  0  0  0  0  0  0  0  0  0  0  0
    4.0740   -6.0730    2.5340 C   0  0  0  0  0  0  0  0  0  0  0  0
    6.2848   -5.0821    2.2467 C   0  0  0  0  0  0  0  0  0  0  0  0
    4.1393   -3.5353    1.7008 C   0  0  2  0  0  0  0  0  0  0  0  0
    2.7407   -3.3204    2.2560 C   0  0  0  0  0  0  0  0  0  0  0  0
    4.9338   -2.2301    1.7590 C   0  0  0  0  0  0  0  0  0  0  0  0
    3.9016    0.6220   -2.8372 H   0  0  0  0  0  0  0  0  0  0  0  0
    5.7268   -3.7903   -3.3193 H   0  0  0  0  0  0  0  0  0  0  0  0
    4.2206   -4.6416   -3.6445 H   0  0  0  0  0  0  0  0  0  0  0  0
    3.2194   -3.8565   -1.6363 H   0  0  0  0  0  0  0  0  0  0  0  0
    3.2440   -1.3261    0.0488 H   0  0  0  0  0  0  0  0  0  0  0  0
    4.2903   -0.1379   -0.6873 H   0  0  0  0  0  0  0  0  0  0  0  0
    6.0662   -0.8975    0.5138 H   0  0  0  0  0  0  0  0  0  0  0  0
    6.6120   -2.4787   -1.2861 H   0  0  0  0  0  0  0  0  0  0  0  0
    7.0111   -3.1935    0.2191 H   0  0  0  0  0  0  0  0  0  0  0  0
    5.6950   -4.8535   -1.0721 H   0  0  0  0  0  0  0  0  0  0  0  0
    3.4912   -5.0185    0.2045 H   0  0  0  0  0  0  0  0  0  0  0  0
    4.0671   -5.9520    3.6186 H   0  0  0  0  0  0  0  0  0  0  0  0
    4.5456   -7.0263    2.2915 H   0  0  0  0  0  0  0  0  0  0  0  0
    3.0453   -6.1269    2.1885 H   0  0  0  0  0  0  0  0  0  0  0  0
    6.3888   -5.1874    3.3278 H   0  0  0  0  0  0  0  0  0  0  0  0
    6.8833   -4.2288    1.9621 H   0  0  0  0  0  0  0  0  0  0  0  0
    6.7042   -5.9703    1.7676 H   0  0  0  0  0  0  0  0  0  0  0  0
    2.7825   -3.1805    3.3374 H   0  0  0  0  0  0  0  0  0  0  0  0
    2.1025   -4.1724    2.0460 H   0  0  0  0  0  0  0  0  0  0  0  0
    2.2715   -2.4475    1.8041 H   0  0  0  0  0  0  0  0  0  0  0  0
    5.8093   -2.3750    2.3901 H   0  0  0  0  0  0  0  0  0  0  0  0
    4.3603   -1.4467    2.2607 H   0  0  0  0  0  0  0  0  0  0  0  0
    2.8490   -0.0113   -4.1094 H   0  0  0  0  0  0  0  0  0  0  0  0
    4.5823    0.0491   -4.3653 H   0  0  0  0  0  0  0  0  0  0  0  0
    4.6859   -2.2792   -4.7824 H   0  0  0  0  0  0  0  0  0  0  0  0
  1  2  1  0
  1 18  1  0
  1 40  1  0
  1 41  1  0
  2  6  2  0
  2  3  1  0
  3  4  1  0
  3 42  1  0
  4  5  1  0
  4 19  1  0
  4 20  1  0
  5 10  1  0
  5 21  1  1
  5  6  1  0
  6  7  1  0
  7  8  1  0
  7 22  1  0
  7 23  1  0
  8 17  1  0
  8  9  1  0
  8 24  1  1
  9 10  1  0
  9 25  1  0
  9 26  1  0
 10 11  1  0
 10 27  1  6
 11 15  1  0
 11 12  1  0
 11 28  1  6
 12 13  1  0
 12 14  1  0
 12 15  1  0
 13 29  1  0
 13 30  1  0
 13 31  1  0
 14 32  1  0
 14 33  1  0
 14 34  1  0
 15 16  1  1
 15 17  1  0
 16 35  1  0
 16 36  1  0
 16 37  1  0
 17 38  1  0
 17 39  1  0
M  END
>  <i_m_ct_stereo_status>  (92) 
1

>  <s_m_source_file>  (92) 
/var/tmp/pbs.5076255.sched01/tmpbmel7479/053vx75p8.sdf

>  <i_m_source_file_index>  (92) 
36

>  <i_lp_mmshare_version>  (92) 
48012

>  <i_f3d_flags>  (92) 
0

>  <s_epik_input>  (92) 
W0NIMl0xTj1DKFtDSDNdKVtDQEBIXShbQ0gyXVtDQEhdKFtDSDJdMilbQ0gyXTMpW0NAQEhdMVtDQEBIXTJbQ0BASF0oQzQoW0NIM10pW0NIM10pW0NAXTM0W0NIM10=

>  <s_epik_cmdline>  (92) 
J2VwaWtfcHl0aG9uJywgJy1waHQnLCAnMi4wJywgJy1waCcsICc3LjAnLCAnLXRuJywgJzgnLCAnLW1hJywgJzIwMCcsICctaW1hZScsICc8aW5maWxlLm1hZT4nLCAnLW9tYWUnLCAnPG91dGZpbGUubWFlPic=

>  <r_lp_tautomer_probability>  (92) 
1

>  <r_epik_Ionization_Penalty>  (92) 
0.0463783

>  <r_epik_Ionization_Penalty_Charging>  (92) 
2.78166e-06

>  <r_epik_Ionization_Penalty_Neutral>  (92) 
0.0463755

>  <r_epik_State_Penalty>  (92) 
-0

>  <r_epik_Charging_Adjusted_Penalty>  (92) 
2.78166e-06

>  <i_epik_Tot_Q>  (92) 
0

>  <i_epik_Tot_abs_Q>  (92) 
0

>  <s_epik_Chemistry_Notes>  (92) 
This compound has an imine and may undergo hydrolysis.

>  <s_lp_Force_Field>  (92) 
OPLS3e

>  <r_lp_Energy>  (92) 
29.8006

>  <b_lp_Chiralities_Consistent>  (92) 
1

>  <s_lp_Variant>  (92) 
25:0-1

>  <s_i_glide_gridfile>  (92) 
pfpi4k_grid

>  <i_i_glide_lignum>  (92) 
36

>  <i_i_glide_rotatable_bonds>  (92) 
0

>  <r_i_docking_score>  (92) 
-3.07737

>  <r_i_glide_ligand_efficiency>  (92) 
-0.181022

>  <r_i_glide_ligand_efficiency_sa>  (92) 
-0.465459

>  <r_i_glide_ligand_efficiency_ln>  (92) 
-0.802818

>  <r_i_glide_gscore>  (92) 
-3.07737

>  <r_i_glide_lipo>  (92) 
-0.505594

>  <r_i_glide_hbond>  (92) 
0

>  <r_i_glide_metal>  (92) 
-0

>  <r_i_glide_rewards>  (92) 
-1.83152

>  <r_i_glide_evdw>  (92) 
-22.9879

>  <r_i_glide_ecoul>  (92) 
2.72759

>  <r_i_glide_erotb>  (92) 
0

>  <r_i_glide_esite>  (92) 
0

>  <r_i_glide_emodel>  (92) 
-24.0821

>  <r_i_glide_energy>  (92) 
-20.2603

>  <r_i_glide_einternal>  (92) 
0

>  <r_i_glide_intrahb_reward>  (92) 
-0

>  <i_i_glide_confnum>  (92) 
1

>  <i_i_glide_posenum>  (92) 
6

>  <r_i_glide_eff_state_penalty>  (92) 
0

>  <ligand_id>  (92) 
25

>  <original_smiles>  (92) 
CC1=NCC2C1CC1CC2C2C(C)(C)C2(C)C1

>  <smiles>  (92) 
[H]N1C(C([H])([H])[H])=C2C([H])([H])C3([H])C([H])([H])C([H])(C2([H])C1([H])[H])C1([H])C(C([H])([H])[H])(C([H])([H])[H])C1(C([H])([H])[H])C3([H])[H]

$$$$
26:0:0
     RDKit          3D

 60 65  0  0  1  0  0  0  0  0999 V2000
    1.8513   -5.8550    0.6271 C   0  0  0  0  0  0  0  0  0  0  0  0
    3.0190   -5.2189    0.8048 C   0  0  0  0  0  0  0  0  0  0  0  0
    3.5011   -4.1395   -0.1727 C   0  0  0  0  0  0  0  0  0  0  0  0
    4.3546   -3.0054    0.4898 C   0  0  2  0  0  0  0  0  0  0  0  0
    4.9046   -2.0201   -0.5488 C   0  0  0  0  0  0  0  0  0  0  0  0
    4.5663   -0.7255   -0.6633 C   0  0  0  0  0  0  0  0  0  0  0  0
    5.9504   -2.6283   -1.4828 C   0  0  0  0  0  0  0  0  0  0  0  0
    7.0849   -3.3261   -0.7058 C   0  0  0  0  0  0  0  0  0  0  0  0
    6.5500   -4.3064    0.3654 C   0  0  1  0  0  0  0  0  0  0  0  0
    7.6440   -4.7755    1.1206 O   0  0  0  0  0  0  0  0  0  0  0  0
    5.5489   -3.5629    1.2786 C   0  0  2  0  0  0  0  0  0  0  0  0
    4.7851   -4.2756    2.4076 C   0  0  2  0  0  0  0  0  0  0  0  0
    5.5098   -4.7151    3.6962 C   0  0  0  0  0  0  0  0  0  0  0  0
    4.6309   -5.8330    4.2932 C   0  0  2  0  0  0  0  0  0  0  0  0
    4.1872   -5.4174    5.7033 C   0  0  0  0  0  0  0  0  0  0  0  0
    5.1051   -7.3028    4.1868 C   0  0  2  0  0  0  0  0  0  0  0  0
    6.2084   -7.8051    3.2549 C   0  0  1  0  0  0  0  0  0  0  0  0
    7.5021   -8.1930    3.9843 C   0  0  0  0  0  0  0  0  0  0  0  0
    5.5601   -8.9624    2.4648 C   0  0  0  0  0  0  0  0  0  0  0  0
    4.0410   -8.6702    2.4110 C   0  0  1  0  0  0  0  0  0  0  0  0
    3.1813   -9.9379    2.5026 C   0  0  0  0  0  0  0  0  0  0  0  0
    3.7805   -7.6731    3.5397 C   0  0  2  0  0  0  0  0  0  0  0  0
    3.5380   -6.1796    3.2530 C   0  0  1  0  0  0  0  0  0  0  0  0
    2.2525   -5.7118    3.6126 O   0  0  0  0  0  0  0  0  0  0  0  0
    4.0055   -5.5172    1.9390 C   0  0  1  0  0  0  0  0  0  0  0  0
    3.8481   -3.2453    2.7355 O   0  0  0  0  0  0  0  0  0  0  0  0
    3.5657   -2.4552    1.6911 C   0  0  0  0  0  0  0  0  0  0  0  0
    2.7611   -1.5292    1.6788 O   0  0  0  0  0  0  0  0  0  0  0  0
    1.5267   -6.6399    1.2960 H   0  0  0  0  0  0  0  0  0  0  0  0
    1.2235   -5.6238   -0.2213 H   0  0  0  0  0  0  0  0  0  0  0  0
    4.0679   -4.6493   -0.9469 H   0  0  0  0  0  0  0  0  0  0  0  0
    2.6420   -3.7031   -0.6849 H   0  0  0  0  0  0  0  0  0  0  0  0
    3.8510   -0.2414   -0.0193 H   0  0  0  0  0  0  0  0  0  0  0  0
    5.0063   -0.1210   -1.4403 H   0  0  0  0  0  0  0  0  0  0  0  0
    5.4585   -3.3471   -2.1405 H   0  0  0  0  0  0  0  0  0  0  0  0
    6.3630   -1.8623   -2.1436 H   0  0  0  0  0  0  0  0  0  0  0  0
    7.7433   -3.8410   -1.4049 H   0  0  0  0  0  0  0  0  0  0  0  0
    7.7001   -2.5597   -0.2320 H   0  0  0  0  0  0  0  0  0  0  0  0
    6.0789   -5.1611   -0.1201 H   0  0  0  0  0  0  0  0  0  0  0  0
    8.0741   -5.4679    0.6385 H   0  0  0  0  0  0  0  0  0  0  0  0
    6.1043   -2.7344    1.7277 H   0  0  0  0  0  0  0  0  0  0  0  0
    6.5093   -5.0828    3.4730 H   0  0  0  0  0  0  0  0  0  0  0  0
    5.6556   -3.8714    4.3710 H   0  0  0  0  0  0  0  0  0  0  0  0
    3.5112   -6.1510    6.1421 H   0  0  0  0  0  0  0  0  0  0  0  0
    3.6666   -4.4595    5.6988 H   0  0  0  0  0  0  0  0  0  0  0  0
    5.0396   -5.3239    6.3774 H   0  0  0  0  0  0  0  0  0  0  0  0
    5.1566   -7.7697    5.1708 H   0  0  0  0  0  0  0  0  0  0  0  0
    6.4692   -7.0382    2.5280 H   0  0  0  0  0  0  0  0  0  0  0  0
    7.3348   -8.9856    4.7129 H   0  0  0  0  0  0  0  0  0  0  0  0
    7.9190   -7.3369    4.5137 H   0  0  0  0  0  0  0  0  0  0  0  0
    8.2558   -8.5408    3.2784 H   0  0  0  0  0  0  0  0  0  0  0  0
    5.9931   -9.0653    1.4687 H   0  0  0  0  0  0  0  0  0  0  0  0
    5.7348   -9.9027    2.9906 H   0  0  0  0  0  0  0  0  0  0  0  0
    3.8144   -8.2053    1.4504 H   0  0  0  0  0  0  0  0  0  0  0  0
    3.3479  -10.4740    3.4370 H   0  0  0  0  0  0  0  0  0  0  0  0
    3.4093  -10.6183    1.6848 H   0  0  0  0  0  0  0  0  0  0  0  0
    2.1206   -9.6973    2.4372 H   0  0  0  0  0  0  0  0  0  0  0  0
    3.0800   -8.0368    4.2954 H   0  0  0  0  0  0  0  0  0  0  0  0
    2.3484   -4.7905    3.7971 H   0  0  0  0  0  0  0  0  0  0  0  0
    4.7338   -6.1672    1.4644 H   0  0  0  0  0  0  0  0  0  0  0  0
  1  2  2  0
  1 29  1  0
  1 30  1  0
  2 25  1  0
  2  3  1  0
  4  3  1  6
  3 31  1  0
  3 32  1  0
  4 11  1  0
  4 27  1  0
  4  5  1  0
  5  6  2  0
  5  7  1  0
  6 33  1  0
  6 34  1  0
  7  8  1  0
  7 35  1  0
  7 36  1  0
  8  9  1  0
  8 37  1  0
  8 38  1  0
  9 10  1  0
  9 11  1  0
  9 39  1  6
 10 40  1  0
 11 12  1  0
 11 41  1  1
 12 25  1  0
 12 13  1  0
 12 26  1  1
 13 14  1  0
 13 42  1  0
 13 43  1  0
 14 23  1  0
 14 15  1  1
 14 16  1  0
 15 44  1  0
 15 45  1  0
 15 46  1  0
 16 22  1  0
 16 17  1  0
 16 47  1  1
 17 18  1  0
 17 19  1  0
 17 48  1  6
 18 49  1  0
 18 50  1  0
 18 51  1  0
 19 20  1  0
 19 52  1  0
 19 53  1  0
 20 21  1  0
 20 22  1  0
 20 54  1  6
 21 55  1  0
 21 56  1  0
 21 57  1  0
 22 23  1  0
 22 58  1  1
 23 24  1  1
 23 25  1  0
 24 59  1  0
 25 60  1  6
 26 27  1  0
 27 28  2  0
M  END
>  <i_m_ct_stereo_status>  (93) 
1

>  <s_m_source_file>  (93) 
/var/tmp/pbs.5076255.sched01/tmpbmel7479/053vx75p8.sdf

>  <i_m_source_file_index>  (93) 
37

>  <i_lp_mmshare_version>  (93) 
48012

>  <i_f3d_flags>  (93) 
0

>  <s_epik_input>  (93) 
W0NIMl09QzFbQ0gyXVtDSDJdW0NAQEhdKFtPSF0pW0NAQEhdKFtDQEBdMTIzKVtDQEBdNChPQzM9TylbQ0BIXShDKD1bQ0gyXSlbQ0gyXTIpW0NAXTUoW09IXSlbQ0BAXShbQ0gyXTQpKFtDSDNdKVtDQEhdNltDQEBIXTVbQ0BIXShbQ0gzXSlbQ0gyXVtDQEBIXTZbQ0gzXQ==

>  <s_epik_cmdline>  (93) 
J2VwaWtfcHl0aG9uJywgJy1waHQnLCAnMi4wJywgJy1waCcsICc3LjAnLCAnLXRuJywgJzgnLCAnLW1hJywgJzIwMCcsICctaW1hZScsICc8aW5maWxlLm1hZT4nLCAnLW9tYWUnLCAnPG91dGZpbGUubWFlPic=

>  <r_lp_tautomer_probability>  (93) 
1

>  <r_epik_Ionization_Penalty>  (93) 
3.40415e-07

>  <r_epik_Ionization_Penalty_Charging>  (93) 
0

>  <r_epik_Ionization_Penalty_Neutral>  (93) 
3.40415e-07

>  <r_epik_State_Penalty>  (93) 
-0

>  <r_epik_Charging_Adjusted_Penalty>  (93) 
0

>  <i_epik_Tot_Q>  (93) 
0

>  <i_epik_Tot_abs_Q>  (93) 
0

>  <s_epik_Chemistry_Notes>  (93) 
This compound has an ester and may undergo hydrolysis at high or low pH.

>  <s_lp_Force_Field>  (93) 
OPLS3e

>  <r_lp_Energy>  (93) 
47.8762

>  <b_lp_Chiralities_Consistent>  (93) 
1

>  <s_lp_Variant>  (93) 
26:0-1

>  <s_i_glide_gridfile>  (93) 
pfpi4k_grid

>  <i_i_glide_lignum>  (93) 
37

>  <i_i_glide_rotatable_bonds>  (93) 
2

>  <r_i_docking_score>  (93) 
-2.47139

>  <r_i_glide_ligand_efficiency>  (93) 
-0.0882641

>  <r_i_glide_ligand_efficiency_sa>  (93) 
-0.268022

>  <r_i_glide_ligand_efficiency_ln>  (93) 
-0.57047

>  <r_i_glide_gscore>  (93) 
-2.47139

>  <r_i_glide_lipo>  (93) 
-0.386279

>  <r_i_glide_hbond>  (93) 
0

>  <r_i_glide_metal>  (93) 
-0

>  <r_i_glide_rewards>  (93) 
-1.28744

>  <r_i_glide_evdw>  (93) 
-19.24

>  <r_i_glide_ecoul>  (93) 
1.12881

>  <r_i_glide_erotb>  (93) 
0

>  <r_i_glide_esite>  (93) 
-0.00499565

>  <r_i_glide_emodel>  (93) 
-25.7776

>  <r_i_glide_energy>  (93) 
-18.1112

>  <r_i_glide_einternal>  (93) 
1.44099

>  <r_i_glide_intrahb_reward>  (93) 
-0.5

>  <i_i_glide_confnum>  (93) 
1

>  <i_i_glide_posenum>  (93) 
25

>  <r_i_glide_eff_state_penalty>  (93) 
0

>  <ligand_id>  (93) 
26

>  <original_smiles>  (93) 
C=C1CC23C(=C)CCC(O)C2C2(CC4(C)C5C(C)CC(C)C5C4(O)C12)OC3=O

>  <smiles>  (93) 
[H]OC1([H])C([H])([H])C([H])([H])C(=C([H])[H])C23C(=O)OC4(C([H])([H])C5(C([H])([H])[H])C6([H])C([H])(C([H])([H])[H])C([H])([H])C([H])(C([H])([H])[H])C6([H])C5(O[H])C4([H])C(=C([H])[H])C2([H])[H])C13[H]

$$$$
26:0:1
     RDKit          3D

 60 65  0  0  1  0  0  0  0  0999 V2000
    1.9512   -6.2632    0.9554 C   0  0  0  0  0  0  0  0  0  0  0  0
    3.0708   -5.5326    1.0844 C   0  0  0  0  0  0  0  0  0  0  0  0
    3.4404   -4.4513    0.0651 C   0  0  0  0  0  0  0  0  0  0  0  0
    4.2129   -3.2315    0.6707 C   0  0  2  0  0  0  0  0  0  0  0  0
    4.6555   -2.2285   -0.4069 C   0  0  0  0  0  0  0  0  0  0  0  0
    4.2162   -0.9681   -0.5444 C   0  0  0  0  0  0  0  0  0  0  0  0
    5.7223   -2.7791   -1.3518 C   0  0  0  0  0  0  0  0  0  0  0  0
    6.9265   -3.3628   -0.5879 C   0  0  0  0  0  0  0  0  0  0  0  0
    6.4994   -4.3554    0.5191 C   0  0  1  0  0  0  0  0  0  0  0  0
    7.6524   -4.7069    1.2472 O   0  0  0  0  0  0  0  0  0  0  0  0
    5.4655   -3.6725    1.4412 C   0  0  2  0  0  0  0  0  0  0  0  0
    4.7937   -4.4099    2.6114 C   0  0  2  0  0  0  0  0  0  0  0  0
    5.5888   -4.7559    3.8886 C   0  0  0  0  0  0  0  0  0  0  0  0
    4.8234   -5.9248    4.5374 C   0  0  2  0  0  0  0  0  0  0  0  0
    4.3842   -5.5102    5.9486 C   0  0  0  0  0  0  0  0  0  0  0  0
    5.4128   -7.3557    4.4530 C   0  0  2  0  0  0  0  0  0  0  0  0
    6.5313   -7.7909    3.5038 C   0  0  1  0  0  0  0  0  0  0  0  0
    7.8733   -8.0481    4.2043 C   0  0  0  0  0  0  0  0  0  0  0  0
    5.9638   -9.0180    2.7605 C   0  0  0  0  0  0  0  0  0  0  0  0
    4.4249   -8.8511    2.7437 C   0  0  1  0  0  0  0  0  0  0  0  0
    3.6785  -10.1853    2.8926 C   0  0  0  0  0  0  0  0  0  0  0  0
    4.1073   -7.8501    3.8517 C   0  0  2  0  0  0  0  0  0  0  0  0
    3.7360   -6.3872    3.5389 C   0  0  1  0  0  0  0  0  0  0  0  0
    2.4204   -6.0211    3.9060 O   0  0  0  0  0  0  0  0  0  0  0  0
    4.1097   -5.7252    2.1957 C   0  0  1  0  0  0  0  0  0  0  0  0
    3.7922   -3.4426    2.9388 O   0  0  0  0  0  0  0  0  0  0  0  0
    3.4128   -2.7141    1.8785 C   0  0  0  0  0  0  0  0  0  0  0  0
    2.5294   -1.8608    1.8581 O   0  0  0  0  0  0  0  0  0  0  0  0
    1.7142   -7.0553    1.6510 H   0  0  0  0  0  0  0  0  0  0  0  0
    1.2805   -6.1097    0.1240 H   0  0  0  0  0  0  0  0  0  0  0  0
    4.0300   -4.9376   -0.7072 H   0  0  0  0  0  0  0  0  0  0  0  0
    2.5362   -4.1041   -0.4367 H   0  0  0  0  0  0  0  0  0  0  0  0
    3.4661   -0.5324    0.0976 H   0  0  0  0  0  0  0  0  0  0  0  0
    4.5935   -0.3268   -1.3294 H   0  0  0  0  0  0  0  0  0  0  0  0
    5.2730   -3.5543   -1.9762 H   0  0  0  0  0  0  0  0  0  0  0  0
    6.0550   -2.0012   -2.0430 H   0  0  0  0  0  0  0  0  0  0  0  0
    7.6067   -3.8476   -1.2876 H   0  0  0  0  0  0  0  0  0  0  0  0
    7.4935   -2.5392   -0.1520 H   0  0  0  0  0  0  0  0  0  0  0  0
    6.0953   -5.2601    0.0624 H   0  0  0  0  0  0  0  0  0  0  0  0
    7.4157   -5.3694    1.8793 H   0  0  0  0  0  0  0  0  0  0  0  0
    5.9628   -2.7899    1.8534 H   0  0  0  0  0  0  0  0  0  0  0  0
    6.6077   -5.0515    3.6511 H   0  0  0  0  0  0  0  0  0  0  0  0
    5.6825   -3.8871    4.5393 H   0  0  0  0  0  0  0  0  0  0  0  0
    3.7868   -6.2847    6.4299 H   0  0  0  0  0  0  0  0  0  0  0  0
    3.7856   -4.5990    5.9317 H   0  0  0  0  0  0  0  0  0  0  0  0
    5.2442   -5.3249    6.5937 H   0  0  0  0  0  0  0  0  0  0  0  0
    5.5307   -7.7883    5.4478 H   0  0  0  0  0  0  0  0  0  0  0  0
    6.7077   -7.0274    2.7488 H   0  0  0  0  0  0  0  0  0  0  0  0
    7.7932   -8.8319    4.9571 H   0  0  0  0  0  0  0  0  0  0  0  0
    8.2318   -7.1464    4.7001 H   0  0  0  0  0  0  0  0  0  0  0  0
    8.6347   -8.3515    3.4847 H   0  0  0  0  0  0  0  0  0  0  0  0
    6.3784   -9.1113    1.7551 H   0  0  0  0  0  0  0  0  0  0  0  0
    6.2297   -9.9250    3.3051 H   0  0  0  0  0  0  0  0  0  0  0  0
    4.1334   -8.4356    1.7782 H   0  0  0  0  0  0  0  0  0  0  0  0
    3.9111  -10.6787    3.8381 H   0  0  0  0  0  0  0  0  0  0  0  0
    3.9498  -10.8671    2.0910 H   0  0  0  0  0  0  0  0  0  0  0  0
    2.5981  -10.0360    2.8460 H   0  0  0  0  0  0  0  0  0  0  0  0
    3.4679   -8.2574    4.6390 H   0  0  0  0  0  0  0  0  0  0  0  0
    2.2715   -6.3853    4.7635 H   0  0  0  0  0  0  0  0  0  0  0  0
    4.8765   -6.3275    1.7151 H   0  0  0  0  0  0  0  0  0  0  0  0
  1  2  2  0
  1 29  1  0
  1 30  1  0
  2 25  1  0
  2  3  1  0
  4  3  1  6
  3 31  1  0
  3 32  1  0
  4 11  1  0
  4 27  1  0
  4  5  1  0
  5  6  2  0
  5  7  1  0
  6 33  1  0
  6 34  1  0
  7  8  1  0
  7 35  1  0
  7 36  1  0
  8  9  1  0
  8 37  1  0
  8 38  1  0
  9 10  1  0
  9 11  1  0
  9 39  1  6
 10 40  1  0
 11 12  1  0
 11 41  1  1
 12 25  1  0
 12 13  1  0
 12 26  1  1
 13 14  1  0
 13 42  1  0
 13 43  1  0
 14 23  1  0
 14 15  1  1
 14 16  1  0
 15 44  1  0
 15 45  1  0
 15 46  1  0
 16 22  1  0
 16 17  1  0
 16 47  1  1
 17 18  1  0
 17 19  1  0
 17 48  1  6
 18 49  1  0
 18 50  1  0
 18 51  1  0
 19 20  1  0
 19 52  1  0
 19 53  1  0
 20 21  1  0
 20 22  1  0
 20 54  1  6
 21 55  1  0
 21 56  1  0
 21 57  1  0
 22 23  1  0
 22 58  1  1
 23 24  1  1
 23 25  1  0
 24 59  1  0
 25 60  1  6
 26 27  1  0
 27 28  2  0
M  END
>  <i_m_ct_stereo_status>  (94) 
1

>  <s_m_source_file>  (94) 
/var/tmp/pbs.5076255.sched01/tmpbmel7479/053vx75p8.sdf

>  <i_m_source_file_index>  (94) 
37

>  <i_lp_mmshare_version>  (94) 
48012

>  <i_f3d_flags>  (94) 
0

>  <s_epik_input>  (94) 
W0NIMl09QzFbQ0gyXVtDSDJdW0NAQEhdKFtPSF0pW0NAQEhdKFtDQEBdMTIzKVtDQEBdNChPQzM9TylbQ0BIXShDKD1bQ0gyXSlbQ0gyXTIpW0NAXTUoW09IXSlbQ0BAXShbQ0gyXTQpKFtDSDNdKVtDQEhdNltDQEBIXTVbQ0BIXShbQ0gzXSlbQ0gyXVtDQEBIXTZbQ0gzXQ==

>  <s_epik_cmdline>  (94) 
J2VwaWtfcHl0aG9uJywgJy1waHQnLCAnMi4wJywgJy1waCcsICc3LjAnLCAnLXRuJywgJzgnLCAnLW1hJywgJzIwMCcsICctaW1hZScsICc8aW5maWxlLm1hZT4nLCAnLW9tYWUnLCAnPG91dGZpbGUubWFlPic=

>  <r_lp_tautomer_probability>  (94) 
1

>  <r_epik_Ionization_Penalty>  (94) 
3.40415e-07

>  <r_epik_Ionization_Penalty_Charging>  (94) 
0

>  <r_epik_Ionization_Penalty_Neutral>  (94) 
3.40415e-07

>  <r_epik_State_Penalty>  (94) 
-0

>  <r_epik_Charging_Adjusted_Penalty>  (94) 
0

>  <i_epik_Tot_Q>  (94) 
0

>  <i_epik_Tot_abs_Q>  (94) 
0

>  <s_epik_Chemistry_Notes>  (94) 
This compound has an ester and may undergo hydrolysis at high or low pH.

>  <s_lp_Force_Field>  (94) 
OPLS3e

>  <r_lp_Energy>  (94) 
47.8762

>  <b_lp_Chiralities_Consistent>  (94) 
1

>  <s_lp_Variant>  (94) 
26:0-1

>  <s_i_glide_gridfile>  (94) 
pfpi4k_grid

>  <i_i_glide_lignum>  (94) 
37

>  <i_i_glide_rotatable_bonds>  (94) 
2

>  <r_i_docking_score>  (94) 
-1.98587

>  <r_i_glide_ligand_efficiency>  (94) 
-0.0709238

>  <r_i_glide_ligand_efficiency_sa>  (94) 
-0.215366

>  <r_i_glide_ligand_efficiency_ln>  (94) 
-0.458396

>  <r_i_glide_gscore>  (94) 
-1.98587

>  <r_i_glide_lipo>  (94) 
-0.367157

>  <r_i_glide_hbond>  (94) 
0

>  <r_i_glide_metal>  (94) 
-0

>  <r_i_glide_rewards>  (94) 
-0.787442

>  <r_i_glide_evdw>  (94) 
-19.496

>  <r_i_glide_ecoul>  (94) 
0.977846

>  <r_i_glide_erotb>  (94) 
0

>  <r_i_glide_esite>  (94) 
-0.00314537

>  <r_i_glide_emodel>  (94) 
-21.1454

>  <r_i_glide_energy>  (94) 
-18.5181

>  <r_i_glide_einternal>  (94) 
0.34046

>  <r_i_glide_intrahb_reward>  (94) 
-0

>  <i_i_glide_confnum>  (94) 
1

>  <i_i_glide_posenum>  (94) 
7

>  <r_i_glide_eff_state_penalty>  (94) 
0

>  <ligand_id>  (94) 
26

>  <original_smiles>  (94) 
C=C1CC23C(=C)CCC(O)C2C2(CC4(C)C5C(C)CC(C)C5C4(O)C12)OC3=O

>  <smiles>  (94) 
[H]OC1([H])C([H])([H])C([H])([H])C(=C([H])[H])C23C(=O)OC4(C([H])([H])C5(C([H])([H])[H])C6([H])C([H])(C([H])([H])[H])C([H])([H])C([H])(C([H])([H])[H])C6([H])C5(O[H])C4([H])C(=C([H])[H])C2([H])[H])C13[H]

$$$$
26:0:2
     RDKit          3D

 60 65  0  0  1  0  0  0  0  0999 V2000
    0.6125   -6.6575    0.8907 C   0  0  0  0  0  0  0  0  0  0  0  0
    1.8135   -6.2858    1.3594 C   0  0  0  0  0  0  0  0  0  0  0  0
    2.7835   -5.4439    0.5176 C   0  0  0  0  0  0  0  0  0  0  0  0
    3.6930   -4.4763    1.3497 C   0  0  2  0  0  0  0  0  0  0  0  0
    4.7215   -3.7418    0.4710 C   0  0  0  0  0  0  0  0  0  0  0  0
    4.7632   -2.4183    0.2259 C   0  0  0  0  0  0  0  0  0  0  0  0
    5.7845   -4.6716   -0.1166 C   0  0  0  0  0  0  0  0  0  0  0  0
    6.4652   -5.5422    0.9599 C   0  0  0  0  0  0  0  0  0  0  0  0
    5.4490   -6.2624    1.8754 C   0  0  1  0  0  0  0  0  0  0  0  0
    6.1646   -6.8821    2.9203 O   0  0  0  0  0  0  0  0  0  0  0  0
    4.4628   -5.2218    2.4519 C   0  0  2  0  0  0  0  0  0  0  0  0
    3.2834   -5.6239    3.3533 C   0  0  2  0  0  0  0  0  0  0  0  0
    3.5179   -6.0916    4.8043 C   0  0  0  0  0  0  0  0  0  0  0  0
    2.2621   -6.9097    5.1730 C   0  0  2  0  0  0  0  0  0  0  0  0
    1.5886   -6.2685    6.3946 C   0  0  0  0  0  0  0  0  0  0  0  0
    2.3617   -8.4546    5.2445 C   0  0  2  0  0  0  0  0  0  0  0  0
    3.5084   -9.2879    4.6692 C   0  0  1  0  0  0  0  0  0  0  0  0
    4.4308   -9.8918    5.7377 C   0  0  0  0  0  0  0  0  0  0  0  0
    2.8205  -10.3353    3.7683 C   0  0  0  0  0  0  0  0  0  0  0  0
    1.4911   -9.7054    3.2886 C   0  0  1  0  0  0  0  0  0  0  0  0
    0.3537  -10.7283    3.1812 C   0  0  0  0  0  0  0  0  0  0  0  0
    1.1994   -8.5692    4.2695 C   0  0  2  0  0  0  0  0  0  0  0  0
    1.4225   -7.0927    3.8853 C   0  0  1  0  0  0  0  0  0  0  0  0
    0.2430   -6.3090    3.8455 O   0  0  0  0  0  0  0  0  0  0  0  0
    2.3670   -6.6923    2.7294 C   0  0  1  0  0  0  0  0  0  0  0  0
    2.5881   -4.3720    3.3810 O   0  0  0  0  0  0  0  0  0  0  0  0
    2.7901   -3.6457    2.2739 C   0  0  0  0  0  0  0  0  0  0  0  0
    2.2761   -2.5630    2.0099 O   0  0  0  0  0  0  0  0  0  0  0  0
   -0.0562   -7.2816    1.4639 H   0  0  0  0  0  0  0  0  0  0  0  0
    0.2885   -6.3509   -0.0930 H   0  0  0  0  0  0  0  0  0  0  0  0
    3.3884   -6.1444   -0.0527 H   0  0  0  0  0  0  0  0  0  0  0  0
    2.2225   -4.8776   -0.2260 H   0  0  0  0  0  0  0  0  0  0  0  0
    4.0465   -1.7188    0.6257 H   0  0  0  0  0  0  0  0  0  0  0  0
    5.5404   -1.9976   -0.3967 H   0  0  0  0  0  0  0  0  0  0  0  0
    5.3124   -5.3163   -0.8598 H   0  0  0  0  0  0  0  0  0  0  0  0
    6.5371   -4.0935   -0.6599 H   0  0  0  0  0  0  0  0  0  0  0  0
    7.1232   -6.2666    0.4804 H   0  0  0  0  0  0  0  0  0  0  0  0
    7.1156   -4.9016    1.5573 H   0  0  0  0  0  0  0  0  0  0  0  0
    4.9278   -7.0348    1.3088 H   0  0  0  0  0  0  0  0  0  0  0  0
    6.7227   -7.5524    2.5517 H   0  0  0  0  0  0  0  0  0  0  0  0
    5.0729   -4.5076    3.0110 H   0  0  0  0  0  0  0  0  0  0  0  0
    4.4155   -6.7020    4.8763 H   0  0  0  0  0  0  0  0  0  0  0  0
    3.6904   -5.2430    5.4669 H   0  0  0  0  0  0  0  0  0  0  0  0
    0.6638   -6.7801    6.6597 H   0  0  0  0  0  0  0  0  0  0  0  0
    1.3445   -5.2216    6.2156 H   0  0  0  0  0  0  0  0  0  0  0  0
    2.2361   -6.3090    7.2713 H   0  0  0  0  0  0  0  0  0  0  0  0
    2.0428   -8.8239    6.2205 H   0  0  0  0  0  0  0  0  0  0  0  0
    4.1318   -8.6777    4.0184 H   0  0  0  0  0  0  0  0  0  0  0  0
    3.8883  -10.5504    6.4165 H   0  0  0  0  0  0  0  0  0  0  0  0
    4.8985   -9.1095    6.3345 H   0  0  0  0  0  0  0  0  0  0  0  0
    5.2275  -10.4738    5.2758 H   0  0  0  0  0  0  0  0  0  0  0  0
    3.4565  -10.6347    2.9327 H   0  0  0  0  0  0  0  0  0  0  0  0
    2.6133  -11.2342    4.3527 H   0  0  0  0  0  0  0  0  0  0  0  0
    1.6428   -9.2979    2.2892 H   0  0  0  0  0  0  0  0  0  0  0  0
    0.1395  -11.1890    4.1456 H   0  0  0  0  0  0  0  0  0  0  0  0
    0.6122  -11.5257    2.4854 H   0  0  0  0  0  0  0  0  0  0  0  0
   -0.5617  -10.2573    2.8213 H   0  0  0  0  0  0  0  0  0  0  0  0
    0.2646   -8.6974    4.8206 H   0  0  0  0  0  0  0  0  0  0  0  0
   -0.2214   -6.4997    4.6444 H   0  0  0  0  0  0  0  0  0  0  0  0
    3.0059   -7.5392    2.4970 H   0  0  0  0  0  0  0  0  0  0  0  0
  1  2  2  0
  1 29  1  0
  1 30  1  0
  2 25  1  0
  2  3  1  0
  4  3  1  6
  3 31  1  0
  3 32  1  0
  4 11  1  0
  4 27  1  0
  4  5  1  0
  5  6  2  0
  5  7  1  0
  6 33  1  0
  6 34  1  0
  7  8  1  0
  7 35  1  0
  7 36  1  0
  8  9  1  0
  8 37  1  0
  8 38  1  0
  9 10  1  0
  9 11  1  0
  9 39  1  6
 10 40  1  0
 11 12  1  0
 11 41  1  1
 12 25  1  0
 12 13  1  0
 12 26  1  1
 13 14  1  0
 13 42  1  0
 13 43  1  0
 14 23  1  0
 14 15  1  1
 14 16  1  0
 15 44  1  0
 15 45  1  0
 15 46  1  0
 16 22  1  0
 16 17  1  0
 16 47  1  1
 17 18  1  0
 17 19  1  0
 17 48  1  6
 18 49  1  0
 18 50  1  0
 18 51  1  0
 19 20  1  0
 19 52  1  0
 19 53  1  0
 20 21  1  0
 20 22  1  0
 20 54  1  6
 21 55  1  0
 21 56  1  0
 21 57  1  0
 22 23  1  0
 22 58  1  1
 23 24  1  1
 23 25  1  0
 24 59  1  0
 25 60  1  6
 26 27  1  0
 27 28  2  0
M  END
>  <i_m_ct_stereo_status>  (95) 
1

>  <s_m_source_file>  (95) 
/var/tmp/pbs.5076255.sched01/tmpbmel7479/053vx75p8.sdf

>  <i_m_source_file_index>  (95) 
37

>  <i_lp_mmshare_version>  (95) 
48012

>  <i_f3d_flags>  (95) 
0

>  <s_epik_input>  (95) 
W0NIMl09QzFbQ0gyXVtDSDJdW0NAQEhdKFtPSF0pW0NAQEhdKFtDQEBdMTIzKVtDQEBdNChPQzM9TylbQ0BIXShDKD1bQ0gyXSlbQ0gyXTIpW0NAXTUoW09IXSlbQ0BAXShbQ0gyXTQpKFtDSDNdKVtDQEhdNltDQEBIXTVbQ0BIXShbQ0gzXSlbQ0gyXVtDQEBIXTZbQ0gzXQ==

>  <s_epik_cmdline>  (95) 
J2VwaWtfcHl0aG9uJywgJy1waHQnLCAnMi4wJywgJy1waCcsICc3LjAnLCAnLXRuJywgJzgnLCAnLW1hJywgJzIwMCcsICctaW1hZScsICc8aW5maWxlLm1hZT4nLCAnLW9tYWUnLCAnPG91dGZpbGUubWFlPic=

>  <r_lp_tautomer_probability>  (95) 
1

>  <r_epik_Ionization_Penalty>  (95) 
3.40415e-07

>  <r_epik_Ionization_Penalty_Charging>  (95) 
0

>  <r_epik_Ionization_Penalty_Neutral>  (95) 
3.40415e-07

>  <r_epik_State_Penalty>  (95) 
-0

>  <r_epik_Charging_Adjusted_Penalty>  (95) 
0

>  <i_epik_Tot_Q>  (95) 
0

>  <i_epik_Tot_abs_Q>  (95) 
0

>  <s_epik_Chemistry_Notes>  (95) 
This compound has an ester and may undergo hydrolysis at high or low pH.

>  <s_lp_Force_Field>  (95) 
OPLS3e

>  <r_lp_Energy>  (95) 
47.8762

>  <b_lp_Chiralities_Consistent>  (95) 
1

>  <s_lp_Variant>  (95) 
26:0-1

>  <s_i_glide_gridfile>  (95) 
pfpi4k_grid

>  <i_i_glide_lignum>  (95) 
37

>  <i_i_glide_rotatable_bonds>  (95) 
2

>  <r_i_docking_score>  (95) 
-1.9243

>  <r_i_glide_ligand_efficiency>  (95) 
-0.0687249

>  <r_i_glide_ligand_efficiency_sa>  (95) 
-0.208689

>  <r_i_glide_ligand_efficiency_ln>  (95) 
-0.444184

>  <r_i_glide_gscore>  (95) 
-1.9243

>  <r_i_glide_lipo>  (95) 
-0.266258

>  <r_i_glide_hbond>  (95) 
0

>  <r_i_glide_metal>  (95) 
-0

>  <r_i_glide_rewards>  (95) 
-0.787442

>  <r_i_glide_evdw>  (95) 
-20.5961

>  <r_i_glide_ecoul>  (95) 
1.07937

>  <r_i_glide_erotb>  (95) 
0

>  <r_i_glide_esite>  (95) 
-0.00269718

>  <r_i_glide_emodel>  (95) 
-22.079

>  <r_i_glide_energy>  (95) 
-19.5168

>  <r_i_glide_einternal>  (95) 
0.322347

>  <r_i_glide_intrahb_reward>  (95) 
-0

>  <i_i_glide_confnum>  (95) 
1

>  <i_i_glide_posenum>  (95) 
32

>  <r_i_glide_eff_state_penalty>  (95) 
0

>  <ligand_id>  (95) 
26

>  <original_smiles>  (95) 
C=C1CC23C(=C)CCC(O)C2C2(CC4(C)C5C(C)CC(C)C5C4(O)C12)OC3=O

>  <smiles>  (95) 
[H]OC1([H])C([H])([H])C([H])([H])C(=C([H])[H])C23C(=O)OC4(C([H])([H])C5(C([H])([H])[H])C6([H])C([H])(C([H])([H])[H])C([H])([H])C([H])(C([H])([H])[H])C6([H])C5(O[H])C4([H])C(=C([H])[H])C2([H])[H])C13[H]

$$$$
27:0:0
     RDKit          3D

 52 55  0  0  1  0  0  0  0  0999 V2000
    3.7714   -8.1099    2.6545 C   0  0  0  0  0  0  0  0  0  0  0  0
    2.9220   -6.8488    2.6433 C   0  0  0  0  0  0  0  0  0  0  0  0
    1.8496   -6.8087    2.0145 O   0  0  0  0  0  0  0  0  0  0  0  0
    3.4534   -5.6377    3.4298 C   0  0  2  0  0  0  0  0  0  0  0  0
    2.3209   -4.7680    3.9914 C   0  0  0  0  0  0  0  0  0  0  0  0
    2.0225   -3.7503    2.8954 C   0  0  0  0  0  0  0  0  0  0  0  0
    3.3683   -3.4722    2.2221 C   0  0  2  0  0  0  0  0  0  0  0  0
    3.3224   -3.1152    0.7173 C   0  0  2  0  0  0  0  0  0  0  0  0
    2.5324   -4.0914   -0.1835 C   0  0  0  0  0  0  0  0  0  0  0  0
    2.6446   -3.7689   -1.6317 C   0  0  0  0  0  0  0  0  0  0  0  0
    3.6421   -3.0359   -2.1789 C   0  0  0  0  0  0  0  0  0  0  0  0
    3.5919   -2.6597   -3.6525 C   0  0  0  0  0  0  0  0  0  0  0  0
    3.3702   -1.1668   -3.7427 C   0  0  0  0  0  0  0  0  0  0  0  0
    2.6972   -0.6390   -4.6520 O   0  0  0  0  0  0  0  0  0  0  0  0
    4.0990   -0.2765   -2.7604 C   0  0  0  0  0  0  0  0  0  0  0  0
    4.3292   -0.8760   -1.3409 C   0  0  0  0  0  0  0  0  0  0  0  0
    4.7074   -2.3792   -1.3108 C   0  0  2  0  0  0  0  0  0  0  0  0
    6.0845   -2.5395   -1.9627 C   0  0  0  0  0  0  0  0  0  0  0  0
    4.7579   -2.9125    0.1661 C   0  0  2  0  0  0  0  0  0  0  0  0
    5.6108   -4.1651    0.4772 C   0  0  0  0  0  0  0  0  0  0  0  0
    6.7982   -4.2861    0.0795 O   0  0  0  0  0  0  0  0  0  0  0  0
    5.0722   -5.2458    1.3937 C   0  0  0  0  0  0  0  0  0  0  0  0
    4.3271   -4.6345    2.6197 C   0  0  2  0  0  0  0  0  0  0  0  0
    5.3913   -4.0673    3.5785 C   0  0  0  0  0  0  0  0  0  0  0  0
    3.9089   -8.4656    3.6764 H   0  0  0  0  0  0  0  0  0  0  0  0
    4.7576   -7.9135    2.2331 H   0  0  0  0  0  0  0  0  0  0  0  0
    3.3009   -8.9021    2.0745 H   0  0  0  0  0  0  0  0  0  0  0  0
    4.0331   -6.0466    4.2569 H   0  0  0  0  0  0  0  0  0  0  0  0
    1.4319   -5.3433    4.2494 H   0  0  0  0  0  0  0  0  0  0  0  0
    2.6526   -4.2560    4.8927 H   0  0  0  0  0  0  0  0  0  0  0  0
    1.3460   -4.2200    2.1930 H   0  0  0  0  0  0  0  0  0  0  0  0
    1.5549   -2.8399    3.2713 H   0  0  0  0  0  0  0  0  0  0  0  0
    3.7454   -2.5671    2.6902 H   0  0  0  0  0  0  0  0  0  0  0  0
    2.7940   -2.1702    0.6465 H   0  0  0  0  0  0  0  0  0  0  0  0
    2.7639   -5.1506   -0.0442 H   0  0  0  0  0  0  0  0  0  0  0  0
    1.4676   -3.9883   -0.0291 H   0  0  0  0  0  0  0  0  0  0  0  0
    1.8785   -4.1646   -2.2655 H   0  0  0  0  0  0  0  0  0  0  0  0
    4.5338   -2.8677   -4.1495 H   0  0  0  0  0  0  0  0  0  0  0  0
    2.8313   -3.2207   -4.1877 H   0  0  0  0  0  0  0  0  0  0  0  0
    5.0178   -0.1264   -3.2827 H   0  0  0  0  0  0  0  0  0  0  0  0
    3.6002    0.6782   -2.7376 H   0  0  0  0  0  0  0  0  0  0  0  0
    5.0767   -0.2682   -0.8388 H   0  0  0  0  0  0  0  0  0  0  0  0
    3.3998   -0.7203   -0.8074 H   0  0  0  0  0  0  0  0  0  0  0  0
    6.8934   -2.1220   -1.3658 H   0  0  0  0  0  0  0  0  0  0  0  0
    5.9945   -1.9770   -2.8572 H   0  0  0  0  0  0  0  0  0  0  0  0
    6.3333   -3.5571   -2.2679 H   0  0  0  0  0  0  0  0  0  0  0  0
    5.2340   -2.1245    0.7451 H   0  0  0  0  0  0  0  0  0  0  0  0
    4.4457   -5.9098    0.8022 H   0  0  0  0  0  0  0  0  0  0  0  0
    5.9061   -5.8505    1.7356 H   0  0  0  0  0  0  0  0  0  0  0  0
    5.9662   -3.2735    3.0966 H   0  0  0  0  0  0  0  0  0  0  0  0
    6.0893   -4.8404    3.9058 H   0  0  0  0  0  0  0  0  0  0  0  0
    4.9472   -3.6319    4.4717 H   0  0  0  0  0  0  0  0  0  0  0  0
  1  2  1  0
  1 25  1  0
  1 26  1  0
  1 27  1  0
  2  3  2  0
  2  4  1  0
  4 23  1  0
  4  5  1  0
  4 28  1  1
  5  6  1  0
  5 29  1  0
  5 30  1  0
  6  7  1  0
  6 31  1  0
  6 32  1  0
  7 23  1  0
  7  8  1  0
  7 33  1  1
  8 19  1  0
  8  9  1  0
  8 34  1  1
  9 10  1  0
  9 35  1  0
  9 36  1  0
 10 11  2  0
 10 37  1  0
 11 17  1  0
 11 12  1  0
 12 13  1  0
 12 38  1  0
 12 39  1  0
 13 14  2  0
 13 15  1  0
 15 16  1  0
 15 40  1  0
 15 41  1  0
 16 17  1  0
 16 42  1  0
 16 43  1  0
 17 18  1  6
 17 19  1  0
 18 44  1  0
 18 45  1  0
 18 46  1  0
 19 20  1  0
 19 47  1  1
 20 21  2  0
 20 22  1  0
 22 23  1  0
 22 48  1  0
 22 49  1  0
 23 24  1  1
 24 50  1  0
 24 51  1  0
 24 52  1  0
M  END
>  <i_m_ct_stereo_status>  (96) 
1

>  <s_m_source_file>  (96) 
/var/tmp/pbs.5076255.sched01/tmpbmel7479/053vx75p8.sdf

>  <i_m_source_file_index>  (96) 
38

>  <i_lp_mmshare_version>  (96) 
48012

>  <i_f3d_flags>  (96) 
0

>  <s_epik_input>  (96) 
W0NIM11DKD1PKVtDQEhdKFtDSDJdW0NIMl0xKVtDQEBdKFtDSDNdKShbQ0gyXUMoPU8pW0NASF0yMylbQ0BIXTFbQ0BASF0yW0NIMl1bQ0hdPUMoW0NAXTM0W0NIM10pW0NIMl1DKD1PKVtDSDJdW0NIMl00

>  <s_epik_cmdline>  (96) 
J2VwaWtfcHl0aG9uJywgJy1waHQnLCAnMi4wJywgJy1waCcsICc3LjAnLCAnLXRuJywgJzgnLCAnLW1hJywgJzIwMCcsICctaW1hZScsICc8aW5maWxlLm1hZT4nLCAnLW9tYWUnLCAnPG91dGZpbGUubWFlPic=

>  <r_lp_tautomer_probability>  (96) 
1

>  <r_epik_Ionization_Penalty>  (96) 
6.07799e-13

>  <r_epik_Ionization_Penalty_Charging>  (96) 
0

>  <r_epik_Ionization_Penalty_Neutral>  (96) 
6.07799e-13

>  <r_epik_State_Penalty>  (96) 
-0

>  <r_epik_Charging_Adjusted_Penalty>  (96) 
0

>  <i_epik_Tot_Q>  (96) 
0

>  <i_epik_Tot_abs_Q>  (96) 
0

>  <s_lp_Force_Field>  (96) 
OPLS3e

>  <r_lp_Energy>  (96) 
37.7728

>  <b_lp_Chiralities_Consistent>  (96) 
1

>  <s_lp_Variant>  (96) 
27:0-1

>  <s_i_glide_gridfile>  (96) 
pfpi4k_grid

>  <i_i_glide_lignum>  (96) 
38

>  <i_i_glide_rotatable_bonds>  (96) 
1

>  <r_i_docking_score>  (96) 
-2.87465

>  <r_i_glide_ligand_efficiency>  (96) 
-0.119777

>  <r_i_glide_ligand_efficiency_sa>  (96) 
-0.345496

>  <r_i_glide_ligand_efficiency_ln>  (96) 
-0.688034

>  <r_i_glide_gscore>  (96) 
-2.87465

>  <r_i_glide_lipo>  (96) 
-0.537107

>  <r_i_glide_hbond>  (96) 
0

>  <r_i_glide_metal>  (96) 
-0

>  <r_i_glide_rewards>  (96) 
-1.53853

>  <r_i_glide_evdw>  (96) 
-14.0634

>  <r_i_glide_ecoul>  (96) 
-0.627369

>  <r_i_glide_erotb>  (96) 
0

>  <r_i_glide_esite>  (96) 
-0.00172915

>  <r_i_glide_emodel>  (96) 
-19.0388

>  <r_i_glide_energy>  (96) 
-14.6908

>  <r_i_glide_einternal>  (96) 
0.0108712

>  <r_i_glide_intrahb_reward>  (96) 
-0

>  <i_i_glide_confnum>  (96) 
1

>  <i_i_glide_posenum>  (96) 
1

>  <r_i_glide_eff_state_penalty>  (96) 
0

>  <ligand_id>  (96) 
27

>  <original_smiles>  (96) 
CC(=O)C1CCC2C3CC=C4CC(=O)CCC4(C)C3C(=O)CC12C

>  <smiles>  (96) 
[H]C1=C2C([H])([H])C(=O)C([H])([H])C([H])([H])C2(C([H])([H])[H])C2([H])C(=O)C([H])([H])C3(C([H])([H])[H])C([H])(C(=O)C([H])([H])[H])C([H])([H])C([H])([H])C3([H])C2([H])C1([H])[H]

$$$$
27:0:1
     RDKit          3D

 52 55  0  0  1  0  0  0  0  0999 V2000
    3.5073   -1.0873   -2.7565 C   0  0  0  0  0  0  0  0  0  0  0  0
    4.5202   -2.1431   -2.3269 C   0  0  0  0  0  0  0  0  0  0  0  0
    4.5768   -3.2246   -2.9118 O   0  0  0  0  0  0  0  0  0  0  0  0
    5.4966   -1.7690   -1.1876 C   0  0  2  0  0  0  0  0  0  0  0  0
    6.7573   -2.6570   -1.1973 C   0  0  0  0  0  0  0  0  0  0  0  0
    6.4071   -3.8454   -0.3063 C   0  0  0  0  0  0  0  0  0  0  0  0
    5.4783   -3.2804    0.7799 C   0  0  2  0  0  0  0  0  0  0  0  0
    4.4042   -4.2533    1.3459 C   0  0  2  0  0  0  0  0  0  0  0  0
    3.5557   -5.0017    0.2833 C   0  0  0  0  0  0  0  0  0  0  0  0
    2.3789   -5.7423    0.8837 C   0  0  0  0  0  0  0  0  0  0  0  0
    1.9328   -5.5814    2.1421 C   0  0  0  0  0  0  0  0  0  0  0  0
    0.9447   -6.5639    2.7461 C   0  0  0  0  0  0  0  0  0  0  0  0
    1.7094   -7.3812    3.7849 C   0  0  0  0  0  0  0  0  0  0  0  0
    1.6358   -8.6061    3.8213 O   0  0  0  0  0  0  0  0  0  0  0  0
    2.5498   -6.5975    4.8017 C   0  0  0  0  0  0  0  0  0  0  0  0
    3.3479   -5.4322    4.1539 C   0  0  0  0  0  0  0  0  0  0  0  0
    2.5411   -4.5756    3.1310 C   0  0  2  0  0  0  0  0  0  0  0  0
    1.4189   -3.8577    3.9371 C   0  0  0  0  0  0  0  0  0  0  0  0
    3.5066   -3.5456    2.4004 C   0  0  2  0  0  0  0  0  0  0  0  0
    2.8711   -2.2687    1.7716 C   0  0  0  0  0  0  0  0  0  0  0  0
    2.0056   -1.6099    2.3406 O   0  0  0  0  0  0  0  0  0  0  0  0
    3.4152   -1.7755    0.4259 C   0  0  0  0  0  0  0  0  0  0  0  0
    4.9519   -1.9038    0.2735 C   0  0  2  0  0  0  0  0  0  0  0  0
    5.6013   -0.7731    1.1136 C   0  0  0  0  0  0  0  0  0  0  0  0
    4.0142   -0.1876   -3.1061 H   0  0  0  0  0  0  0  0  0  0  0  0
    2.8538   -0.8039   -1.9337 H   0  0  0  0  0  0  0  0  0  0  0  0
    2.8768   -1.4741   -3.5563 H   0  0  0  0  0  0  0  0  0  0  0  0
    5.7789   -0.7342   -1.3812 H   0  0  0  0  0  0  0  0  0  0  0  0
    7.0621   -2.9751   -2.1969 H   0  0  0  0  0  0  0  0  0  0  0  0
    7.6026   -2.1165   -0.7694 H   0  0  0  0  0  0  0  0  0  0  0  0
    5.8984   -4.5930   -0.9104 H   0  0  0  0  0  0  0  0  0  0  0  0
    7.2987   -4.3114    0.1158 H   0  0  0  0  0  0  0  0  0  0  0  0
    6.1333   -3.0704    1.6269 H   0  0  0  0  0  0  0  0  0  0  0  0
    4.9733   -5.0266    1.8583 H   0  0  0  0  0  0  0  0  0  0  0  0
    3.1828   -4.3631   -0.5160 H   0  0  0  0  0  0  0  0  0  0  0  0
    4.1751   -5.7588   -0.1996 H   0  0  0  0  0  0  0  0  0  0  0  0
    1.9485   -6.5129    0.2625 H   0  0  0  0  0  0  0  0  0  0  0  0
    0.1128   -6.0537    3.2239 H   0  0  0  0  0  0  0  0  0  0  0  0
    0.5353   -7.2260    1.9842 H   0  0  0  0  0  0  0  0  0  0  0  0
    1.8772   -6.2215    5.5725 H   0  0  0  0  0  0  0  0  0  0  0  0
    3.2346   -7.2818    5.3038 H   0  0  0  0  0  0  0  0  0  0  0  0
    3.7610   -4.7954    4.9389 H   0  0  0  0  0  0  0  0  0  0  0  0
    4.2053   -5.8893    3.6624 H   0  0  0  0  0  0  0  0  0  0  0  0
    1.8265   -3.0374    4.5306 H   0  0  0  0  0  0  0  0  0  0  0  0
    0.8989   -4.5095    4.6362 H   0  0  0  0  0  0  0  0  0  0  0  0
    0.6493   -3.4526    3.2794 H   0  0  0  0  0  0  0  0  0  0  0  0
    4.1604   -3.1467    3.1761 H   0  0  0  0  0  0  0  0  0  0  0  0
    2.8767   -2.3282   -0.3408 H   0  0  0  0  0  0  0  0  0  0  0  0
    3.1165   -0.7351    0.2971 H   0  0  0  0  0  0  0  0  0  0  0  0
    5.3437   -0.8482    2.1710 H   0  0  0  0  0  0  0  0  0  0  0  0
    5.2741    0.2082    0.7692 H   0  0  0  0  0  0  0  0  0  0  0  0
    6.6917   -0.7891    1.0530 H   0  0  0  0  0  0  0  0  0  0  0  0
  1  2  1  0
  1 25  1  0
  1 26  1  0
  1 27  1  0
  2  3  2  0
  2  4  1  0
  4 23  1  0
  4  5  1  0
  4 28  1  6
  5  6  1  0
  5 29  1  0
  5 30  1  0
  6  7  1  0
  6 31  1  0
  6 32  1  0
  7 23  1  0
  7  8  1  0
  7 33  1  1
  8 19  1  0
  8  9  1  0
  8 34  1  1
  9 10  1  0
  9 35  1  0
  9 36  1  0
 10 11  2  0
 10 37  1  0
 11 17  1  0
 11 12  1  0
 12 13  1  0
 12 38  1  0
 12 39  1  0
 13 14  2  0
 13 15  1  0
 15 16  1  0
 15 40  1  0
 15 41  1  0
 16 17  1  0
 16 42  1  0
 16 43  1  0
 17 18  1  1
 17 19  1  0
 18 44  1  0
 18 45  1  0
 18 46  1  0
 19 20  1  0
 19 47  1  1
 20 21  2  0
 20 22  1  0
 22 23  1  0
 22 48  1  0
 22 49  1  0
 23 24  1  1
 24 50  1  0
 24 51  1  0
 24 52  1  0
M  END
>  <i_m_ct_stereo_status>  (97) 
1

>  <s_m_source_file>  (97) 
/var/tmp/pbs.5076255.sched01/tmpbmel7479/053vx75p8.sdf

>  <i_m_source_file_index>  (97) 
38

>  <i_lp_mmshare_version>  (97) 
48012

>  <i_f3d_flags>  (97) 
0

>  <s_epik_input>  (97) 
W0NIM11DKD1PKVtDQEhdKFtDSDJdW0NIMl0xKVtDQEBdKFtDSDNdKShbQ0gyXUMoPU8pW0NASF0yMylbQ0BIXTFbQ0BASF0yW0NIMl1bQ0hdPUMoW0NAXTM0W0NIM10pW0NIMl1DKD1PKVtDSDJdW0NIMl00

>  <s_epik_cmdline>  (97) 
J2VwaWtfcHl0aG9uJywgJy1waHQnLCAnMi4wJywgJy1waCcsICc3LjAnLCAnLXRuJywgJzgnLCAnLW1hJywgJzIwMCcsICctaW1hZScsICc8aW5maWxlLm1hZT4nLCAnLW9tYWUnLCAnPG91dGZpbGUubWFlPic=

>  <r_lp_tautomer_probability>  (97) 
1

>  <r_epik_Ionization_Penalty>  (97) 
6.07799e-13

>  <r_epik_Ionization_Penalty_Charging>  (97) 
0

>  <r_epik_Ionization_Penalty_Neutral>  (97) 
6.07799e-13

>  <r_epik_State_Penalty>  (97) 
-0

>  <r_epik_Charging_Adjusted_Penalty>  (97) 
0

>  <i_epik_Tot_Q>  (97) 
0

>  <i_epik_Tot_abs_Q>  (97) 
0

>  <s_lp_Force_Field>  (97) 
OPLS3e

>  <r_lp_Energy>  (97) 
37.7728

>  <b_lp_Chiralities_Consistent>  (97) 
1

>  <s_lp_Variant>  (97) 
27:0-1

>  <s_i_glide_gridfile>  (97) 
pfpi4k_grid

>  <i_i_glide_lignum>  (97) 
38

>  <i_i_glide_rotatable_bonds>  (97) 
1

>  <r_i_docking_score>  (97) 
-2.75599

>  <r_i_glide_ligand_efficiency>  (97) 
-0.114833

>  <r_i_glide_ligand_efficiency_sa>  (97) 
-0.331236

>  <r_i_glide_ligand_efficiency_ln>  (97) 
-0.659636

>  <r_i_glide_gscore>  (97) 
-2.75599

>  <r_i_glide_lipo>  (97) 
-0.285045

>  <r_i_glide_hbond>  (97) 
0

>  <r_i_glide_metal>  (97) 
-0

>  <r_i_glide_rewards>  (97) 
-1.21212

>  <r_i_glide_evdw>  (97) 
-29.0168

>  <r_i_glide_ecoul>  (97) 
1.44307

>  <r_i_glide_erotb>  (97) 
0

>  <r_i_glide_esite>  (97) 
-0.024447

>  <r_i_glide_emodel>  (97) 
-31.9028

>  <r_i_glide_energy>  (97) 
-27.5738

>  <r_i_glide_einternal>  (97) 
0.110738

>  <r_i_glide_intrahb_reward>  (97) 
-0

>  <i_i_glide_confnum>  (97) 
2

>  <i_i_glide_posenum>  (97) 
35

>  <r_i_glide_eff_state_penalty>  (97) 
0

>  <ligand_id>  (97) 
27

>  <original_smiles>  (97) 
CC(=O)C1CCC2C3CC=C4CC(=O)CCC4(C)C3C(=O)CC12C

>  <smiles>  (97) 
[H]C1=C2C([H])([H])C(=O)C([H])([H])C([H])([H])C2(C([H])([H])[H])C2([H])C(=O)C([H])([H])C3(C([H])([H])[H])C([H])(C(=O)C([H])([H])[H])C([H])([H])C([H])([H])C3([H])C2([H])C1([H])[H]

$$$$
27:0:2
     RDKit          3D

 52 55  0  0  1  0  0  0  0  0999 V2000
    3.9262   -7.5428    4.5044 C   0  0  0  0  0  0  0  0  0  0  0  0
    3.0109   -6.3390    4.3059 C   0  0  0  0  0  0  0  0  0  0  0  0
    1.9622   -6.4400    3.6681 O   0  0  0  0  0  0  0  0  0  0  0  0
    3.4694   -5.0027    4.9302 C   0  0  2  0  0  0  0  0  0  0  0  0
    2.2828   -4.0681    5.2164 C   0  0  0  0  0  0  0  0  0  0  0  0
    2.0986   -3.2505    3.9357 C   0  0  0  0  0  0  0  0  0  0  0  0
    3.5156   -3.0735    3.3692 C   0  0  2  0  0  0  0  0  0  0  0  0
    3.6363   -2.9709    1.8213 C   0  0  2  0  0  0  0  0  0  0  0  0
    2.9080   -4.0861    1.0321 C   0  0  0  0  0  0  0  0  0  0  0  0
    3.2514   -4.0768   -0.4374 C   0  0  0  0  0  0  0  0  0  0  0  0
    4.2676   -3.3895   -0.9919 C   0  0  0  0  0  0  0  0  0  0  0  0
    4.3635   -3.2215   -2.5006 C   0  0  0  0  0  0  0  0  0  0  0  0
    4.0275   -1.7686   -2.8111 C   0  0  0  0  0  0  0  0  0  0  0  0
    3.2783   -1.4620   -3.7369 O   0  0  0  0  0  0  0  0  0  0  0  0
    4.7416   -0.7047   -1.9676 C   0  0  0  0  0  0  0  0  0  0  0  0
    4.8440   -1.0584   -0.4625 C   0  0  0  0  0  0  0  0  0  0  0  0
    5.2467   -2.5343   -0.1758 C   0  0  2  0  0  0  0  0  0  0  0  0
    6.7024   -2.7219   -0.7027 C   0  0  0  0  0  0  0  0  0  0  0  0
    5.1237   -2.8409    1.3802 C   0  0  2  0  0  0  0  0  0  0  0  0
    5.9241   -4.0545    1.9354 C   0  0  0  0  0  0  0  0  0  0  0  0
    7.0714   -4.3094    1.5836 O   0  0  0  0  0  0  0  0  0  0  0  0
    5.2869   -4.9209    3.0295 C   0  0  0  0  0  0  0  0  0  0  0  0
    4.4283   -4.1326    4.0563 C   0  0  2  0  0  0  0  0  0  0  0  0
    5.3856   -3.4128    5.0387 C   0  0  0  0  0  0  0  0  0  0  0  0
    4.0581   -7.7542    5.5649 H   0  0  0  0  0  0  0  0  0  0  0  0
    4.9094   -7.3651    4.0726 H   0  0  0  0  0  0  0  0  0  0  0  0
    3.5011   -8.4242    4.0252 H   0  0  0  0  0  0  0  0  0  0  0  0
    3.9526   -5.2659    5.8731 H   0  0  0  0  0  0  0  0  0  0  0  0
    1.3709   -4.6014    5.4894 H   0  0  0  0  0  0  0  0  0  0  0  0
    2.5279   -3.4080    6.0492 H   0  0  0  0  0  0  0  0  0  0  0  0
    1.4529   -3.8082    3.2573 H   0  0  0  0  0  0  0  0  0  0  0  0
    1.6161   -2.2913    4.1255 H   0  0  0  0  0  0  0  0  0  0  0  0
    3.8476   -2.0987    3.7293 H   0  0  0  0  0  0  0  0  0  0  0  0
    3.1265   -2.0471    1.5543 H   0  0  0  0  0  0  0  0  0  0  0  0
    3.0989   -5.0904    1.4048 H   0  0  0  0  0  0  0  0  0  0  0  0
    1.8302   -3.9239    1.0984 H   0  0  0  0  0  0  0  0  0  0  0  0
    2.5596   -4.5992   -1.0788 H   0  0  0  0  0  0  0  0  0  0  0  0
    5.3568   -3.4651   -2.8734 H   0  0  0  0  0  0  0  0  0  0  0  0
    3.6543   -3.8696   -3.0124 H   0  0  0  0  0  0  0  0  0  0  0  0
    5.7455   -0.5848   -2.3649 H   0  0  0  0  0  0  0  0  0  0  0  0
    4.2283    0.2441   -2.1100 H   0  0  0  0  0  0  0  0  0  0  0  0
    5.5439   -0.3756    0.0237 H   0  0  0  0  0  0  0  0  0  0  0  0
    3.8714   -0.8372   -0.0297 H   0  0  0  0  0  0  0  0  0  0  0  0
    7.4260   -2.2478   -0.0374 H   0  0  0  0  0  0  0  0  0  0  0  0
    6.8697   -2.3090   -1.6952 H   0  0  0  0  0  0  0  0  0  0  0  0
    6.9609   -3.7777   -0.7879 H   0  0  0  0  0  0  0  0  0  0  0  0
    5.5511   -1.9762    1.8861 H   0  0  0  0  0  0  0  0  0  0  0  0
    4.7187   -5.6915    2.5155 H   0  0  0  0  0  0  0  0  0  0  0  0
    6.0846   -5.4452    3.5483 H   0  0  0  0  0  0  0  0  0  0  0  0
    6.0042   -2.6922    4.5155 H   0  0  0  0  0  0  0  0  0  0  0  0
    6.0426   -4.1155    5.5531 H   0  0  0  0  0  0  0  0  0  0  0  0
    4.8469   -2.8534    5.8045 H   0  0  0  0  0  0  0  0  0  0  0  0
  1  2  1  0
  1 25  1  0
  1 26  1  0
  1 27  1  0
  2  3  2  0
  2  4  1  0
  4 23  1  0
  4  5  1  0
  4 28  1  1
  5  6  1  0
  5 29  1  0
  5 30  1  0
  6  7  1  0
  6 31  1  0
  6 32  1  0
  7 23  1  0
  7  8  1  0
  7 33  1  1
  8 19  1  0
  8  9  1  0
  8 34  1  6
  9 10  1  0
  9 35  1  0
  9 36  1  0
 10 11  2  0
 10 37  1  0
 11 17  1  0
 11 12  1  0
 12 13  1  0
 12 38  1  0
 12 39  1  0
 13 14  2  0
 13 15  1  0
 15 16  1  0
 15 40  1  0
 15 41  1  0
 16 17  1  0
 16 42  1  0
 16 43  1  0
 17 18  1  6
 17 19  1  0
 18 44  1  0
 18 45  1  0
 18 46  1  0
 19 20  1  0
 19 47  1  1
 20 21  2  0
 20 22  1  0
 22 23  1  0
 22 48  1  0
 22 49  1  0
 23 24  1  1
 24 50  1  0
 24 51  1  0
 24 52  1  0
M  END
>  <i_m_ct_stereo_status>  (98) 
1

>  <s_m_source_file>  (98) 
/var/tmp/pbs.5076255.sched01/tmpbmel7479/053vx75p8.sdf

>  <i_m_source_file_index>  (98) 
38

>  <i_lp_mmshare_version>  (98) 
48012

>  <i_f3d_flags>  (98) 
0

>  <s_epik_input>  (98) 
W0NIM11DKD1PKVtDQEhdKFtDSDJdW0NIMl0xKVtDQEBdKFtDSDNdKShbQ0gyXUMoPU8pW0NASF0yMylbQ0BIXTFbQ0BASF0yW0NIMl1bQ0hdPUMoW0NAXTM0W0NIM10pW0NIMl1DKD1PKVtDSDJdW0NIMl00

>  <s_epik_cmdline>  (98) 
J2VwaWtfcHl0aG9uJywgJy1waHQnLCAnMi4wJywgJy1waCcsICc3LjAnLCAnLXRuJywgJzgnLCAnLW1hJywgJzIwMCcsICctaW1hZScsICc8aW5maWxlLm1hZT4nLCAnLW9tYWUnLCAnPG91dGZpbGUubWFlPic=

>  <r_lp_tautomer_probability>  (98) 
1

>  <r_epik_Ionization_Penalty>  (98) 
6.07799e-13

>  <r_epik_Ionization_Penalty_Charging>  (98) 
0

>  <r_epik_Ionization_Penalty_Neutral>  (98) 
6.07799e-13

>  <r_epik_State_Penalty>  (98) 
-0

>  <r_epik_Charging_Adjusted_Penalty>  (98) 
0

>  <i_epik_Tot_Q>  (98) 
0

>  <i_epik_Tot_abs_Q>  (98) 
0

>  <s_lp_Force_Field>  (98) 
OPLS3e

>  <r_lp_Energy>  (98) 
37.7728

>  <b_lp_Chiralities_Consistent>  (98) 
1

>  <s_lp_Variant>  (98) 
27:0-1

>  <s_i_glide_gridfile>  (98) 
pfpi4k_grid

>  <i_i_glide_lignum>  (98) 
38

>  <i_i_glide_rotatable_bonds>  (98) 
1

>  <r_i_docking_score>  (98) 
-2.55331

>  <r_i_glide_ligand_efficiency>  (98) 
-0.106388

>  <r_i_glide_ligand_efficiency_sa>  (98) 
-0.306876

>  <r_i_glide_ligand_efficiency_ln>  (98) 
-0.611124

>  <r_i_glide_gscore>  (98) 
-2.55331

>  <r_i_glide_lipo>  (98) 
-0.0798204

>  <r_i_glide_hbond>  (98) 
0

>  <r_i_glide_metal>  (98) 
-0

>  <r_i_glide_rewards>  (98) 
-1.23556

>  <r_i_glide_evdw>  (98) 
-21.6895

>  <r_i_glide_ecoul>  (98) 
-1.02293

>  <r_i_glide_erotb>  (98) 
0

>  <r_i_glide_esite>  (98) 
-1.06892e-05

>  <r_i_glide_emodel>  (98) 
-26.7571

>  <r_i_glide_energy>  (98) 
-22.7125

>  <r_i_glide_einternal>  (98) 
0.0182216

>  <r_i_glide_intrahb_reward>  (98) 
-0

>  <i_i_glide_confnum>  (98) 
1

>  <i_i_glide_posenum>  (98) 
22

>  <r_i_glide_eff_state_penalty>  (98) 
0

>  <ligand_id>  (98) 
27

>  <original_smiles>  (98) 
CC(=O)C1CCC2C3CC=C4CC(=O)CCC4(C)C3C(=O)CC12C

>  <smiles>  (98) 
[H]C1=C2C([H])([H])C(=O)C([H])([H])C([H])([H])C2(C([H])([H])[H])C2([H])C(=O)C([H])([H])C3(C([H])([H])[H])C([H])(C(=O)C([H])([H])[H])C([H])([H])C([H])([H])C3([H])C2([H])C1([H])[H]

$$$$
28:0:0
     RDKit          3D

 58 62  0  0  1  0  0  0  0  0999 V2000
    4.9207   -0.2988    2.1975 C   0  0  0  0  0  0  0  0  0  0  0  0
    4.6979   -1.6691    1.8861 O   0  0  0  0  0  0  0  0  0  0  0  0
    5.6727   -2.2695    1.0347 C   0  0  2  0  0  0  0  0  0  0  0  0
    5.3937   -1.7924   -0.4149 C   0  0  0  0  0  0  0  0  0  0  0  0
    4.0797   -2.4147   -0.7962 C   0  0  2  0  0  0  0  0  0  0  0  0
    4.3829   -3.8850   -1.0578 C   0  0  1  0  0  0  0  0  0  0  0  0
    4.4345   -4.5048    0.3445 C   0  0  2  0  0  0  0  0  0  0  0  0
    3.0749   -4.6829    1.0757 C   0  0  1  0  0  0  0  0  0  0  0  0
    2.2904   -5.8528    0.4877 C   0  0  0  0  0  0  0  0  0  0  0  0
    1.0647   -5.9092    0.5038 O   0  0  0  0  0  0  0  0  0  0  0  0
    3.1431   -4.8325    2.5953 C   0  0  1  0  0  0  0  0  0  0  0  0
    2.5980   -3.7008    3.2931 O   0  0  0  0  0  0  0  0  0  0  0  0
    1.8847   -4.9499    3.4279 C   0  0  2  0  0  0  0  0  0  0  0  0
    1.8624   -5.5052    4.8297 C   0  0  1  0  0  0  0  0  0  0  0  0
    0.8870   -6.5242    4.9158 O   0  0  0  0  0  0  0  0  0  0  0  0
    3.2250   -6.0562    5.2912 C   0  0  0  0  0  0  0  0  0  0  0  0
    4.4205   -5.2550    4.7269 C   0  0  1  0  0  0  0  0  0  0  0  0
    5.6221   -5.7006    5.3299 O   0  0  0  0  0  0  0  0  0  0  0  0
    4.4993   -5.2862    3.1546 C   0  0  1  0  0  0  0  0  0  0  0  0
    4.8781   -6.7332    2.7123 C   0  0  0  0  0  0  0  0  0  0  0  0
    5.5539   -4.2515    2.7055 C   0  0  0  0  0  0  0  0  0  0  0  0
    5.6032   -3.8497    1.1892 C   0  0  2  0  0  0  0  0  0  0  0  0
    6.9500   -4.4039    0.6451 C   0  0  0  0  0  0  0  0  0  0  0  0
    3.5074   -3.0601   -2.0037 C   0  0  0  0  0  0  0  0  0  0  0  0
    2.0308   -3.3754   -2.1140 C   0  0  0  0  0  0  0  0  0  0  0  0
    4.0417   -2.6082   -3.3509 C   0  0  0  0  0  0  0  0  0  0  0  0
    4.1702    0.0413    2.9072 H   0  0  0  0  0  0  0  0  0  0  0  0
    4.8370    0.3404    1.3173 H   0  0  0  0  0  0  0  0  0  0  0  0
    5.9033   -0.1401    2.6510 H   0  0  0  0  0  0  0  0  0  0  0  0
    6.6577   -1.9306    1.3573 H   0  0  0  0  0  0  0  0  0  0  0  0
    5.3163   -0.7100   -0.5027 H   0  0  0  0  0  0  0  0  0  0  0  0
    6.1912   -2.1022   -1.0938 H   0  0  0  0  0  0  0  0  0  0  0  0
    3.2845   -2.1181   -0.1075 H   0  0  0  0  0  0  0  0  0  0  0  0
    5.2886   -4.1625   -1.6041 H   0  0  0  0  0  0  0  0  0  0  0  0
    4.7663   -5.5101    0.1124 H   0  0  0  0  0  0  0  0  0  0  0  0
    2.4655   -3.8027    0.9086 H   0  0  0  0  0  0  0  0  0  0  0  0
    2.9106   -6.6454    0.0820 H   0  0  0  0  0  0  0  0  0  0  0  0
    0.9164   -4.8943    2.9346 H   0  0  0  0  0  0  0  0  0  0  0  0
    1.5564   -4.6904    5.4842 H   0  0  0  0  0  0  0  0  0  0  0  0
    1.1662   -7.2610    4.3955 H   0  0  0  0  0  0  0  0  0  0  0  0
    3.2523   -6.0308    6.3851 H   0  0  0  0  0  0  0  0  0  0  0  0
    3.3230   -7.1105    5.0239 H   0  0  0  0  0  0  0  0  0  0  0  0
    4.2915   -4.2258    5.0560 H   0  0  0  0  0  0  0  0  0  0  0  0
    5.7607   -6.6017    5.1084 H   0  0  0  0  0  0  0  0  0  0  0  0
    5.7934   -7.0691    3.2002 H   0  0  0  0  0  0  0  0  0  0  0  0
    5.0705   -6.8503    1.6525 H   0  0  0  0  0  0  0  0  0  0  0  0
    4.1011   -7.4572    2.9670 H   0  0  0  0  0  0  0  0  0  0  0  0
    5.4203   -3.3583    3.3134 H   0  0  0  0  0  0  0  0  0  0  0  0
    6.5157   -4.6559    3.0147 H   0  0  0  0  0  0  0  0  0  0  0  0
    6.9925   -5.4947    0.6951 H   0  0  0  0  0  0  0  0  0  0  0  0
    7.7986   -4.0287    1.2113 H   0  0  0  0  0  0  0  0  0  0  0  0
    7.1297   -4.1300   -0.3943 H   0  0  0  0  0  0  0  0  0  0  0  0
    1.8490   -4.2324   -2.7586 H   0  0  0  0  0  0  0  0  0  0  0  0
    1.4881   -2.5274   -2.5269 H   0  0  0  0  0  0  0  0  0  0  0  0
    1.6127   -3.5932   -1.1299 H   0  0  0  0  0  0  0  0  0  0  0  0
    3.9176   -3.3917   -4.1004 H   0  0  0  0  0  0  0  0  0  0  0  0
    5.1035   -2.3635   -3.2793 H   0  0  0  0  0  0  0  0  0  0  0  0
    3.5163   -1.7128   -3.6856 H   0  0  0  0  0  0  0  0  0  0  0  0
  1  2  1  0
  1 27  1  0
  1 28  1  0
  1 29  1  0
  2  3  1  0
  3 22  1  0
  3  4  1  0
  3 30  1  1
  4  5  1  0
  4 31  1  0
  4 32  1  0
  5 24  1  0
  5  6  1  0
  5 33  1  1
  6  7  1  0
  6 24  1  0
  6 34  1  6
  7 22  1  0
  7  8  1  0
  7 35  1  6
  8  9  1  0
  8 11  1  0
  8 36  1  1
  9 10  2  0
  9 37  1  0
 11 13  1  0
 11 19  1  0
 11 12  1  1
 12 13  1  0
 13 14  1  0
 13 38  1  6
 14 15  1  0
 14 16  1  0
 14 39  1  1
 15 40  1  0
 16 17  1  0
 16 41  1  0
 16 42  1  0
 17 18  1  0
 17 19  1  0
 17 43  1  6
 18 44  1  0
 19 20  1  1
 19 21  1  0
 20 45  1  0
 20 46  1  0
 20 47  1  0
 21 22  1  0
 21 48  1  0
 21 49  1  0
 22 23  1  6
 23 50  1  0
 23 51  1  0
 23 52  1  0
 24 25  1  0
 24 26  1  0
 25 53  1  0
 25 54  1  0
 25 55  1  0
 26 56  1  0
 26 57  1  0
 26 58  1  0
M  END
>  <i_m_ct_stereo_status>  (99) 
1

>  <s_m_source_file>  (99) 
/var/tmp/pbs.5076255.sched01/tmpbmel7479/053vx75p8.sdf

>  <i_m_source_file_index>  (99) 
39

>  <i_lp_mmshare_version>  (99) 
48012

>  <i_f3d_flags>  (99) 
0

>  <s_epik_input>  (99) 
W0NIM11PW0NAQEhdMVtDSDJdW0NAQEhdKEMyKFtDSDNdKVtDSDNdKVtDQEhdMltDQEhdKFtDQEhdM1tDSF09TylbQ0BdMShbQ0gzXSlbQ0gyXVtDQEBdNChbQ0gzXSlbQ0BIXShbT0hdKVtDSDJdW0NAQEhdKFtDQEhdKFtDQF0zNDUpTzUpW09IXQ==

>  <s_epik_cmdline>  (99) 
J2VwaWtfcHl0aG9uJywgJy1waHQnLCAnMi4wJywgJy1waCcsICc3LjAnLCAnLXRuJywgJzgnLCAnLW1hJywgJzIwMCcsICctaW1hZScsICc8aW5maWxlLm1hZT4nLCAnLW9tYWUnLCAnPG91dGZpbGUubWFlPic=

>  <r_lp_tautomer_probability>  (99) 
1

>  <r_epik_Ionization_Penalty>  (99) 
1.12266e-07

>  <r_epik_Ionization_Penalty_Charging>  (99) 
0

>  <r_epik_Ionization_Penalty_Neutral>  (99) 
1.12266e-07

>  <r_epik_State_Penalty>  (99) 
-0

>  <r_epik_Charging_Adjusted_Penalty>  (99) 
0

>  <i_epik_Tot_Q>  (99) 
0

>  <i_epik_Tot_abs_Q>  (99) 
0

>  <s_lp_Force_Field>  (99) 
OPLS3e

>  <r_lp_Energy>  (99) 
77.9859

>  <b_lp_Chiralities_Consistent>  (99) 
1

>  <s_lp_Variant>  (99) 
28:0-1

>  <s_i_glide_gridfile>  (99) 
pfpi4k_grid

>  <i_i_glide_lignum>  (99) 
39

>  <i_i_glide_rotatable_bonds>  (99) 
4

>  <r_i_docking_score>  (99) 
-3.43625

>  <r_i_glide_ligand_efficiency>  (99) 
-0.132163

>  <r_i_glide_ligand_efficiency_sa>  (99) 
-0.391534

>  <r_i_glide_ligand_efficiency_ln>  (99) 
-0.806992

>  <r_i_glide_gscore>  (99) 
-3.43625

>  <r_i_glide_lipo>  (99) 
-0.823156

>  <r_i_glide_hbond>  (99) 
-0.16

>  <r_i_glide_metal>  (99) 
-0

>  <r_i_glide_rewards>  (99) 
-0.924029

>  <r_i_glide_evdw>  (99) 
-18.2292

>  <r_i_glide_ecoul>  (99) 
-3.8325

>  <r_i_glide_erotb>  (99) 
0

>  <r_i_glide_esite>  (99) 
-0.0427268

>  <r_i_glide_emodel>  (99) 
-26.1356

>  <r_i_glide_energy>  (99) 
-22.0617

>  <r_i_glide_einternal>  (99) 
1.14213

>  <r_i_glide_intrahb_reward>  (99) 
-0

>  <i_i_glide_confnum>  (99) 
2

>  <i_i_glide_posenum>  (99) 
1

>  <r_i_glide_eff_state_penalty>  (99) 
0

>  <ligand_id>  (99) 
28

>  <original_smiles>  (99) 
COC1CC2C(C3C(C=O)C45OC4C(O)CC(O)C5(C)CC13C)C2(C)C

>  <smiles>  (99) 
[H]OC1([H])C([H])([H])C([H])(O[H])C2(C([H])([H])[H])C([H])([H])C3(C([H])([H])[H])C([H])(OC([H])([H])[H])C([H])([H])C4([H])C([H])(C3([H])C([H])(C([H])=O)C23OC13[H])C4(C([H])([H])[H])C([H])([H])[H]

$$$$
28:0:1
     RDKit          3D

 58 62  0  0  1  0  0  0  0  0999 V2000
    5.0951   -0.3883    2.3003 C   0  0  0  0  0  0  0  0  0  0  0  0
    4.8293   -1.7441    1.9639 O   0  0  0  0  0  0  0  0  0  0  0  0
    5.7973   -2.3652    1.1223 C   0  0  2  0  0  0  0  0  0  0  0  0
    5.5529   -1.8673   -0.3300 C   0  0  0  0  0  0  0  0  0  0  0  0
    4.2232   -2.4489   -0.7289 C   0  0  2  0  0  0  0  0  0  0  0  0
    4.4977   -3.9298   -1.0099 C   0  0  1  0  0  0  0  0  0  0  0  0
    4.5006   -4.5573    0.3945 C   0  0  2  0  0  0  0  0  0  0  0  0
    3.1246   -4.7108    1.1083 C   0  0  1  0  0  0  0  0  0  0  0  0
    2.3132   -5.8587    0.5010 C   0  0  0  0  0  0  0  0  0  0  0  0
    1.0811   -5.8633    0.5096 O   0  0  0  0  0  0  0  0  0  0  0  0
    3.1797   -4.8630    2.6300 C   0  0  1  0  0  0  0  0  0  0  0  0
    2.6528   -3.7360    3.3185 O   0  0  0  0  0  0  0  0  0  0  0  0
    1.8987   -4.9395    3.4379 C   0  0  2  0  0  0  0  0  0  0  0  0
    1.8440   -5.5161    4.8362 C   0  0  1  0  0  0  0  0  0  0  0  0
    0.8306   -6.5039    4.8742 O   0  0  0  0  0  0  0  0  0  0  0  0
    3.1850   -6.1163    5.3079 C   0  0  0  0  0  0  0  0  0  0  0  0
    4.4045   -5.3463    4.7682 C   0  0  1  0  0  0  0  0  0  0  0  0
    5.5819   -5.8271    5.3901 O   0  0  0  0  0  0  0  0  0  0  0  0
    4.5099   -5.3652    3.1990 C   0  0  1  0  0  0  0  0  0  0  0  0
    4.8506   -6.8173    2.7482 C   0  0  0  0  0  0  0  0  0  0  0  0
    5.6000   -4.3493    2.7761 C   0  0  0  0  0  0  0  0  0  0  0  0
    5.6846   -3.9397    1.2609 C   0  0  2  0  0  0  0  0  0  0  0  0
    7.0188   -4.5307    0.7298 C   0  0  0  0  0  0  0  0  0  0  0  0
    3.6608   -3.0666   -1.9523 C   0  0  0  0  0  0  0  0  0  0  0  0
    2.1739   -3.3283   -2.0899 C   0  0  0  0  0  0  0  0  0  0  0  0
    4.2251   -2.6193   -3.2895 C   0  0  0  0  0  0  0  0  0  0  0  0
    4.3397   -0.0318    3.0007 H   0  0  0  0  0  0  0  0  0  0  0  0
    5.0492    0.2606    1.4273 H   0  0  0  0  0  0  0  0  0  0  0  0
    6.0715   -0.2712    2.7740 H   0  0  0  0  0  0  0  0  0  0  0  0
    6.7877   -2.0575    1.4593 H   0  0  0  0  0  0  0  0  0  0  0  0
    5.5066   -0.7814   -0.4030 H   0  0  0  0  0  0  0  0  0  0  0  0
    6.3540   -2.1912   -0.9971 H   0  0  0  0  0  0  0  0  0  0  0  0
    3.4318   -2.1354   -0.0508 H   0  0  0  0  0  0  0  0  0  0  0  0
    5.4009   -4.2260   -1.5386 H   0  0  0  0  0  0  0  0  0  0  0  0
    4.8127   -5.5746    0.1581 H   0  0  0  0  0  0  0  0  0  0  0  0
    2.5502   -3.8094    0.9355 H   0  0  0  0  0  0  0  0  0  0  0  0
    2.9196   -6.6569    0.0751 H   0  0  0  0  0  0  0  0  0  0  0  0
    0.9395   -4.8632    2.9366 H   0  0  0  0  0  0  0  0  0  0  0  0
    1.5534   -4.6998    5.4995 H   0  0  0  0  0  0  0  0  0  0  0  0
    0.8894   -6.9767    5.6947 H   0  0  0  0  0  0  0  0  0  0  0  0
    3.1961   -6.1019    6.4001 H   0  0  0  0  0  0  0  0  0  0  0  0
    3.2472   -7.1666    5.0244 H   0  0  0  0  0  0  0  0  0  0  0  0
    4.3020   -4.3125    5.1016 H   0  0  0  0  0  0  0  0  0  0  0  0
    5.6819   -6.7443    5.1770 H   0  0  0  0  0  0  0  0  0  0  0  0
    5.7495   -7.1829    3.2466 H   0  0  0  0  0  0  0  0  0  0  0  0
    5.0534   -6.9313    1.6886 H   0  0  0  0  0  0  0  0  0  0  0  0
    4.0480   -7.5159    2.9828 H   0  0  0  0  0  0  0  0  0  0  0  0
    5.4653   -3.4533    3.3856 H   0  0  0  0  0  0  0  0  0  0  0  0
    6.5604   -4.7357    3.1090 H   0  0  0  0  0  0  0  0  0  0  0  0
    7.0304   -5.6207    0.7730 H   0  0  0  0  0  0  0  0  0  0  0  0
    7.8706   -4.1832    1.3121 H   0  0  0  0  0  0  0  0  0  0  0  0
    7.2217   -4.2522   -0.3004 H   0  0  0  0  0  0  0  0  0  0  0  0
    1.9809   -4.1661   -2.7609 H   0  0  0  0  0  0  0  0  0  0  0  0
    1.6707   -2.4525   -2.4991 H   0  0  0  0  0  0  0  0  0  0  0  0
    1.7377   -3.5531   -1.1199 H   0  0  0  0  0  0  0  0  0  0  0  0
    4.0886   -3.3943   -4.0451 H   0  0  0  0  0  0  0  0  0  0  0  0
    5.2912   -2.4071   -3.1997 H   0  0  0  0  0  0  0  0  0  0  0  0
    3.7270   -1.7070   -3.6251 H   0  0  0  0  0  0  0  0  0  0  0  0
  1  2  1  0
  1 27  1  0
  1 28  1  0
  1 29  1  0
  2  3  1  0
  3 22  1  0
  3  4  1  0
  3 30  1  1
  4  5  1  0
  4 31  1  0
  4 32  1  0
  5 24  1  0
  5  6  1  0
  5 33  1  1
  6  7  1  0
  6 24  1  0
  6 34  1  6
  7 22  1  0
  7  8  1  0
  7 35  1  6
  8  9  1  0
  8 11  1  0
  8 36  1  1
  9 10  2  0
  9 37  1  0
 11 13  1  0
 11 19  1  0
 11 12  1  1
 12 13  1  0
 13 14  1  0
 13 38  1  6
 14 15  1  0
 14 16  1  0
 14 39  1  1
 15 40  1  0
 16 17  1  0
 16 41  1  0
 16 42  1  0
 17 18  1  0
 17 19  1  0
 17 43  1  1
 18 44  1  0
 19 20  1  6
 19 21  1  0
 20 45  1  0
 20 46  1  0
 20 47  1  0
 21 22  1  0
 21 48  1  0
 21 49  1  0
 22 23  1  6
 23 50  1  0
 23 51  1  0
 23 52  1  0
 24 25  1  0
 24 26  1  0
 25 53  1  0
 25 54  1  0
 25 55  1  0
 26 56  1  0
 26 57  1  0
 26 58  1  0
M  END
>  <i_m_ct_stereo_status>  (100) 
1

>  <s_m_source_file>  (100) 
/var/tmp/pbs.5076255.sched01/tmpbmel7479/053vx75p8.sdf

>  <i_m_source_file_index>  (100) 
39

>  <i_lp_mmshare_version>  (100) 
48012

>  <i_f3d_flags>  (100) 
0

>  <s_epik_input>  (100) 
W0NIM11PW0NAQEhdMVtDSDJdW0NAQEhdKEMyKFtDSDNdKVtDSDNdKVtDQEhdMltDQEhdKFtDQEhdM1tDSF09TylbQ0BdMShbQ0gzXSlbQ0gyXVtDQEBdNChbQ0gzXSlbQ0BIXShbT0hdKVtDSDJdW0NAQEhdKFtDQEhdKFtDQF0zNDUpTzUpW09IXQ==

>  <s_epik_cmdline>  (100) 
J2VwaWtfcHl0aG9uJywgJy1waHQnLCAnMi4wJywgJy1waCcsICc3LjAnLCAnLXRuJywgJzgnLCAnLW1hJywgJzIwMCcsICctaW1hZScsICc8aW5maWxlLm1hZT4nLCAnLW9tYWUnLCAnPG91dGZpbGUubWFlPic=

>  <r_lp_tautomer_probability>  (100) 
1

>  <r_epik_Ionization_Penalty>  (100) 
1.12266e-07

>  <r_epik_Ionization_Penalty_Charging>  (100) 
0

>  <r_epik_Ionization_Penalty_Neutral>  (100) 
1.12266e-07

>  <r_epik_State_Penalty>  (100) 
-0

>  <r_epik_Charging_Adjusted_Penalty>  (100) 
0

>  <i_epik_Tot_Q>  (100) 
0

>  <i_epik_Tot_abs_Q>  (100) 
0

>  <s_lp_Force_Field>  (100) 
OPLS3e

>  <r_lp_Energy>  (100) 
77.9859

>  <b_lp_Chiralities_Consistent>  (100) 
1

>  <s_lp_Variant>  (100) 
28:0-1

>  <s_i_glide_gridfile>  (100) 
pfpi4k_grid

>  <i_i_glide_lignum>  (100) 
39

>  <i_i_glide_rotatable_bonds>  (100) 
4

>  <r_i_docking_score>  (100) 
-3.40434

>  <r_i_glide_ligand_efficiency>  (100) 
-0.130936

>  <r_i_glide_ligand_efficiency_sa>  (100) 
-0.387898

>  <r_i_glide_ligand_efficiency_ln>  (100) 
-0.799498

>  <r_i_glide_gscore>  (100) 
-3.40434

>  <r_i_glide_lipo>  (100) 
-0.843653

>  <r_i_glide_hbond>  (100) 
-0.16

>  <r_i_glide_metal>  (100) 
-0

>  <r_i_glide_rewards>  (100) 
-0.924029

>  <r_i_glide_evdw>  (100) 
-17.6974

>  <r_i_glide_ecoul>  (100) 
-3.66765

>  <r_i_glide_erotb>  (100) 
0

>  <r_i_glide_esite>  (100) 
-0.041642

>  <r_i_glide_emodel>  (100) 
-25.1902

>  <r_i_glide_energy>  (100) 
-21.365

>  <r_i_glide_einternal>  (100) 
1.55144

>  <r_i_glide_intrahb_reward>  (100) 
-0

>  <i_i_glide_confnum>  (100) 
1

>  <i_i_glide_posenum>  (100) 
9

>  <r_i_glide_eff_state_penalty>  (100) 
0

>  <ligand_id>  (100) 
28

>  <original_smiles>  (100) 
COC1CC2C(C3C(C=O)C45OC4C(O)CC(O)C5(C)CC13C)C2(C)C

>  <smiles>  (100) 
[H]OC1([H])C([H])([H])C([H])(O[H])C2(C([H])([H])[H])C([H])([H])C3(C([H])([H])[H])C([H])(OC([H])([H])[H])C([H])([H])C4([H])C([H])(C3([H])C([H])(C([H])=O)C23OC13[H])C4(C([H])([H])[H])C([H])([H])[H]

$$$$
28:0:2
     RDKit          3D

 58 62  0  0  1  0  0  0  0  0999 V2000
    0.9967   -0.8763    2.9814 C   0  0  0  0  0  0  0  0  0  0  0  0
    2.0050   -1.7586    2.5073 O   0  0  0  0  0  0  0  0  0  0  0  0
    3.2711   -1.1508    2.2661 C   0  0  2  0  0  0  0  0  0  0  0  0
    3.2096   -0.4854    0.8716 C   0  0  0  0  0  0  0  0  0  0  0  0
    3.1310   -1.6309   -0.1027 C   0  0  2  0  0  0  0  0  0  0  0  0
    4.5343   -2.2219   -0.1828 C   0  0  1  0  0  0  0  0  0  0  0  0
    4.5766   -3.1223    1.0634 C   0  0  2  0  0  0  0  0  0  0  0  0
    3.7688   -4.4525    1.0107 C   0  0  1  0  0  0  0  0  0  0  0  0
    4.4451   -5.4799    0.0844 C   0  0  0  0  0  0  0  0  0  0  0  0
    4.7638   -6.6070    0.4659 O   0  0  0  0  0  0  0  0  0  0  0  0
    3.4085   -5.0603    2.3724 C   0  0  1  0  0  0  0  0  0  0  0  0
    2.0113   -4.9855    2.6667 O   0  0  0  0  0  0  0  0  0  0  0  0
    2.5392   -6.3008    2.4533 C   0  0  2  0  0  0  0  0  0  0  0  0
    2.5157   -7.2114    3.6667 C   0  0  1  0  0  0  0  0  0  0  0  0
    2.7563   -8.5389    3.2397 O   0  0  0  0  0  0  0  0  0  0  0  0
    3.5386   -6.8167    4.7534 C   0  0  0  0  0  0  0  0  0  0  0  0
    3.7379   -5.2881    4.8571 C   0  0  1  0  0  0  0  0  0  0  0  0
    4.5359   -4.9940    5.9912 O   0  0  0  0  0  0  0  0  0  0  0  0
    4.3085   -4.6422    3.5421 C   0  0  1  0  0  0  0  0  0  0  0  0
    5.7806   -5.1245    3.3619 C   0  0  0  0  0  0  0  0  0  0  0  0
    4.2130   -3.0975    3.6745 C   0  0  0  0  0  0  0  0  0  0  0  0
    4.4139   -2.2371    2.3761 C   0  0  2  0  0  0  0  0  0  0  0  0
    5.7364   -1.4527    2.5661 C   0  0  0  0  0  0  0  0  0  0  0  0
    3.7025   -1.9248   -1.4361 C   0  0  0  0  0  0  0  0  0  0  0  0
    3.1767   -3.0685   -2.2786 C   0  0  0  0  0  0  0  0  0  0  0  0
    4.0709   -0.7651   -2.3457 C   0  0  0  0  0  0  0  0  0  0  0  0
    0.1041   -1.4534    3.2245 H   0  0  0  0  0  0  0  0  0  0  0  0
    0.7211   -0.1290    2.2357 H   0  0  0  0  0  0  0  0  0  0  0  0
    1.3081   -0.3656    3.8942 H   0  0  0  0  0  0  0  0  0  0  0  0
    3.4366   -0.3922    3.0326 H   0  0  0  0  0  0  0  0  0  0  0  0
    2.3330    0.1493    0.7591 H   0  0  0  0  0  0  0  0  0  0  0  0
    4.0795    0.1440    0.6869 H   0  0  0  0  0  0  0  0  0  0  0  0
    2.2699   -2.2641    0.1071 H   0  0  0  0  0  0  0  0  0  0  0  0
    5.4030   -1.5632   -0.1874 H   0  0  0  0  0  0  0  0  0  0  0  0
    5.6172   -3.4408    1.0466 H   0  0  0  0  0  0  0  0  0  0  0  0
    2.8087   -4.2421    0.5508 H   0  0  0  0  0  0  0  0  0  0  0  0
    4.6047   -5.1454   -0.9348 H   0  0  0  0  0  0  0  0  0  0  0  0
    2.1675   -6.7436    1.5335 H   0  0  0  0  0  0  0  0  0  0  0  0
    1.5068   -7.1662    4.0758 H   0  0  0  0  0  0  0  0  0  0  0  0
    2.6168   -9.1369    3.9595 H   0  0  0  0  0  0  0  0  0  0  0  0
    3.1890   -7.2098    5.7109 H   0  0  0  0  0  0  0  0  0  0  0  0
    4.4946   -7.3066    4.5618 H   0  0  0  0  0  0  0  0  0  0  0  0
    2.7577   -4.8570    5.0653 H   0  0  0  0  0  0  0  0  0  0  0  0
    5.3718   -5.4179    5.8805 H   0  0  0  0  0  0  0  0  0  0  0  0
    6.3780   -4.9159    4.2509 H   0  0  0  0  0  0  0  0  0  0  0  0
    6.3128   -4.6606    2.5412 H   0  0  0  0  0  0  0  0  0  0  0  0
    5.8361   -6.2010    3.1840 H   0  0  0  0  0  0  0  0  0  0  0  0
    3.2352   -2.8821    4.1076 H   0  0  0  0  0  0  0  0  0  0  0  0
    4.8962   -2.7774    4.4619 H   0  0  0  0  0  0  0  0  0  0  0  0
    6.5824   -2.1312    2.5834 H   0  0  0  0  0  0  0  0  0  0  0  0
    5.7401   -0.8788    3.4910 H   0  0  0  0  0  0  0  0  0  0  0  0
    5.9372   -0.7452    1.7693 H   0  0  0  0  0  0  0  0  0  0  0  0
    3.9754   -3.4691   -2.9061 H   0  0  0  0  0  0  0  0  0  0  0  0
    2.3538   -2.7404   -2.9162 H   0  0  0  0  0  0  0  0  0  0  0  0
    2.8018   -3.8629   -1.6363 H   0  0  0  0  0  0  0  0  0  0  0  0
    4.8452   -1.0576   -3.0524 H   0  0  0  0  0  0  0  0  0  0  0  0
    4.4400    0.0780   -1.7616 H   0  0  0  0  0  0  0  0  0  0  0  0
    3.1944   -0.4300   -2.9048 H   0  0  0  0  0  0  0  0  0  0  0  0
  1  2  1  0
  1 27  1  0
  1 28  1  0
  1 29  1  0
  2  3  1  0
  3 22  1  0
  3  4  1  0
  3 30  1  1
  4  5  1  0
  4 31  1  0
  4 32  1  0
  5 24  1  0
  5  6  1  0
  5 33  1  1
  6  7  1  0
  6 24  1  0
  6 34  1  6
  7 22  1  0
  7  8  1  0
  7 35  1  1
  8  9  1  0
  8 11  1  0
  8 36  1  6
  9 10  2  0
  9 37  1  0
 11 13  1  0
 11 19  1  0
 11 12  1  1
 12 13  1  0
 13 14  1  0
 13 38  1  6
 14 15  1  0
 14 16  1  0
 14 39  1  1
 15 40  1  0
 16 17  1  0
 16 41  1  0
 16 42  1  0
 17 18  1  0
 17 19  1  0
 17 43  1  1
 18 44  1  0
 19 20  1  6
 19 21  1  0
 20 45  1  0
 20 46  1  0
 20 47  1  0
 21 22  1  0
 21 48  1  0
 21 49  1  0
 22 23  1  1
 23 50  1  0
 23 51  1  0
 23 52  1  0
 24 25  1  0
 24 26  1  0
 25 53  1  0
 25 54  1  0
 25 55  1  0
 26 56  1  0
 26 57  1  0
 26 58  1  0
M  END
>  <i_m_ct_stereo_status>  (101) 
1

>  <s_m_source_file>  (101) 
/var/tmp/pbs.5076255.sched01/tmpbmel7479/053vx75p8.sdf

>  <i_m_source_file_index>  (101) 
39

>  <i_lp_mmshare_version>  (101) 
48012

>  <i_f3d_flags>  (101) 
0

>  <s_epik_input>  (101) 
W0NIM11PW0NAQEhdMVtDSDJdW0NAQEhdKEMyKFtDSDNdKVtDSDNdKVtDQEhdMltDQEhdKFtDQEhdM1tDSF09TylbQ0BdMShbQ0gzXSlbQ0gyXVtDQEBdNChbQ0gzXSlbQ0BIXShbT0hdKVtDSDJdW0NAQEhdKFtDQEhdKFtDQF0zNDUpTzUpW09IXQ==

>  <s_epik_cmdline>  (101) 
J2VwaWtfcHl0aG9uJywgJy1waHQnLCAnMi4wJywgJy1waCcsICc3LjAnLCAnLXRuJywgJzgnLCAnLW1hJywgJzIwMCcsICctaW1hZScsICc8aW5maWxlLm1hZT4nLCAnLW9tYWUnLCAnPG91dGZpbGUubWFlPic=

>  <r_lp_tautomer_probability>  (101) 
1

>  <r_epik_Ionization_Penalty>  (101) 
1.12266e-07

>  <r_epik_Ionization_Penalty_Charging>  (101) 
0

>  <r_epik_Ionization_Penalty_Neutral>  (101) 
1.12266e-07

>  <r_epik_State_Penalty>  (101) 
-0

>  <r_epik_Charging_Adjusted_Penalty>  (101) 
0

>  <i_epik_Tot_Q>  (101) 
0

>  <i_epik_Tot_abs_Q>  (101) 
0

>  <s_lp_Force_Field>  (101) 
OPLS3e

>  <r_lp_Energy>  (101) 
77.9859

>  <b_lp_Chiralities_Consistent>  (101) 
1

>  <s_lp_Variant>  (101) 
28:0-1

>  <s_i_glide_gridfile>  (101) 
pfpi4k_grid

>  <i_i_glide_lignum>  (101) 
39

>  <i_i_glide_rotatable_bonds>  (101) 
4

>  <r_i_docking_score>  (101) 
-2.07471

>  <r_i_glide_ligand_efficiency>  (101) 
-0.0797964

>  <r_i_glide_ligand_efficiency_sa>  (101) 
-0.236396

>  <r_i_glide_ligand_efficiency_ln>  (101) 
-0.487238

>  <r_i_glide_gscore>  (101) 
-2.07471

>  <r_i_glide_lipo>  (101) 
-0.181079

>  <r_i_glide_hbond>  (101) 
0

>  <r_i_glide_metal>  (101) 
-0

>  <r_i_glide_rewards>  (101) 
-0.927357

>  <r_i_glide_evdw>  (101) 
-17.86

>  <r_i_glide_ecoul>  (101) 
-0.488474

>  <r_i_glide_erotb>  (101) 
0

>  <r_i_glide_esite>  (101) 
0

>  <r_i_glide_emodel>  (101) 
-20.4685

>  <r_i_glide_energy>  (101) 
-18.3484

>  <r_i_glide_einternal>  (101) 
1.06278

>  <r_i_glide_intrahb_reward>  (101) 
-0

>  <i_i_glide_confnum>  (101) 
1

>  <i_i_glide_posenum>  (101) 
32

>  <r_i_glide_eff_state_penalty>  (101) 
0

>  <ligand_id>  (101) 
28

>  <original_smiles>  (101) 
COC1CC2C(C3C(C=O)C45OC4C(O)CC(O)C5(C)CC13C)C2(C)C

>  <smiles>  (101) 
[H]OC1([H])C([H])([H])C([H])(O[H])C2(C([H])([H])[H])C([H])([H])C3(C([H])([H])[H])C([H])(OC([H])([H])[H])C([H])([H])C4([H])C([H])(C3([H])C([H])(C([H])=O)C23OC13[H])C4(C([H])([H])[H])C([H])([H])[H]

$$$$
29:0:0
     RDKit          3D

 24 26  0  0  1  0  0  0  0  0999 V2000
    5.2045   -0.9536   -1.5734 C   0  0  0  0  0  0  0  0  0  0  0  0
    5.4119   -2.2510   -0.8329 C   0  0  0  0  0  0  0  0  0  0  0  0
    6.7081   -2.6900   -0.4908 C   0  0  0  0  0  0  0  0  0  0  0  0
    6.8421   -3.9022    0.2081 C   0  0  0  0  0  0  0  0  0  0  0  0
    5.7976   -4.6829    0.5505 N   0  0  0  0  0  0  0  0  0  0  0  0
    4.5630   -4.2752    0.1997 C   0  0  0  0  0  0  0  0  0  0  0  0
    4.3179   -3.0581   -0.4786 C   0  0  0  0  0  0  0  0  0  0  0  0
    2.8840   -2.6520   -0.7971 C   0  0  0  0  0  0  0  0  0  0  0  0
    1.9857   -3.8639   -1.0656 C   0  0  0  0  0  0  0  0  0  0  0  0
    2.2348   -4.9373   -0.0540 C   0  0  0  0  0  0  0  0  0  0  0  0
    1.3696   -5.8569    0.3887 N   0  0  0  0  0  0  0  0  0  0  0  0
    2.0842   -6.6478    1.2866 N   0  0  0  0  0  0  0  0  0  0  0  0
    3.3290   -6.1439    1.2856 C   0  0  0  0  0  0  0  0  0  0  0  0
    3.4471   -5.0908    0.4759 N   0  0  0  0  0  0  0  0  0  0  0  0
    6.1620   -0.4677   -1.6604 H   0  0  0  0  0  0  0  0  0  0  0  0
    4.5370   -0.2820   -1.0330 H   0  0  0  0  0  0  0  0  0  0  0  0
    4.8257   -1.1172   -2.5823 H   0  0  0  0  0  0  0  0  0  0  0  0
    7.5950   -2.1332   -0.7461 H   0  0  0  0  0  0  0  0  0  0  0  0
    7.8210   -4.2662    0.4877 H   0  0  0  0  0  0  0  0  0  0  0  0
    2.5156   -2.1425    0.0928 H   0  0  0  0  0  0  0  0  0  0  0  0
    2.8048   -1.9452   -1.6246 H   0  0  0  0  0  0  0  0  0  0  0  0
    0.9359   -3.5877   -1.1296 H   0  0  0  0  0  0  0  0  0  0  0  0
    2.2201   -4.2534   -2.0511 H   0  0  0  0  0  0  0  0  0  0  0  0
    4.1435   -6.5338    1.8792 H   0  0  0  0  0  0  0  0  0  0  0  0
  1  2  1  0
  1 15  1  0
  1 16  1  0
  1 17  1  0
  2  7  2  0
  2  3  1  0
  3  4  2  0
  3 18  1  0
  4  5  1  0
  4 19  1  0
  5  6  2  0
  6 14  1  0
  6  7  1  0
  7  8  1  0
  8  9  1  0
  8 20  1  0
  8 21  1  0
  9 10  1  0
  9 22  1  0
  9 23  1  0
 10 14  1  0
 10 11  2  0
 11 12  1  0
 12 13  2  0
 13 14  1  0
 13 24  1  0
M  END
>  <i_m_ct_stereo_status>  (102) 
1

>  <s_m_source_file>  (102) 
/var/tmp/pbs.5076255.sched01/tmpmqqk35eb/391x3533zq.sdf

>  <i_m_source_file_index>  (102) 
1

>  <i_lp_mmshare_version>  (102) 
48012

>  <i_f3d_flags>  (102) 
0

>  <s_epik_input>  (102) 
bjFbY0hdW2NIXWMoW0NIM10pYyhjMTIpW0NIMl1bQ0gyXWMzbjJbY0hdbm4z

>  <s_epik_cmdline>  (102) 
J2VwaWtfcHl0aG9uJywgJy1waHQnLCAnMi4wJywgJy1waCcsICc3LjAnLCAnLXRuJywgJzgnLCAnLW1hJywgJzIwMCcsICctaW1hZScsICc8aW5maWxlLm1hZT4nLCAnLW9tYWUnLCAnPG91dGZpbGUubWFlPic=

>  <r_lp_tautomer_probability>  (102) 
1

>  <r_epik_Ionization_Penalty>  (102) 
2.74318e-06

>  <r_epik_Ionization_Penalty_Charging>  (102) 
0

>  <r_epik_Ionization_Penalty_Neutral>  (102) 
2.74318e-06

>  <r_epik_State_Penalty>  (102) 
-0

>  <r_epik_Charging_Adjusted_Penalty>  (102) 
0

>  <i_epik_Tot_Q>  (102) 
0

>  <i_epik_Tot_abs_Q>  (102) 
0

>  <s_lp_Force_Field>  (102) 
OPLS3e

>  <r_lp_Energy>  (102) 
17.9503

>  <b_lp_Chiralities_Consistent>  (102) 
1

>  <s_lp_Variant>  (102) 
29:0-1

>  <s_i_glide_gridfile>  (102) 
pfpi4k_grid

>  <i_i_glide_lignum>  (102) 
1

>  <i_i_glide_rotatable_bonds>  (102) 
0

>  <r_i_docking_score>  (102) 
-3.79806

>  <r_i_glide_ligand_efficiency>  (102) 
-0.27129

>  <r_i_glide_ligand_efficiency_sa>  (102) 
-0.653848

>  <r_i_glide_ligand_efficiency_ln>  (102) 
-1.04369

>  <r_i_glide_gscore>  (102) 
-3.79806

>  <r_i_glide_lipo>  (102) 
-0.132095

>  <r_i_glide_hbond>  (102) 
0

>  <r_i_glide_metal>  (102) 
-0

>  <r_i_glide_rewards>  (102) 
-2.23132

>  <r_i_glide_evdw>  (102) 
-12.6564

>  <r_i_glide_ecoul>  (102) 
-3.96877

>  <r_i_glide_erotb>  (102) 
0

>  <r_i_glide_esite>  (102) 
-0.206515

>  <r_i_glide_emodel>  (102) 
-20.5072

>  <r_i_glide_energy>  (102) 
-16.6251

>  <r_i_glide_einternal>  (102) 
0

>  <r_i_glide_intrahb_reward>  (102) 
-0

>  <i_i_glide_confnum>  (102) 
1

>  <i_i_glide_posenum>  (102) 
2

>  <r_i_glide_eff_state_penalty>  (102) 
0

>  <ligand_id>  (102) 
29

>  <original_smiles>  (102) 
Cc1ccnc2c1CCc1nncn1-2

>  <smiles>  (102) 
[H]c1nc2c(c(C([H])([H])[H])c1[H])C([H])([H])C([H])([H])c1nnc([H])n1-2

$$$$
29:0:1
     RDKit          3D

 24 26  0  0  1  0  0  0  0  0999 V2000
    3.9749   -1.0646   -3.9857 C   0  0  0  0  0  0  0  0  0  0  0  0
    3.4748   -1.9072   -2.8371 C   0  0  0  0  0  0  0  0  0  0  0  0
    2.3307   -2.7035   -3.0109 C   0  0  0  0  0  0  0  0  0  0  0  0
    1.8715   -3.4560   -1.9185 C   0  0  0  0  0  0  0  0  0  0  0  0
    2.4672   -3.4731   -0.7090 N   0  0  0  0  0  0  0  0  0  0  0  0
    3.5507   -2.6972   -0.5366 C   0  0  0  0  0  0  0  0  0  0  0  0
    4.1109   -1.9111   -1.5721 C   0  0  0  0  0  0  0  0  0  0  0  0
    5.3649   -1.0940   -1.2797 C   0  0  0  0  0  0  0  0  0  0  0  0
    5.4229   -0.6161    0.1835 C   0  0  0  0  0  0  0  0  0  0  0  0
    5.0209   -1.6916    1.1260 C   0  0  0  0  0  0  0  0  0  0  0  0
    5.4206   -1.8639    2.3904 N   0  0  0  0  0  0  0  0  0  0  0  0
    4.7532   -3.0049    2.8401 N   0  0  0  0  0  0  0  0  0  0  0  0
    3.9991   -3.4038    1.8094 C   0  0  0  0  0  0  0  0  0  0  0  0
    4.1444   -2.6183    0.7409 N   0  0  0  0  0  0  0  0  0  0  0  0
    3.4081   -1.2617   -4.8920 H   0  0  0  0  0  0  0  0  0  0  0  0
    5.0136   -1.3171   -4.1868 H   0  0  0  0  0  0  0  0  0  0  0  0
    3.8915   -0.0005   -3.7594 H   0  0  0  0  0  0  0  0  0  0  0  0
    1.7893   -2.7175   -3.9453 H   0  0  0  0  0  0  0  0  0  0  0  0
    0.9929   -4.0688   -1.9856 H   0  0  0  0  0  0  0  0  0  0  0  0
    6.2075   -1.7603   -1.4528 H   0  0  0  0  0  0  0  0  0  0  0  0
    5.4679   -0.2544   -1.9631 H   0  0  0  0  0  0  0  0  0  0  0  0
    6.4076   -0.2342    0.4479 H   0  0  0  0  0  0  0  0  0  0  0  0
    4.7077    0.1920    0.3167 H   0  0  0  0  0  0  0  0  0  0  0  0
    3.3468   -4.2604    1.8380 H   0  0  0  0  0  0  0  0  0  0  0  0
  1  2  1  0
  1 15  1  0
  1 16  1  0
  1 17  1  0
  2  7  2  0
  2  3  1  0
  3  4  2  0
  3 18  1  0
  4  5  1  0
  4 19  1  0
  5  6  2  0
  6 14  1  0
  6  7  1  0
  7  8  1  0
  8  9  1  0
  8 20  1  0
  8 21  1  0
  9 10  1  0
  9 22  1  0
  9 23  1  0
 10 14  1  0
 10 11  2  0
 11 12  1  0
 12 13  2  0
 13 14  1  0
 13 24  1  0
M  END
>  <i_m_ct_stereo_status>  (103) 
1

>  <s_m_source_file>  (103) 
/var/tmp/pbs.5076255.sched01/tmpmqqk35eb/391x3533zq.sdf

>  <i_m_source_file_index>  (103) 
1

>  <i_lp_mmshare_version>  (103) 
48012

>  <i_f3d_flags>  (103) 
0

>  <s_epik_input>  (103) 
bjFbY0hdW2NIXWMoW0NIM10pYyhjMTIpW0NIMl1bQ0gyXWMzbjJbY0hdbm4z

>  <s_epik_cmdline>  (103) 
J2VwaWtfcHl0aG9uJywgJy1waHQnLCAnMi4wJywgJy1waCcsICc3LjAnLCAnLXRuJywgJzgnLCAnLW1hJywgJzIwMCcsICctaW1hZScsICc8aW5maWxlLm1hZT4nLCAnLW9tYWUnLCAnPG91dGZpbGUubWFlPic=

>  <r_lp_tautomer_probability>  (103) 
1

>  <r_epik_Ionization_Penalty>  (103) 
2.74318e-06

>  <r_epik_Ionization_Penalty_Charging>  (103) 
0

>  <r_epik_Ionization_Penalty_Neutral>  (103) 
2.74318e-06

>  <r_epik_State_Penalty>  (103) 
-0

>  <r_epik_Charging_Adjusted_Penalty>  (103) 
0

>  <i_epik_Tot_Q>  (103) 
0

>  <i_epik_Tot_abs_Q>  (103) 
0

>  <s_lp_Force_Field>  (103) 
OPLS3e

>  <r_lp_Energy>  (103) 
17.9503

>  <b_lp_Chiralities_Consistent>  (103) 
1

>  <s_lp_Variant>  (103) 
29:0-1

>  <s_i_glide_gridfile>  (103) 
pfpi4k_grid

>  <i_i_glide_lignum>  (103) 
1

>  <i_i_glide_rotatable_bonds>  (103) 
0

>  <r_i_docking_score>  (103) 
-3.58957

>  <r_i_glide_ligand_efficiency>  (103) 
-0.256398

>  <r_i_glide_ligand_efficiency_sa>  (103) 
-0.617956

>  <r_i_glide_ligand_efficiency_ln>  (103) 
-0.986401

>  <r_i_glide_gscore>  (103) 
-3.58957

>  <r_i_glide_lipo>  (103) 
-0.347511

>  <r_i_glide_hbond>  (103) 
0

>  <r_i_glide_metal>  (103) 
-0

>  <r_i_glide_rewards>  (103) 
-2.2261

>  <r_i_glide_evdw>  (103) 
-19.0363

>  <r_i_glide_ecoul>  (103) 
-0.215197

>  <r_i_glide_erotb>  (103) 
0

>  <r_i_glide_esite>  (103) 
-0.0318682

>  <r_i_glide_emodel>  (103) 
-22.9377

>  <r_i_glide_energy>  (103) 
-19.2515

>  <r_i_glide_einternal>  (103) 
0

>  <r_i_glide_intrahb_reward>  (103) 
-0

>  <i_i_glide_confnum>  (103) 
2

>  <i_i_glide_posenum>  (103) 
28

>  <r_i_glide_eff_state_penalty>  (103) 
0

>  <ligand_id>  (103) 
29

>  <original_smiles>  (103) 
Cc1ccnc2c1CCc1nncn1-2

>  <smiles>  (103) 
[H]c1nc2c(c(C([H])([H])[H])c1[H])C([H])([H])C([H])([H])c1nnc([H])n1-2

$$$$
29:0:2
     RDKit          3D

 24 26  0  0  1  0  0  0  0  0999 V2000
    4.6028   -0.4618   -2.6025 C   0  0  0  0  0  0  0  0  0  0  0  0
    3.8295   -1.5569   -1.9022 C   0  0  0  0  0  0  0  0  0  0  0  0
    3.0360   -2.4415   -2.6551 C   0  0  0  0  0  0  0  0  0  0  0  0
    2.3269   -3.4468   -1.9775 C   0  0  0  0  0  0  0  0  0  0  0  0
    2.3585   -3.6192   -0.6427 N   0  0  0  0  0  0  0  0  0  0  0  0
    3.0999   -2.7570    0.0865 C   0  0  0  0  0  0  0  0  0  0  0  0
    3.8754   -1.7230   -0.4967 C   0  0  0  0  0  0  0  0  0  0  0  0
    4.7060   -0.8153    0.4126 C   0  0  0  0  0  0  0  0  0  0  0  0
    4.0427   -0.6101    1.7893 C   0  0  0  0  0  0  0  0  0  0  0  0
    3.5118   -1.8939    2.3284 C   0  0  0  0  0  0  0  0  0  0  0  0
    3.3820   -2.2534    3.6102 N   0  0  0  0  0  0  0  0  0  0  0  0
    2.8236   -3.5355    3.5839 N   0  0  0  0  0  0  0  0  0  0  0  0
    2.6699   -3.8276    2.2879 C   0  0  0  0  0  0  0  0  0  0  0  0
    3.0837   -2.8422    1.4921 N   0  0  0  0  0  0  0  0  0  0  0  0
    4.5281   -0.5620   -3.6846 H   0  0  0  0  0  0  0  0  0  0  0  0
    5.6490   -0.5179   -2.3123 H   0  0  0  0  0  0  0  0  0  0  0  0
    4.2183    0.5184   -2.3395 H   0  0  0  0  0  0  0  0  0  0  0  0
    2.9568   -2.3531   -3.7299 H   0  0  0  0  0  0  0  0  0  0  0  0
    1.7203   -4.1447   -2.5338 H   0  0  0  0  0  0  0  0  0  0  0  0
    5.6646   -1.3148    0.5640 H   0  0  0  0  0  0  0  0  0  0  0  0
    4.9183    0.1467   -0.0410 H   0  0  0  0  0  0  0  0  0  0  0  0
    4.7343   -0.1614    2.5024 H   0  0  0  0  0  0  0  0  0  0  0  0
    3.1959    0.0683    1.6794 H   0  0  0  0  0  0  0  0  0  0  0  0
    2.2566   -4.7558    1.9242 H   0  0  0  0  0  0  0  0  0  0  0  0
  1  2  1  0
  1 15  1  0
  1 16  1  0
  1 17  1  0
  2  7  2  0
  2  3  1  0
  3  4  2  0
  3 18  1  0
  4  5  1  0
  4 19  1  0
  5  6  2  0
  6 14  1  0
  6  7  1  0
  7  8  1  0
  8  9  1  0
  8 20  1  0
  8 21  1  0
  9 10  1  0
  9 22  1  0
  9 23  1  0
 10 14  1  0
 10 11  2  0
 11 12  1  0
 12 13  2  0
 13 14  1  0
 13 24  1  0
M  END
>  <i_m_ct_stereo_status>  (104) 
1

>  <s_m_source_file>  (104) 
/var/tmp/pbs.5076255.sched01/tmpmqqk35eb/391x3533zq.sdf

>  <i_m_source_file_index>  (104) 
1

>  <i_lp_mmshare_version>  (104) 
48012

>  <i_f3d_flags>  (104) 
0

>  <s_epik_input>  (104) 
bjFbY0hdW2NIXWMoW0NIM10pYyhjMTIpW0NIMl1bQ0gyXWMzbjJbY0hdbm4z

>  <s_epik_cmdline>  (104) 
J2VwaWtfcHl0aG9uJywgJy1waHQnLCAnMi4wJywgJy1waCcsICc3LjAnLCAnLXRuJywgJzgnLCAnLW1hJywgJzIwMCcsICctaW1hZScsICc8aW5maWxlLm1hZT4nLCAnLW9tYWUnLCAnPG91dGZpbGUubWFlPic=

>  <r_lp_tautomer_probability>  (104) 
1

>  <r_epik_Ionization_Penalty>  (104) 
2.74318e-06

>  <r_epik_Ionization_Penalty_Charging>  (104) 
0

>  <r_epik_Ionization_Penalty_Neutral>  (104) 
2.74318e-06

>  <r_epik_State_Penalty>  (104) 
-0

>  <r_epik_Charging_Adjusted_Penalty>  (104) 
0

>  <i_epik_Tot_Q>  (104) 
0

>  <i_epik_Tot_abs_Q>  (104) 
0

>  <s_lp_Force_Field>  (104) 
OPLS3e

>  <r_lp_Energy>  (104) 
17.9503

>  <b_lp_Chiralities_Consistent>  (104) 
1

>  <s_lp_Variant>  (104) 
29:0-1

>  <s_i_glide_gridfile>  (104) 
pfpi4k_grid

>  <i_i_glide_lignum>  (104) 
1

>  <i_i_glide_rotatable_bonds>  (104) 
0

>  <r_i_docking_score>  (104) 
-3.37789

>  <r_i_glide_ligand_efficiency>  (104) 
-0.241278

>  <r_i_glide_ligand_efficiency_sa>  (104) 
-0.581514

>  <r_i_glide_ligand_efficiency_ln>  (104) 
-0.928232

>  <r_i_glide_gscore>  (104) 
-3.37789

>  <r_i_glide_lipo>  (104) 
-0.317811

>  <r_i_glide_hbond>  (104) 
0

>  <r_i_glide_metal>  (104) 
-0

>  <r_i_glide_rewards>  (104) 
-2.13946

>  <r_i_glide_evdw>  (104) 
-14.7363

>  <r_i_glide_ecoul>  (104) 
-0.891515

>  <r_i_glide_erotb>  (104) 
0

>  <r_i_glide_esite>  (104) 
-0.0500806

>  <r_i_glide_emodel>  (104) 
-19.1195

>  <r_i_glide_energy>  (104) 
-15.6278

>  <r_i_glide_einternal>  (104) 
0

>  <r_i_glide_intrahb_reward>  (104) 
-0

>  <i_i_glide_confnum>  (104) 
1

>  <i_i_glide_posenum>  (104) 
9

>  <r_i_glide_eff_state_penalty>  (104) 
0

>  <ligand_id>  (104) 
29

>  <original_smiles>  (104) 
Cc1ccnc2c1CCc1nncn1-2

>  <smiles>  (104) 
[H]c1nc2c(c(C([H])([H])[H])c1[H])C([H])([H])C([H])([H])c1nnc([H])n1-2

$$$$
31:0:0
     RDKit          3D

 75 78  0  0  1  0  0  0  0  0999 V2000
    2.5214   -4.4670    5.9331 C   0  0  0  0  0  0  0  0  0  0  0  0
    2.7736   -4.8373    4.4192 C   0  0  2  0  0  0  0  0  0  0  0  0
    1.9857   -6.1614    4.1237 C   0  0  0  0  0  0  0  0  0  0  0  0
    0.4488   -6.0190    4.2422 C   0  0  0  0  0  0  0  0  0  0  0  0
   -0.2753   -7.3709    4.4276 C   0  0  0  0  0  0  0  0  0  0  0  0
   -1.7838   -7.1095    4.3268 C   0  0  0  0  0  0  0  0  0  0  0  0
    0.1491   -8.4535    3.4039 C   0  0  0  0  0  0  0  0  0  0  0  0
    0.1040   -7.7886    5.7389 O   0  0  0  0  0  0  0  0  0  0  0  0
   -0.5370   -9.0583    6.0751 O   0  0  0  0  0  0  0  0  0  0  0  0
    4.3047   -4.9668    4.0424 C   0  0  2  0  0  0  0  0  0  0  0  0
    5.1496   -3.7559    4.5799 C   0  0  0  0  0  0  0  0  0  0  0  0
    5.3987   -2.9262    3.3574 C   0  0  0  0  0  0  0  0  0  0  0  0
    5.1649   -3.5820    2.2194 C   0  0  0  0  0  0  0  0  0  0  0  0
    5.3545   -3.0642    0.7815 C   0  0  2  0  0  0  0  0  0  0  0  0
    5.6904   -1.5545    0.6908 C   0  0  1  0  0  0  0  0  0  0  0  0
    6.9936   -1.3210    1.1713 O   0  0  0  0  0  0  0  0  0  0  0  0
    5.7124   -1.0608   -0.7549 C   0  0  0  0  0  0  0  0  0  0  0  0
    4.4035   -1.3716   -1.4886 C   0  0  1  0  0  0  0  0  0  0  0  0
    4.3164   -0.6934   -2.8677 C   0  0  0  0  0  0  0  0  0  0  0  0
    3.0087   -0.9728   -3.5892 C   0  0  1  0  0  0  0  0  0  0  0  0
    3.1184   -0.4889   -4.9092 O   0  0  0  0  0  0  0  0  0  0  0  0
    2.6848   -2.4698   -3.6373 C   0  0  0  0  0  0  0  0  0  0  0  0
    2.7814   -3.0969   -2.2421 C   0  0  0  0  0  0  0  0  0  0  0  0
    4.1618   -2.9003   -1.5518 C   0  0  1  0  0  0  0  0  0  0  0  0
    5.2664   -3.6502   -2.3510 C   0  0  0  0  0  0  0  0  0  0  0  0
    4.1097   -3.4187   -0.0765 C   0  0  1  0  0  0  0  0  0  0  0  0
    3.8589   -4.9323    0.0236 C   0  0  0  0  0  0  0  0  0  0  0  0
    3.6031   -5.3986    1.4485 C   0  0  1  0  0  0  0  0  0  0  0  0
    3.3742   -6.7841    1.3499 O   0  0  0  0  0  0  0  0  0  0  0  0
    4.7047   -5.0093    2.4827 C   0  0  2  0  0  0  0  0  0  0  0  0
    5.9433   -5.9208    2.2992 C   0  0  0  0  0  0  0  0  0  0  0  0
    2.7052   -5.3547    6.5540 H   0  0  0  0  0  0  0  0  0  0  0  0
    1.4736   -4.1762    6.0704 H   0  0  0  0  0  0  0  0  0  0  0  0
    3.0878   -3.6173    6.3398 H   0  0  0  0  0  0  0  0  0  0  0  0
    2.3727   -4.0026    3.8332 H   0  0  0  0  0  0  0  0  0  0  0  0
    2.0847   -6.4961    3.0987 H   0  0  0  0  0  0  0  0  0  0  0  0
    2.3702   -6.9598    4.7798 H   0  0  0  0  0  0  0  0  0  0  0  0
    0.0718   -5.3272    5.0224 H   0  0  0  0  0  0  0  0  0  0  0  0
    0.1388   -5.5756    3.2972 H   0  0  0  0  0  0  0  0  0  0  0  0
   -2.0466   -6.7158    3.3430 H   0  0  0  0  0  0  0  0  0  0  0  0
   -2.1068   -6.3885    5.0815 H   0  0  0  0  0  0  0  0  0  0  0  0
   -2.3174   -8.0479    4.4533 H   0  0  0  0  0  0  0  0  0  0  0  0
    0.0615   -8.0985    2.3761 H   0  0  0  0  0  0  0  0  0  0  0  0
   -0.4742   -9.3476    3.4883 H   0  0  0  0  0  0  0  0  0  0  0  0
    1.1821   -8.7691    3.5641 H   0  0  0  0  0  0  0  0  0  0  0  0
    0.0500   -9.6789    5.6952 H   0  0  0  0  0  0  0  0  0  0  0  0
    4.6612   -5.8769    4.5306 H   0  0  0  0  0  0  0  0  0  0  0  0
    4.7176   -3.1029    5.3307 H   0  0  0  0  0  0  0  0  0  0  0  0
    6.1173   -4.1105    4.9503 H   0  0  0  0  0  0  0  0  0  0  0  0
    5.7433   -1.9038    3.4486 H   0  0  0  0  0  0  0  0  0  0  0  0
    6.2161   -3.6224    0.4033 H   0  0  0  0  0  0  0  0  0  0  0  0
    4.9712   -0.9647    1.2682 H   0  0  0  0  0  0  0  0  0  0  0  0
    7.1467   -0.3934    1.2815 H   0  0  0  0  0  0  0  0  0  0  0  0
    5.8570    0.0070   -0.7111 H   0  0  0  0  0  0  0  0  0  0  0  0
    6.5542   -1.4963   -1.2964 H   0  0  0  0  0  0  0  0  0  0  0  0
    3.6008   -0.9299   -0.8964 H   0  0  0  0  0  0  0  0  0  0  0  0
    4.4577    0.3850   -2.7714 H   0  0  0  0  0  0  0  0  0  0  0  0
    5.0851   -1.0877   -3.5060 H   0  0  0  0  0  0  0  0  0  0  0  0
    2.2321   -0.4257   -3.0495 H   0  0  0  0  0  0  0  0  0  0  0  0
    2.3892   -0.8292   -5.4123 H   0  0  0  0  0  0  0  0  0  0  0  0
    1.6776   -2.6255   -4.0237 H   0  0  0  0  0  0  0  0  0  0  0  0
    3.3464   -2.9962   -4.3282 H   0  0  0  0  0  0  0  0  0  0  0  0
    1.9996   -2.6748   -1.6136 H   0  0  0  0  0  0  0  0  0  0  0  0
    2.5114   -4.1382   -2.3418 H   0  0  0  0  0  0  0  0  0  0  0  0
    5.0093   -4.6996   -2.4817 H   0  0  0  0  0  0  0  0  0  0  0  0
    6.2378   -3.6138   -1.8596 H   0  0  0  0  0  0  0  0  0  0  0  0
    5.4082   -3.2441   -3.3481 H   0  0  0  0  0  0  0  0  0  0  0  0
    3.2602   -2.9222    0.4015 H   0  0  0  0  0  0  0  0  0  0  0  0
    2.9622   -5.1773   -0.5357 H   0  0  0  0  0  0  0  0  0  0  0  0
    4.6939   -5.4945   -0.3962 H   0  0  0  0  0  0  0  0  0  0  0  0
    2.6823   -4.8949    1.7257 H   0  0  0  0  0  0  0  0  0  0  0  0
    4.2233   -7.2053    1.3181 H   0  0  0  0  0  0  0  0  0  0  0  0
    5.7173   -6.9467    2.5878 H   0  0  0  0  0  0  0  0  0  0  0  0
    6.7723   -5.5822    2.9239 H   0  0  0  0  0  0  0  0  0  0  0  0
    6.2990   -5.9167    1.2670 H   0  0  0  0  0  0  0  0  0  0  0  0
  1  2  1  0
  1 32  1  0
  1 33  1  0
  1 34  1  0
  2  3  1  0
  2 10  1  0
  2 35  1  6
  3  4  1  0
  3 36  1  0
  3 37  1  0
  4  5  1  0
  4 38  1  0
  4 39  1  0
  5  6  1  0
  5  7  1  0
  5  8  1  0
  6 40  1  0
  6 41  1  0
  6 42  1  0
  7 43  1  0
  7 44  1  0
  7 45  1  0
  8  9  1  0
  9 46  1  0
 10 30  1  0
 10 11  1  0
 10 47  1  1
 11 12  1  0
 11 48  1  0
 11 49  1  0
 12 13  2  0
 12 50  1  0
 13 30  1  0
 13 14  1  0
 14 26  1  0
 14 15  1  0
 14 51  1  6
 15 16  1  0
 15 17  1  0
 15 52  1  1
 16 53  1  0
 17 18  1  0
 17 54  1  0
 17 55  1  0
 18 24  1  0
 18 19  1  0
 18 56  1  1
 19 20  1  0
 19 57  1  0
 19 58  1  0
 20 21  1  0
 20 22  1  0
 20 59  1  1
 21 60  1  0
 22 23  1  0
 22 61  1  0
 22 62  1  0
 23 24  1  0
 23 63  1  0
 23 64  1  0
 24 25  1  6
 24 26  1  0
 25 65  1  0
 25 66  1  0
 25 67  1  0
 26 27  1  0
 26 68  1  1
 27 28  1  0
 27 69  1  0
 27 70  1  0
 28 29  1  0
 28 30  1  0
 28 71  1  1
 29 72  1  0
 30 31  1  1
 31 73  1  0
 31 74  1  0
 31 75  1  0
M  END
>  <i_m_ct_stereo_status>  (105) 
1

>  <s_m_source_file>  (105) 
/var/tmp/pbs.5076255.sched01/tmpmqqk35eb/391x3533zq.sdf

>  <i_m_source_file_index>  (105) 
3

>  <i_lp_mmshare_version>  (105) 
48012

>  <i_f3d_flags>  (105) 
0

>  <s_epik_input>  (105) 
W09IXU9DKFtDSDNdKShbQ0gzXSlbQ0gyXVtDSDJdW0NAQEhdKFtDSDNdKVtDQEhdKFtDSDJdW0NIXT0xKVtDQEBdKFtDSDNdKShbQ0BIXShbT0hdKVtDSDJdW0NAQEhdMjMpQzFbQ0BASF0yW0NAQEhdKFtPSF0pW0NIMl1bQ0BIXShbQ0BAXTM0W0NIM10pW0NIMl1bQ0BASF0oW09IXSlbQ0gyXVtDSDJdNA==

>  <s_epik_cmdline>  (105) 
J2VwaWtfcHl0aG9uJywgJy1waHQnLCAnMi4wJywgJy1waCcsICc3LjAnLCAnLXRuJywgJzgnLCAnLW1hJywgJzIwMCcsICctaW1hZScsICc8aW5maWxlLm1hZT4nLCAnLW9tYWUnLCAnPG91dGZpbGUubWFlPic=

>  <r_lp_tautomer_probability>  (105) 
1

>  <r_epik_Ionization_Penalty>  (105) 
7.67366e-06

>  <r_epik_Ionization_Penalty_Charging>  (105) 
0

>  <r_epik_Ionization_Penalty_Neutral>  (105) 
7.67366e-06

>  <r_epik_State_Penalty>  (105) 
-0

>  <r_epik_Charging_Adjusted_Penalty>  (105) 
0

>  <i_epik_Tot_Q>  (105) 
0

>  <i_epik_Tot_abs_Q>  (105) 
0

>  <s_lp_Force_Field>  (105) 
OPLS3e

>  <r_lp_Energy>  (105) 
36.9214

>  <b_lp_Chiralities_Consistent>  (105) 
1

>  <s_lp_Variant>  (105) 
31:0-1

>  <s_i_glide_gridfile>  (105) 
pfpi4k_grid

>  <i_i_glide_lignum>  (105) 
3

>  <i_i_glide_rotatable_bonds>  (105) 
9

>  <r_i_docking_score>  (105) 
-3.69052

>  <r_i_glide_ligand_efficiency>  (105) 
-0.119049

>  <r_i_glide_ligand_efficiency_sa>  (105) 
-0.373979

>  <r_i_glide_ligand_efficiency_ln>  (105) 
-0.832326

>  <r_i_glide_gscore>  (105) 
-3.69052

>  <r_i_glide_lipo>  (105) 
-0.987647

>  <r_i_glide_hbond>  (105) 
-0.595287

>  <r_i_glide_metal>  (105) 
-0

>  <r_i_glide_rewards>  (105) 
-0.432105

>  <r_i_glide_evdw>  (105) 
-20.7056

>  <r_i_glide_ecoul>  (105) 
-7.75353

>  <r_i_glide_erotb>  (105) 
0.522826

>  <r_i_glide_esite>  (105) 
0

>  <r_i_glide_emodel>  (105) 
-27.3017

>  <r_i_glide_energy>  (105) 
-28.4592

>  <r_i_glide_einternal>  (105) 
12.0735

>  <r_i_glide_intrahb_reward>  (105) 
-0

>  <i_i_glide_confnum>  (105) 
3

>  <i_i_glide_posenum>  (105) 
2

>  <r_i_glide_eff_state_penalty>  (105) 
0

>  <ligand_id>  (105) 
31

>  <original_smiles>  (105) 
CC(CCC(C)(C)OO)C1CC=C2C3C(O)CC4CC(O)CCC4(C)C3CC(O)C21C

>  <smiles>  (105) 
[H]OOC(C([H])([H])[H])(C([H])([H])[H])C([H])([H])C([H])([H])C([H])(C([H])([H])[H])C1([H])C([H])([H])C([H])=C2C3([H])C([H])(O[H])C([H])([H])C4([H])C([H])([H])C([H])(O[H])C([H])([H])C([H])([H])C4(C([H])([H])[H])C3([H])C([H])([H])C([H])(O[H])C21C([H])([H])[H]

$$$$
31:0:1
     RDKit          3D

 75 78  0  0  1  0  0  0  0  0999 V2000
    8.6636   -5.7438    0.5643 C   0  0  0  0  0  0  0  0  0  0  0  0
    7.3664   -5.5297    1.3932 C   0  0  2  0  0  0  0  0  0  0  0  0
    7.0004   -4.0022    1.3455 C   0  0  0  0  0  0  0  0  0  0  0  0
    6.4186   -3.5419   -0.0245 C   0  0  0  0  0  0  0  0  0  0  0  0
    5.4679   -2.3051    0.0772 C   0  0  0  0  0  0  0  0  0  0  0  0
    4.9924   -1.9405   -1.3409 C   0  0  0  0  0  0  0  0  0  0  0  0
    4.2169   -2.5346    0.9703 C   0  0  0  0  0  0  0  0  0  0  0  0
    6.2579   -1.2279    0.5829 O   0  0  0  0  0  0  0  0  0  0  0  0
    5.4111   -0.0703    0.8547 O   0  0  0  0  0  0  0  0  0  0  0  0
    7.4694   -6.0828    2.8720 C   0  0  2  0  0  0  0  0  0  0  0  0
    7.9917   -7.5547    2.9134 C   0  0  0  0  0  0  0  0  0  0  0  0
    6.7551   -8.3524    3.2083 C   0  0  0  0  0  0  0  0  0  0  0  0
    5.7609   -7.6163    3.6560 C   0  0  0  0  0  0  0  0  0  0  0  0
    4.3440   -8.0727    4.1025 C   0  0  2  0  0  0  0  0  0  0  0  0
    4.0638   -9.5826    3.8392 C   0  0  1  0  0  0  0  0  0  0  0  0
    4.8872  -10.3925    4.6609 O   0  0  0  0  0  0  0  0  0  0  0  0
    2.5993   -9.9728    4.1126 C   0  0  0  0  0  0  0  0  0  0  0  0
    1.6055   -9.0532    3.3811 C   0  0  1  0  0  0  0  0  0  0  0  0
    0.1492   -9.5482    3.5293 C   0  0  0  0  0  0  0  0  0  0  0  0
   -0.8412   -8.6678    2.7549 C   0  0  1  0  0  0  0  0  0  0  0  0
   -2.1687   -9.0303    3.0620 O   0  0  0  0  0  0  0  0  0  0  0  0
   -0.6731   -7.1829    3.0711 C   0  0  0  0  0  0  0  0  0  0  0  0
    0.7887   -6.7233    2.9402 C   0  0  0  0  0  0  0  0  0  0  0  0
    1.7852   -7.5619    3.7976 C   0  0  1  0  0  0  0  0  0  0  0  0
    1.4839   -7.3330    5.3078 C   0  0  0  0  0  0  0  0  0  0  0  0
    3.2621   -7.1509    3.4622 C   0  0  1  0  0  0  0  0  0  0  0  0
    3.5726   -5.6927    3.8196 C   0  0  0  0  0  0  0  0  0  0  0  0
    4.9341   -5.2356    3.3250 C   0  0  1  0  0  0  0  0  0  0  0  0
    5.0247   -3.9162    3.7803 O   0  0  0  0  0  0  0  0  0  0  0  0
    6.1320   -6.1404    3.7493 C   0  0  2  0  0  0  0  0  0  0  0  0
    6.4903   -5.8519    5.2328 C   0  0  0  0  0  0  0  0  0  0  0  0
    9.4451   -5.0532    0.9016 H   0  0  0  0  0  0  0  0  0  0  0  0
    8.5305   -5.5233   -0.4964 H   0  0  0  0  0  0  0  0  0  0  0  0
    9.0430   -6.7657    0.5787 H   0  0  0  0  0  0  0  0  0  0  0  0
    6.5869   -6.1115    0.9047 H   0  0  0  0  0  0  0  0  0  0  0  0
    6.3359   -3.7278    2.0822 H   0  0  0  0  0  0  0  0  0  0  0  0
    7.9198   -3.4420    1.5593 H   0  0  0  0  0  0  0  0  0  0  0  0
    7.2143   -3.3352   -0.7473 H   0  0  0  0  0  0  0  0  0  0  0  0
    5.8348   -4.3592   -0.4509 H   0  0  0  0  0  0  0  0  0  0  0  0
    4.4589   -2.7906   -1.7796 H   0  0  0  0  0  0  0  0  0  0  0  0
    5.8429   -1.7035   -1.9892 H   0  0  0  0  0  0  0  0  0  0  0  0
    4.3053   -1.0902   -1.3382 H   0  0  0  0  0  0  0  0  0  0  0  0
    3.7157   -3.4718    0.7344 H   0  0  0  0  0  0  0  0  0  0  0  0
    3.4723   -1.7438    0.8679 H   0  0  0  0  0  0  0  0  0  0  0  0
    4.4998   -2.5258    2.0135 H   0  0  0  0  0  0  0  0  0  0  0  0
    5.4313    0.3888    0.0640 H   0  0  0  0  0  0  0  0  0  0  0  0
    8.2180   -5.4824    3.3773 H   0  0  0  0  0  0  0  0  0  0  0  0
    8.4615   -7.9310    2.0099 H   0  0  0  0  0  0  0  0  0  0  0  0
    8.7014   -7.6801    3.7324 H   0  0  0  0  0  0  0  0  0  0  0  0
    6.7592   -9.4316    3.0637 H   0  0  0  0  0  0  0  0  0  0  0  0
    4.3270   -7.9155    5.1803 H   0  0  0  0  0  0  0  0  0  0  0  0
    4.2917   -9.8112    2.7980 H   0  0  0  0  0  0  0  0  0  0  0  0
    4.5593  -10.3629    5.5473 H   0  0  0  0  0  0  0  0  0  0  0  0
    2.4421  -10.9993    3.7793 H   0  0  0  0  0  0  0  0  0  0  0  0
    2.3859   -9.9688    5.1818 H   0  0  0  0  0  0  0  0  0  0  0  0
    1.8454   -9.1183    2.3188 H   0  0  0  0  0  0  0  0  0  0  0  0
    0.0798  -10.5696    3.1539 H   0  0  0  0  0  0  0  0  0  0  0  0
   -0.1295   -9.5897    4.5800 H   0  0  0  0  0  0  0  0  0  0  0  0
   -0.6892   -8.8140    1.6921 H   0  0  0  0  0  0  0  0  0  0  0  0
   -2.1638   -9.6415    3.7962 H   0  0  0  0  0  0  0  0  0  0  0  0
   -1.3017   -6.6404    2.3703 H   0  0  0  0  0  0  0  0  0  0  0  0
   -1.0501   -6.9581    4.0677 H   0  0  0  0  0  0  0  0  0  0  0  0
    1.0777   -6.7806    1.8896 H   0  0  0  0  0  0  0  0  0  0  0  0
    0.8273   -5.6656    3.2039 H   0  0  0  0  0  0  0  0  0  0  0  0
    1.4944   -6.2725    5.5677 H   0  0  0  0  0  0  0  0  0  0  0  0
    2.2083   -7.8262    5.9549 H   0  0  0  0  0  0  0  0  0  0  0  0
    0.5034   -7.7073    5.5966 H   0  0  0  0  0  0  0  0  0  0  0  0
    3.3738   -7.2549    2.3766 H   0  0  0  0  0  0  0  0  0  0  0  0
    2.8424   -5.0325    3.3608 H   0  0  0  0  0  0  0  0  0  0  0  0
    3.5095   -5.5379    4.8998 H   0  0  0  0  0  0  0  0  0  0  0  0
    4.8439   -5.2838    2.2341 H   0  0  0  0  0  0  0  0  0  0  0  0
    5.3679   -3.9496    4.6521 H   0  0  0  0  0  0  0  0  0  0  0  0
    6.8928   -4.8472    5.3516 H   0  0  0  0  0  0  0  0  0  0  0  0
    7.2458   -6.5498    5.6024 H   0  0  0  0  0  0  0  0  0  0  0  0
    5.6156   -5.9499    5.8781 H   0  0  0  0  0  0  0  0  0  0  0  0
  1  2  1  0
  1 32  1  0
  1 33  1  0
  1 34  1  0
  2  3  1  0
  2 10  1  0
  2 35  1  6
  3  4  1  0
  3 36  1  0
  3 37  1  0
  4  5  1  0
  4 38  1  0
  4 39  1  0
  5  6  1  0
  5  7  1  0
  5  8  1  0
  6 40  1  0
  6 41  1  0
  6 42  1  0
  7 43  1  0
  7 44  1  0
  7 45  1  0
  8  9  1  0
  9 46  1  0
 10 30  1  0
 10 11  1  0
 10 47  1  1
 11 12  1  0
 11 48  1  0
 11 49  1  0
 12 13  2  0
 12 50  1  0
 13 30  1  0
 13 14  1  0
 14 26  1  0
 14 15  1  0
 14 51  1  1
 15 16  1  0
 15 17  1  0
 15 52  1  6
 16 53  1  0
 17 18  1  0
 17 54  1  0
 17 55  1  0
 18 24  1  0
 18 19  1  0
 18 56  1  6
 19 20  1  0
 19 57  1  0
 19 58  1  0
 20 21  1  0
 20 22  1  0
 20 59  1  6
 21 60  1  0
 22 23  1  0
 22 61  1  0
 22 62  1  0
 23 24  1  0
 23 63  1  0
 23 64  1  0
 24 25  1  1
 24 26  1  0
 25 65  1  0
 25 66  1  0
 25 67  1  0
 26 27  1  0
 26 68  1  6
 27 28  1  0
 27 69  1  0
 27 70  1  0
 28 29  1  0
 28 30  1  0
 28 71  1  6
 29 72  1  0
 30 31  1  1
 31 73  1  0
 31 74  1  0
 31 75  1  0
M  END
>  <i_m_ct_stereo_status>  (106) 
1

>  <s_m_source_file>  (106) 
/var/tmp/pbs.5076255.sched01/tmpmqqk35eb/391x3533zq.sdf

>  <i_m_source_file_index>  (106) 
3

>  <i_lp_mmshare_version>  (106) 
48012

>  <i_f3d_flags>  (106) 
0

>  <s_epik_input>  (106) 
W09IXU9DKFtDSDNdKShbQ0gzXSlbQ0gyXVtDSDJdW0NAQEhdKFtDSDNdKVtDQEhdKFtDSDJdW0NIXT0xKVtDQEBdKFtDSDNdKShbQ0BIXShbT0hdKVtDSDJdW0NAQEhdMjMpQzFbQ0BASF0yW0NAQEhdKFtPSF0pW0NIMl1bQ0BIXShbQ0BAXTM0W0NIM10pW0NIMl1bQ0BASF0oW09IXSlbQ0gyXVtDSDJdNA==

>  <s_epik_cmdline>  (106) 
J2VwaWtfcHl0aG9uJywgJy1waHQnLCAnMi4wJywgJy1waCcsICc3LjAnLCAnLXRuJywgJzgnLCAnLW1hJywgJzIwMCcsICctaW1hZScsICc8aW5maWxlLm1hZT4nLCAnLW9tYWUnLCAnPG91dGZpbGUubWFlPic=

>  <r_lp_tautomer_probability>  (106) 
1

>  <r_epik_Ionization_Penalty>  (106) 
7.67366e-06

>  <r_epik_Ionization_Penalty_Charging>  (106) 
0

>  <r_epik_Ionization_Penalty_Neutral>  (106) 
7.67366e-06

>  <r_epik_State_Penalty>  (106) 
-0

>  <r_epik_Charging_Adjusted_Penalty>  (106) 
0

>  <i_epik_Tot_Q>  (106) 
0

>  <i_epik_Tot_abs_Q>  (106) 
0

>  <s_lp_Force_Field>  (106) 
OPLS3e

>  <r_lp_Energy>  (106) 
36.9214

>  <b_lp_Chiralities_Consistent>  (106) 
1

>  <s_lp_Variant>  (106) 
31:0-1

>  <s_i_glide_gridfile>  (106) 
pfpi4k_grid

>  <i_i_glide_lignum>  (106) 
3

>  <i_i_glide_rotatable_bonds>  (106) 
9

>  <r_i_docking_score>  (106) 
-2.27893

>  <r_i_glide_ligand_efficiency>  (106) 
-0.0735139

>  <r_i_glide_ligand_efficiency_sa>  (106) 
-0.230935

>  <r_i_glide_ligand_efficiency_ln>  (106) 
-0.513969

>  <r_i_glide_gscore>  (106) 
-2.27893

>  <r_i_glide_lipo>  (106) 
-0.320471

>  <r_i_glide_hbond>  (106) 
-0.148244

>  <r_i_glide_metal>  (106) 
-0

>  <r_i_glide_rewards>  (106) 
-0.432105

>  <r_i_glide_evdw>  (106) 
-21.3543

>  <r_i_glide_ecoul>  (106) 
-5.55481

>  <r_i_glide_erotb>  (106) 
0.522826

>  <r_i_glide_esite>  (106) 
0

>  <r_i_glide_emodel>  (106) 
-21.8783

>  <r_i_glide_energy>  (106) 
-26.9091

>  <r_i_glide_einternal>  (106) 
12.725

>  <r_i_glide_intrahb_reward>  (106) 
-0

>  <i_i_glide_confnum>  (106) 
3

>  <i_i_glide_posenum>  (106) 
13

>  <r_i_glide_eff_state_penalty>  (106) 
0

>  <ligand_id>  (106) 
31

>  <original_smiles>  (106) 
CC(CCC(C)(C)OO)C1CC=C2C3C(O)CC4CC(O)CCC4(C)C3CC(O)C21C

>  <smiles>  (106) 
[H]OOC(C([H])([H])[H])(C([H])([H])[H])C([H])([H])C([H])([H])C([H])(C([H])([H])[H])C1([H])C([H])([H])C([H])=C2C3([H])C([H])(O[H])C([H])([H])C4([H])C([H])([H])C([H])(O[H])C([H])([H])C([H])([H])C4(C([H])([H])[H])C3([H])C([H])([H])C([H])(O[H])C21C([H])([H])[H]

$$$$
31:0:2
     RDKit          3D

 75 78  0  0  1  0  0  0  0  0999 V2000
    8.6560   -6.2609    0.3919 C   0  0  0  0  0  0  0  0  0  0  0  0
    7.4094   -5.9228    1.2561 C   0  0  2  0  0  0  0  0  0  0  0  0
    7.1956   -4.3805    1.1299 C   0  0  0  0  0  0  0  0  0  0  0  0
    6.7763   -3.8927   -0.2743 C   0  0  0  0  0  0  0  0  0  0  0  0
    5.8660   -2.6327   -0.2589 C   0  0  0  0  0  0  0  0  0  0  0  0
    5.6175   -2.2136   -1.7166 C   0  0  0  0  0  0  0  0  0  0  0  0
    4.4871   -2.8325    0.4414 C   0  0  0  0  0  0  0  0  0  0  0  0
    6.6063   -1.6184    0.4153 O   0  0  0  0  0  0  0  0  0  0  0  0
    5.8214   -0.3896    0.4742 O   0  0  0  0  0  0  0  0  0  0  0  0
    7.5126   -6.4098    2.7615 C   0  0  2  0  0  0  0  0  0  0  0  0
    7.9997   -7.9007    2.8826 C   0  0  0  0  0  0  0  0  0  0  0  0
    6.7591   -8.6742    3.1902 C   0  0  0  0  0  0  0  0  0  0  0  0
    5.7674   -7.9113    3.6099 C   0  0  0  0  0  0  0  0  0  0  0  0
    4.3597   -8.3383    4.0563 C   0  0  2  0  0  0  0  0  0  0  0  0
    4.0534   -9.8543    3.8329 C   0  0  1  0  0  0  0  0  0  0  0  0
    4.8505  -10.6326    4.7015 O   0  0  0  0  0  0  0  0  0  0  0  0
    2.5902  -10.2183    4.1379 C   0  0  0  0  0  0  0  0  0  0  0  0
    1.6056   -9.3095    3.3862 C   0  0  1  0  0  0  0  0  0  0  0  0
    0.1420   -9.7727    3.5533 C   0  0  0  0  0  0  0  0  0  0  0  0
   -0.8234   -8.8986    2.7414 C   0  0  1  0  0  0  0  0  0  0  0  0
   -2.1573   -9.2177    3.0415 O   0  0  0  0  0  0  0  0  0  0  0  0
   -0.6424   -7.4099    3.0159 C   0  0  0  0  0  0  0  0  0  0  0  0
    0.8248   -6.9808    2.8669 C   0  0  0  0  0  0  0  0  0  0  0  0
    1.8099   -7.8078    3.7455 C   0  0  1  0  0  0  0  0  0  0  0  0
    1.5163   -7.5207    5.2460 C   0  0  0  0  0  0  0  0  0  0  0  0
    3.2839   -7.4345    3.3941 C   0  0  1  0  0  0  0  0  0  0  0  0
    3.6105   -5.9681    3.7073 C   0  0  0  0  0  0  0  0  0  0  0  0
    4.9736   -5.5505    3.1894 C   0  0  1  0  0  0  0  0  0  0  0  0
    5.0806   -4.1933    3.6296 O   0  0  0  0  0  0  0  0  0  0  0  0
    6.1770   -6.4348    3.6450 C   0  0  2  0  0  0  0  0  0  0  0  0
    6.5363   -6.1072    5.1120 C   0  0  0  0  0  0  0  0  0  0  0  0
    9.5146   -5.6512    0.7253 H   0  0  0  0  0  0  0  0  0  0  0  0
    8.5757   -6.0393   -0.6771 H   0  0  0  0  0  0  0  0  0  0  0  0
    8.8518   -7.3215    0.3669 H   0  0  0  0  0  0  0  0  0  0  0  0
    6.6016   -6.4803    0.8049 H   0  0  0  0  0  0  0  0  0  0  0  0
    6.3893   -4.0595    1.7868 H   0  0  0  0  0  0  0  0  0  0  0  0
    8.0916   -3.8482    1.4845 H   0  0  0  0  0  0  0  0  0  0  0  0
    7.6556   -3.7260   -0.9029 H   0  0  0  0  0  0  0  0  0  0  0  0
    6.1852   -4.6733   -0.7363 H   0  0  0  0  0  0  0  0  0  0  0  0
    5.1211   -3.0270   -2.2531 H   0  0  0  0  0  0  0  0  0  0  0  0
    6.5647   -2.0145   -2.2192 H   0  0  0  0  0  0  0  0  0  0  0  0
    4.9788   -1.3316   -1.7971 H   0  0  0  0  0  0  0  0  0  0  0  0
    3.9816   -3.7303    0.0838 H   0  0  0  0  0  0  0  0  0  0  0  0
    3.8036   -1.9975    0.2741 H   0  0  0  0  0  0  0  0  0  0  0  0
    4.5839   -2.9014    1.5175 H   0  0  0  0  0  0  0  0  0  0  0  0
    5.3230   -0.5224    1.2625 H   0  0  0  0  0  0  0  0  0  0  0  0
    8.2704   -5.7844    3.2325 H   0  0  0  0  0  0  0  0  0  0  0  0
    8.4619   -8.3361    2.0130 H   0  0  0  0  0  0  0  0  0  0  0  0
    8.7001   -8.0233    3.7147 H   0  0  0  0  0  0  0  0  0  0  0  0
    6.7351   -9.7547    3.0862 H   0  0  0  0  0  0  0  0  0  0  0  0
    4.3513   -8.1637    5.1337 H   0  0  0  0  0  0  0  0  0  0  0  0
    4.2736  -10.1272    2.7976 H   0  0  0  0  0  0  0  0  0  0  0  0
    4.6042  -11.5454    4.5979 H   0  0  0  0  0  0  0  0  0  0  0  0
    2.4121  -11.2538    3.8438 H   0  0  0  0  0  0  0  0  0  0  0  0
    2.3947  -10.1657    5.2097 H   0  0  0  0  0  0  0  0  0  0  0  0
    1.8377   -9.4234    2.3276 H   0  0  0  0  0  0  0  0  0  0  0  0
    0.0602  -10.8034    3.2075 H   0  0  0  0  0  0  0  0  0  0  0  0
   -0.1339   -9.7772    4.6102 H   0  0  0  0  0  0  0  0  0  0  0  0
   -0.6629   -9.0829    1.6906 H   0  0  0  0  0  0  0  0  0  0  0  0
   -2.1770   -9.7904    3.8064 H   0  0  0  0  0  0  0  0  0  0  0  0
   -1.2626   -6.8530    2.3131 H   0  0  0  0  0  0  0  0  0  0  0  0
   -1.0113   -7.1567    4.0124 H   0  0  0  0  0  0  0  0  0  0  0  0
    1.1075   -7.0806    1.8186 H   0  0  0  0  0  0  0  0  0  0  0  0
    0.8786   -5.9175    3.0992 H   0  0  0  0  0  0  0  0  0  0  0  0
    1.5441   -6.4528    5.4672 H   0  0  0  0  0  0  0  0  0  0  0  0
    2.2354   -8.0047    5.9056 H   0  0  0  0  0  0  0  0  0  0  0  0
    0.5320   -7.8716    5.5480 H   0  0  0  0  0  0  0  0  0  0  0  0
    3.3931   -7.5650    2.3137 H   0  0  0  0  0  0  0  0  0  0  0  0
    2.8883   -5.3151    3.2243 H   0  0  0  0  0  0  0  0  0  0  0  0
    3.5666   -5.7844    4.7820 H   0  0  0  0  0  0  0  0  0  0  0  0
    4.8834   -5.6189    2.1130 H   0  0  0  0  0  0  0  0  0  0  0  0
    5.3866   -4.2135    4.5037 H   0  0  0  0  0  0  0  0  0  0  0  0
    6.9586   -5.1061    5.1963 H   0  0  0  0  0  0  0  0  0  0  0  0
    7.2810   -6.8084    5.4927 H   0  0  0  0  0  0  0  0  0  0  0  0
    5.6642   -6.1793    5.7649 H   0  0  0  0  0  0  0  0  0  0  0  0
  1  2  1  0
  1 32  1  0
  1 33  1  0
  1 34  1  0
  2  3  1  0
  2 10  1  0
  2 35  1  6
  3  4  1  0
  3 36  1  0
  3 37  1  0
  4  5  1  0
  4 38  1  0
  4 39  1  0
  5  6  1  0
  5  7  1  0
  5  8  1  0
  6 40  1  0
  6 41  1  0
  6 42  1  0
  7 43  1  0
  7 44  1  0
  7 45  1  0
  8  9  1  0
  9 46  1  0
 10 30  1  0
 10 11  1  0
 10 47  1  1
 11 12  1  0
 11 48  1  0
 11 49  1  0
 12 13  2  0
 12 50  1  0
 13 30  1  0
 13 14  1  0
 14 26  1  0
 14 15  1  0
 14 51  1  1
 15 16  1  0
 15 17  1  0
 15 52  1  6
 16 53  1  0
 17 18  1  0
 17 54  1  0
 17 55  1  0
 18 24  1  0
 18 19  1  0
 18 56  1  6
 19 20  1  0
 19 57  1  0
 19 58  1  0
 20 21  1  0
 20 22  1  0
 20 59  1  6
 21 60  1  0
 22 23  1  0
 22 61  1  0
 22 62  1  0
 23 24  1  0
 23 63  1  0
 23 64  1  0
 24 25  1  1
 24 26  1  0
 25 65  1  0
 25 66  1  0
 25 67  1  0
 26 27  1  0
 26 68  1  6
 27 28  1  0
 27 69  1  0
 27 70  1  0
 28 29  1  0
 28 30  1  0
 28 71  1  6
 29 72  1  0
 30 31  1  1
 31 73  1  0
 31 74  1  0
 31 75  1  0
M  END
>  <i_m_ct_stereo_status>  (107) 
1

>  <s_m_source_file>  (107) 
/var/tmp/pbs.5076255.sched01/tmpmqqk35eb/391x3533zq.sdf

>  <i_m_source_file_index>  (107) 
3

>  <i_lp_mmshare_version>  (107) 
48012

>  <i_f3d_flags>  (107) 
0

>  <s_epik_input>  (107) 
W09IXU9DKFtDSDNdKShbQ0gzXSlbQ0gyXVtDSDJdW0NAQEhdKFtDSDNdKVtDQEhdKFtDSDJdW0NIXT0xKVtDQEBdKFtDSDNdKShbQ0BIXShbT0hdKVtDSDJdW0NAQEhdMjMpQzFbQ0BASF0yW0NAQEhdKFtPSF0pW0NIMl1bQ0BIXShbQ0BAXTM0W0NIM10pW0NIMl1bQ0BASF0oW09IXSlbQ0gyXVtDSDJdNA==

>  <s_epik_cmdline>  (107) 
J2VwaWtfcHl0aG9uJywgJy1waHQnLCAnMi4wJywgJy1waCcsICc3LjAnLCAnLXRuJywgJzgnLCAnLW1hJywgJzIwMCcsICctaW1hZScsICc8aW5maWxlLm1hZT4nLCAnLW9tYWUnLCAnPG91dGZpbGUubWFlPic=

>  <r_lp_tautomer_probability>  (107) 
1

>  <r_epik_Ionization_Penalty>  (107) 
7.67366e-06

>  <r_epik_Ionization_Penalty_Charging>  (107) 
0

>  <r_epik_Ionization_Penalty_Neutral>  (107) 
7.67366e-06

>  <r_epik_State_Penalty>  (107) 
-0

>  <r_epik_Charging_Adjusted_Penalty>  (107) 
0

>  <i_epik_Tot_Q>  (107) 
0

>  <i_epik_Tot_abs_Q>  (107) 
0

>  <s_lp_Force_Field>  (107) 
OPLS3e

>  <r_lp_Energy>  (107) 
36.9214

>  <b_lp_Chiralities_Consistent>  (107) 
1

>  <s_lp_Variant>  (107) 
31:0-1

>  <s_i_glide_gridfile>  (107) 
pfpi4k_grid

>  <i_i_glide_lignum>  (107) 
3

>  <i_i_glide_rotatable_bonds>  (107) 
9

>  <r_i_docking_score>  (107) 
-1.9671

>  <r_i_glide_ligand_efficiency>  (107) 
-0.0634547

>  <r_i_glide_ligand_efficiency_sa>  (107) 
-0.199335

>  <r_i_glide_ligand_efficiency_ln>  (107) 
-0.44364

>  <r_i_glide_gscore>  (107) 
-1.9671

>  <r_i_glide_lipo>  (107) 
-0.3101

>  <r_i_glide_hbond>  (107) 
-0.16

>  <r_i_glide_metal>  (107) 
-0

>  <r_i_glide_rewards>  (107) 
-0.432105

>  <r_i_glide_evdw>  (107) 
-20.9755

>  <r_i_glide_ecoul>  (107) 
-3.59294

>  <r_i_glide_erotb>  (107) 
0.522826

>  <r_i_glide_esite>  (107) 
0

>  <r_i_glide_emodel>  (107) 
-20.231

>  <r_i_glide_energy>  (107) 
-24.5685

>  <r_i_glide_einternal>  (107) 
12.1663

>  <r_i_glide_intrahb_reward>  (107) 
-0

>  <i_i_glide_confnum>  (107) 
3

>  <i_i_glide_posenum>  (107) 
21

>  <r_i_glide_eff_state_penalty>  (107) 
0

>  <ligand_id>  (107) 
31

>  <original_smiles>  (107) 
CC(CCC(C)(C)OO)C1CC=C2C3C(O)CC4CC(O)CCC4(C)C3CC(O)C21C

>  <smiles>  (107) 
[H]OOC(C([H])([H])[H])(C([H])([H])[H])C([H])([H])C([H])([H])C([H])(C([H])([H])[H])C1([H])C([H])([H])C([H])=C2C3([H])C([H])(O[H])C([H])([H])C4([H])C([H])([H])C([H])(O[H])C([H])([H])C([H])([H])C4(C([H])([H])[H])C3([H])C([H])([H])C([H])(O[H])C21C([H])([H])[H]

$$$$
32:0:0
     RDKit          3D

 51 57  0  0  1  0  0  0  0  0999 V2000
    4.3519   -2.4975   -2.6216 O   0  0  0  0  0  0  0  0  0  0  0  0
    5.1412   -3.0542   -1.8523 C   0  0  0  0  0  0  0  0  0  0  0  0
    6.6028   -2.6542   -1.7926 C   0  0  0  0  0  0  0  0  0  0  0  0
    7.1100   -2.5067   -0.3539 C   0  0  0  0  0  0  0  0  0  0  0  0
    6.7424   -3.7247    0.5084 C   0  0  0  0  0  0  0  0  0  0  0  0
    5.2074   -4.0890    0.5246 C   0  0  1  0  0  0  0  0  0  0  0  0
    4.7212   -4.1998   -0.9596 C   0  0  0  0  0  0  0  0  0  0  0  0
    5.0078   -5.4780    1.1941 C   0  0  1  0  0  0  0  0  0  0  0  0
    5.4589   -5.5602    2.6729 C   0  0  0  0  0  0  0  0  0  0  0  0
    4.3010   -5.2301    3.6378 C   0  0  2  0  0  0  0  0  0  0  0  0
    3.0742   -6.1308    3.3359 C   0  0  2  0  0  0  0  0  0  0  0  0
    3.3587   -7.5984    2.9508 C   0  0  0  0  0  0  0  0  0  0  0  0
    3.5644   -7.5716    1.4288 C   0  0  0  0  0  0  0  0  0  0  0  0
    3.5648   -6.0779    1.0422 C   0  0  1  0  0  0  0  0  0  0  0  0
    2.5614   -5.4861    2.0547 C   0  0  2  0  0  0  0  0  0  0  0  0
    2.5878   -3.9835    2.3899 C   0  0  1  0  0  0  0  0  0  0  0  0
    3.7214   -3.8098    3.4153 C   0  0  2  0  0  0  0  0  0  0  0  0
    4.5834   -2.6996    2.7507 C   0  0  2  0  0  0  0  0  0  0  0  0
    3.8038   -1.3638    2.8807 C   0  0  0  0  0  0  0  0  0  0  0  0
    2.6207   -1.5418    1.8920 C   0  0  1  0  0  0  0  0  0  0  0  0
    2.6282   -0.5276    0.8901 O   0  0  0  0  0  0  0  0  0  0  0  0
    2.9050   -2.9431    1.2889 C   0  0  1  0  0  0  0  0  0  0  0  0
    4.4346   -2.9160    1.2380 C   0  0  2  0  0  0  0  0  0  0  0  0
    7.1765   -3.4135   -2.3316 H   0  0  0  0  0  0  0  0  0  0  0  0
    6.7068   -1.7024   -2.3142 H   0  0  0  0  0  0  0  0  0  0  0  0
    8.1953   -2.4015   -0.3728 H   0  0  0  0  0  0  0  0  0  0  0  0
    6.7299   -1.5818    0.0844 H   0  0  0  0  0  0  0  0  0  0  0  0
    7.3066   -4.5815    0.1437 H   0  0  0  0  0  0  0  0  0  0  0  0
    7.1227   -3.5209    1.5047 H   0  0  0  0  0  0  0  0  0  0  0  0
    3.6359   -4.2565   -1.0231 H   0  0  0  0  0  0  0  0  0  0  0  0
    5.0988   -5.1178   -1.4080 H   0  0  0  0  0  0  0  0  0  0  0  0
    5.6681   -6.1634    0.6534 H   0  0  0  0  0  0  0  0  0  0  0  0
    5.8230   -6.5698    2.8803 H   0  0  0  0  0  0  0  0  0  0  0  0
    6.3269   -4.9374    2.8890 H   0  0  0  0  0  0  0  0  0  0  0  0
    4.6373   -5.3633    4.6675 H   0  0  0  0  0  0  0  0  0  0  0  0
    2.3455   -6.0431    4.1456 H   0  0  0  0  0  0  0  0  0  0  0  0
    4.2169   -8.0123    3.4853 H   0  0  0  0  0  0  0  0  0  0  0  0
    2.4976   -8.2268    3.1853 H   0  0  0  0  0  0  0  0  0  0  0  0
    4.4669   -8.0956    1.1106 H   0  0  0  0  0  0  0  0  0  0  0  0
    2.7209   -8.0703    0.9531 H   0  0  0  0  0  0  0  0  0  0  0  0
    3.1893   -6.0125    0.0214 H   0  0  0  0  0  0  0  0  0  0  0  0
    1.5486   -5.8202    1.7978 H   0  0  0  0  0  0  0  0  0  0  0  0
    1.6332   -3.7331    2.8659 H   0  0  0  0  0  0  0  0  0  0  0  0
    3.3162   -3.4579    4.3685 H   0  0  0  0  0  0  0  0  0  0  0  0
    5.6052   -2.6327    3.1317 H   0  0  0  0  0  0  0  0  0  0  0  0
    3.4727   -1.1675    3.9024 H   0  0  0  0  0  0  0  0  0  0  0  0
    4.4402   -0.5215    2.5921 H   0  0  0  0  0  0  0  0  0  0  0  0
    1.6585   -1.5010    2.4035 H   0  0  0  0  0  0  0  0  0  0  0  0
    1.9112   -0.6731    0.2614 H   0  0  0  0  0  0  0  0  0  0  0  0
    2.3910   -3.1078    0.3436 H   0  0  0  0  0  0  0  0  0  0  0  0
    4.7286   -2.0154    0.7108 H   0  0  0  0  0  0  0  0  0  0  0  0
  1  2  2  0
  2  7  1  0
  2  3  1  0
  3  4  1  0
  3 24  1  0
  3 25  1  0
  4  5  1  0
  4 26  1  0
  4 27  1  0
  6  5  1  6
  5 28  1  0
  5 29  1  0
  6 23  1  0
  6  7  1  0
  6  8  1  0
  7 30  1  0
  7 31  1  0
  8 14  1  0
  8  9  1  0
  8 32  1  6
  9 10  1  0
  9 33  1  0
  9 34  1  0
 10 17  1  0
 10 11  1  0
 10 35  1  1
 11 15  1  0
 11 12  1  0
 11 36  1  1
 12 13  1  0
 12 37  1  0
 12 38  1  0
 13 14  1  0
 13 39  1  0
 13 40  1  0
 14 15  1  0
 14 41  1  6
 15 16  1  0
 15 42  1  6
 16 22  1  0
 16 17  1  0
 16 43  1  1
 17 18  1  0
 17 44  1  1
 18 23  1  0
 18 19  1  0
 18 45  1  1
 19 20  1  0
 19 46  1  0
 19 47  1  0
 20 21  1  0
 20 22  1  0
 20 48  1  1
 21 49  1  0
 22 23  1  0
 22 50  1  6
 23 51  1  6
M  END
>  <i_m_ct_stereo_status>  (108) 
1

>  <s_m_source_file>  (108) 
/var/tmp/pbs.5076255.sched01/tmpmqqk35eb/391x3533zq.sdf

>  <i_m_source_file_index>  (108) 
4

>  <i_lp_mmshare_version>  (108) 
48012

>  <i_f3d_flags>  (108) 
0

>  <s_epik_input>  (108) 
Tz1DKFtDSDJdMSlbQ0gyXVtDSDJdW0NIMl1bQ0BdMTJbQ0BASF0zW0NAQEhdNFtDQEhdNVtDQEBIXShbQ0gyXVtDSDJdNClbQ0BASF0oW0NIMl0zKVtDQEBIXTZbQ0BIXTVbQ0BASF03W0NASF0yW0NASF02W0NIMl1bQ0BIXTdbT0hd

>  <s_epik_cmdline>  (108) 
J2VwaWtfcHl0aG9uJywgJy1waHQnLCAnMi4wJywgJy1waCcsICc3LjAnLCAnLXRuJywgJzgnLCAnLW1hJywgJzIwMCcsICctaW1hZScsICc8aW5maWxlLm1hZT4nLCAnLW9tYWUnLCAnPG91dGZpbGUubWFlPic=

>  <r_lp_tautomer_probability>  (108) 
1

>  <r_epik_Ionization_Penalty>  (108) 
3.58094e-06

>  <r_epik_Ionization_Penalty_Charging>  (108) 
0

>  <r_epik_Ionization_Penalty_Neutral>  (108) 
3.58094e-06

>  <r_epik_State_Penalty>  (108) 
-0

>  <r_epik_Charging_Adjusted_Penalty>  (108) 
0

>  <i_epik_Tot_Q>  (108) 
0

>  <i_epik_Tot_abs_Q>  (108) 
0

>  <s_lp_Force_Field>  (108) 
OPLS3e

>  <r_lp_Energy>  (108) 
82.2072

>  <b_lp_Chiralities_Consistent>  (108) 
1

>  <s_lp_Variant>  (108) 
32:0-1

>  <s_i_glide_gridfile>  (108) 
pfpi4k_grid

>  <i_i_glide_lignum>  (108) 
4

>  <i_i_glide_rotatable_bonds>  (108) 
1

>  <r_i_docking_score>  (108) 
-3.78292

>  <r_i_glide_ligand_efficiency>  (108) 
-0.164475

>  <r_i_glide_ligand_efficiency_sa>  (108) 
-0.467744

>  <r_i_glide_ligand_efficiency_ln>  (108) 
-0.914744

>  <r_i_glide_gscore>  (108) 
-3.78292

>  <r_i_glide_lipo>  (108) 
-0.35382

>  <r_i_glide_hbond>  (108) 
-0.16

>  <r_i_glide_metal>  (108) 
-0

>  <r_i_glide_rewards>  (108) 
-1.38994

>  <r_i_glide_evdw>  (108) 
-22.0455

>  <r_i_glide_ecoul>  (108) 
-5.17924

>  <r_i_glide_erotb>  (108) 
0

>  <r_i_glide_esite>  (108) 
0

>  <r_i_glide_emodel>  (108) 
-33.627

>  <r_i_glide_energy>  (108) 
-27.2247

>  <r_i_glide_einternal>  (108) 
0.315531

>  <r_i_glide_intrahb_reward>  (108) 
-0

>  <i_i_glide_confnum>  (108) 
4

>  <i_i_glide_posenum>  (108) 
9

>  <r_i_glide_eff_state_penalty>  (108) 
0

>  <ligand_id>  (108) 
32

>  <original_smiles>  (108) 
O=C1CCCC2(C1)C1CC3C4CCC1C4C1C3C3CC(O)C1C32

>  <smiles>  (108) 
[H]OC1([H])C([H])([H])C2([H])C3([H])C4([H])C([H])([H])C5([H])C6([H])C([H])([H])C([H])([H])C4([H])C6([H])C3([H])C1([H])C2([H])C51C([H])([H])C(=O)C([H])([H])C([H])([H])C1([H])[H]

$$$$
32:0:1
     RDKit          3D

 51 57  0  0  1  0  0  0  0  0999 V2000
    2.1247   -3.2213    3.7745 O   0  0  0  0  0  0  0  0  0  0  0  0
    2.8135   -2.3187    3.2943 C   0  0  0  0  0  0  0  0  0  0  0  0
    3.5510   -1.3109    4.1645 C   0  0  0  0  0  0  0  0  0  0  0  0
    4.9895   -1.0902    3.6819 C   0  0  0  0  0  0  0  0  0  0  0  0
    5.0745   -0.8340    2.1641 C   0  0  0  0  0  0  0  0  0  0  0  0
    4.3862   -1.9301    1.2619 C   0  0  1  0  0  0  0  0  0  0  0  0
    2.9314   -2.1346    1.7966 C   0  0  0  0  0  0  0  0  0  0  0  0
    4.2971   -1.4292   -0.1992 C   0  0  1  0  0  0  0  0  0  0  0  0
    5.6461   -1.1480   -0.8823 C   0  0  0  0  0  0  0  0  0  0  0  0
    6.1830   -2.3882   -1.6264 C   0  0  2  0  0  0  0  0  0  0  0  0
    5.1228   -2.9213   -2.6267 C   0  0  2  0  0  0  0  0  0  0  0  0
    4.2749   -1.8837   -3.3913 C   0  0  0  0  0  0  0  0  0  0  0  0
    3.0993   -1.5857   -2.4584 C   0  0  0  0  0  0  0  0  0  0  0  0
    3.4151   -2.3198   -1.1377 C   0  0  1  0  0  0  0  0  0  0  0  0
    4.1536   -3.5577   -1.6487 C   0  0  2  0  0  0  0  0  0  0  0  0
    5.0546   -4.3649   -0.7111 C   0  0  1  0  0  0  0  0  0  0  0  0
    6.3813   -3.5891   -0.6772 C   0  0  2  0  0  0  0  0  0  0  0  0
    6.6023   -3.3971    0.8413 C   0  0  2  0  0  0  0  0  0  0  0  0
    6.9998   -4.7834    1.4146 C   0  0  0  0  0  0  0  0  0  0  0  0
    5.6824   -5.5840    1.3418 C   0  0  1  0  0  0  0  0  0  0  0  0
    5.2917   -5.9995    2.6430 O   0  0  0  0  0  0  0  0  0  0  0  0
    4.6821   -4.5483    0.7714 C   0  0  1  0  0  0  0  0  0  0  0  0
    5.1988   -3.2734    1.4422 C   0  0  2  0  0  0  0  0  0  0  0  0
    2.9986   -0.3743    4.1054 H   0  0  0  0  0  0  0  0  0  0  0  0
    3.5334   -1.6477    5.2013 H   0  0  0  0  0  0  0  0  0  0  0  0
    5.4196   -0.2323    4.2016 H   0  0  0  0  0  0  0  0  0  0  0  0
    5.6114   -1.9418    3.9694 H   0  0  0  0  0  0  0  0  0  0  0  0
    4.6131    0.1321    1.9511 H   0  0  0  0  0  0  0  0  0  0  0  0
    6.1292   -0.7140    1.9261 H   0  0  0  0  0  0  0  0  0  0  0  0
    2.4702   -3.0128    1.3418 H   0  0  0  0  0  0  0  0  0  0  0  0
    2.3096   -1.2837    1.5065 H   0  0  0  0  0  0  0  0  0  0  0  0
    3.7847   -0.4616   -0.1416 H   0  0  0  0  0  0  0  0  0  0  0  0
    5.4997   -0.3320   -1.5923 H   0  0  0  0  0  0  0  0  0  0  0  0
    6.3923   -0.7624   -0.1845 H   0  0  0  0  0  0  0  0  0  0  0  0
    7.1122   -2.1615   -2.1470 H   0  0  0  0  0  0  0  0  0  0  0  0
    5.5686   -3.6724   -3.2857 H   0  0  0  0  0  0  0  0  0  0  0  0
    4.8377   -0.9821   -3.6424 H   0  0  0  0  0  0  0  0  0  0  0  0
    3.8952   -2.3033   -4.3240 H   0  0  0  0  0  0  0  0  0  0  0  0
    2.9236   -0.5202   -2.3263 H   0  0  0  0  0  0  0  0  0  0  0  0
    2.1926   -2.0065   -2.8849 H   0  0  0  0  0  0  0  0  0  0  0  0
    2.4683   -2.6028   -0.6890 H   0  0  0  0  0  0  0  0  0  0  0  0
    3.4222   -4.1994   -2.1415 H   0  0  0  0  0  0  0  0  0  0  0  0
    5.1996   -5.3484   -1.1699 H   0  0  0  0  0  0  0  0  0  0  0  0
    7.2014   -4.1787   -1.0720 H   0  0  0  0  0  0  0  0  0  0  0  0
    7.3179   -2.6100    1.0938 H   0  0  0  0  0  0  0  0  0  0  0  0
    7.8133   -5.2669    0.8660 H   0  0  0  0  0  0  0  0  0  0  0  0
    7.3357   -4.6916    2.4489 H   0  0  0  0  0  0  0  0  0  0  0  0
    5.7748   -6.4753    0.7209 H   0  0  0  0  0  0  0  0  0  0  0  0
    4.5067   -6.5130    2.5773 H   0  0  0  0  0  0  0  0  0  0  0  0
    3.6416   -4.8121    0.9535 H   0  0  0  0  0  0  0  0  0  0  0  0
    5.2436   -3.4580    2.5076 H   0  0  0  0  0  0  0  0  0  0  0  0
  1  2  2  0
  2  7  1  0
  2  3  1  0
  3  4  1  0
  3 24  1  0
  3 25  1  0
  4  5  1  0
  4 26  1  0
  4 27  1  0
  6  5  1  1
  5 28  1  0
  5 29  1  0
  6 23  1  0
  6  7  1  0
  6  8  1  0
  7 30  1  0
  7 31  1  0
  8 14  1  0
  8  9  1  0
  8 32  1  1
  9 10  1  0
  9 33  1  0
  9 34  1  0
 10 17  1  0
 10 11  1  0
 10 35  1  6
 11 15  1  0
 11 12  1  0
 11 36  1  6
 12 13  1  0
 12 37  1  0
 12 38  1  0
 13 14  1  0
 13 39  1  0
 13 40  1  0
 14 15  1  0
 14 41  1  1
 15 16  1  0
 15 42  1  6
 16 22  1  0
 16 17  1  0
 16 43  1  6
 17 18  1  0
 17 44  1  6
 18 23  1  0
 18 19  1  0
 18 45  1  6
 19 20  1  0
 19 46  1  0
 19 47  1  0
 20 21  1  0
 20 22  1  0
 20 48  1  6
 21 49  1  0
 22 23  1  0
 22 50  1  6
 23 51  1  1
M  END
>  <i_m_ct_stereo_status>  (109) 
1

>  <s_m_source_file>  (109) 
/var/tmp/pbs.5076255.sched01/tmpmqqk35eb/391x3533zq.sdf

>  <i_m_source_file_index>  (109) 
4

>  <i_lp_mmshare_version>  (109) 
48012

>  <i_f3d_flags>  (109) 
0

>  <s_epik_input>  (109) 
Tz1DKFtDSDJdMSlbQ0gyXVtDSDJdW0NIMl1bQ0BdMTJbQ0BASF0zW0NAQEhdNFtDQEhdNVtDQEBIXShbQ0gyXVtDSDJdNClbQ0BASF0oW0NIMl0zKVtDQEBIXTZbQ0BIXTVbQ0BASF03W0NASF0yW0NASF02W0NIMl1bQ0BIXTdbT0hd

>  <s_epik_cmdline>  (109) 
J2VwaWtfcHl0aG9uJywgJy1waHQnLCAnMi4wJywgJy1waCcsICc3LjAnLCAnLXRuJywgJzgnLCAnLW1hJywgJzIwMCcsICctaW1hZScsICc8aW5maWxlLm1hZT4nLCAnLW9tYWUnLCAnPG91dGZpbGUubWFlPic=

>  <r_lp_tautomer_probability>  (109) 
1

>  <r_epik_Ionization_Penalty>  (109) 
3.58094e-06

>  <r_epik_Ionization_Penalty_Charging>  (109) 
0

>  <r_epik_Ionization_Penalty_Neutral>  (109) 
3.58094e-06

>  <r_epik_State_Penalty>  (109) 
-0

>  <r_epik_Charging_Adjusted_Penalty>  (109) 
0

>  <i_epik_Tot_Q>  (109) 
0

>  <i_epik_Tot_abs_Q>  (109) 
0

>  <s_lp_Force_Field>  (109) 
OPLS3e

>  <r_lp_Energy>  (109) 
82.2072

>  <b_lp_Chiralities_Consistent>  (109) 
1

>  <s_lp_Variant>  (109) 
32:0-1

>  <s_i_glide_gridfile>  (109) 
pfpi4k_grid

>  <i_i_glide_lignum>  (109) 
4

>  <i_i_glide_rotatable_bonds>  (109) 
1

>  <r_i_docking_score>  (109) 
-3.47588

>  <r_i_glide_ligand_efficiency>  (109) 
-0.151125

>  <r_i_glide_ligand_efficiency_sa>  (109) 
-0.42978

>  <r_i_glide_ligand_efficiency_ln>  (109) 
-0.8405

>  <r_i_glide_gscore>  (109) 
-3.47588

>  <r_i_glide_lipo>  (109) 
-1.02875

>  <r_i_glide_hbond>  (109) 
0

>  <r_i_glide_metal>  (109) 
-0

>  <r_i_glide_rewards>  (109) 
-1.27878

>  <r_i_glide_evdw>  (109) 
-22.9398

>  <r_i_glide_ecoul>  (109) 
-0.140388

>  <r_i_glide_erotb>  (109) 
0

>  <r_i_glide_esite>  (109) 
-0.000310386

>  <r_i_glide_emodel>  (109) 
-28.8928

>  <r_i_glide_energy>  (109) 
-23.0802

>  <r_i_glide_einternal>  (109) 
0.325357

>  <r_i_glide_intrahb_reward>  (109) 
-0

>  <i_i_glide_confnum>  (109) 
4

>  <i_i_glide_posenum>  (109) 
21

>  <r_i_glide_eff_state_penalty>  (109) 
0

>  <ligand_id>  (109) 
32

>  <original_smiles>  (109) 
O=C1CCCC2(C1)C1CC3C4CCC1C4C1C3C3CC(O)C1C32

>  <smiles>  (109) 
[H]OC1([H])C([H])([H])C2([H])C3([H])C4([H])C([H])([H])C5([H])C6([H])C([H])([H])C([H])([H])C4([H])C6([H])C3([H])C1([H])C2([H])C51C([H])([H])C(=O)C([H])([H])C([H])([H])C1([H])[H]

$$$$
32:0:2
     RDKit          3D

 51 57  0  0  1  0  0  0  0  0999 V2000
    1.2425   -0.0458    3.0446 O   0  0  0  0  0  0  0  0  0  0  0  0
    2.4482    0.0277    2.8094 C   0  0  0  0  0  0  0  0  0  0  0  0
    3.4333    0.5859    3.8267 C   0  0  0  0  0  0  0  0  0  0  0  0
    4.6606   -0.3243    3.9764 C   0  0  0  0  0  0  0  0  0  0  0  0
    5.2732   -0.7340    2.6188 C   0  0  0  0  0  0  0  0  0  0  0  0
    4.2665   -1.3770    1.5935 C   0  0  1  0  0  0  0  0  0  0  0  0
    3.0282   -0.4251    1.4834 C   0  0  0  0  0  0  0  0  0  0  0  0
    4.9259   -1.4709    0.1907 C   0  0  1  0  0  0  0  0  0  0  0  0
    6.1957   -2.3579    0.1268 C   0  0  0  0  0  0  0  0  0  0  0  0
    5.8496   -3.8156   -0.2331 C   0  0  2  0  0  0  0  0  0  0  0  0
    5.0177   -3.8619   -1.5424 C   0  0  2  0  0  0  0  0  0  0  0  0
    5.3948   -2.8692   -2.6578 C   0  0  0  0  0  0  0  0  0  0  0  0
    4.5924   -1.5936   -2.3350 C   0  0  0  0  0  0  0  0  0  0  0  0
    3.9414   -1.8618   -0.9659 C   0  0  1  0  0  0  0  0  0  0  0  0
    3.6651   -3.3779   -1.0343 C   0  0  2  0  0  0  0  0  0  0  0  0
    3.4689   -4.1920    0.2569 C   0  0  1  0  0  0  0  0  0  0  0  0
    4.8857   -4.4769    0.7829 C   0  0  2  0  0  0  0  0  0  0  0  0
    4.8017   -3.9426    2.2408 C   0  0  2  0  0  0  0  0  0  0  0  0
    3.9412   -4.9463    3.0547 C   0  0  0  0  0  0  0  0  0  0  0  0
    2.5185   -4.7141    2.4926 C   0  0  1  0  0  0  0  0  0  0  0  0
    1.6090   -4.3294    3.5148 O   0  0  0  0  0  0  0  0  0  0  0  0
    2.7374   -3.5692    1.4673 C   0  0  1  0  0  0  0  0  0  0  0  0
    3.8174   -2.7636    2.1855 C   0  0  2  0  0  0  0  0  0  0  0  0
    3.7450    1.5669    3.4705 H   0  0  0  0  0  0  0  0  0  0  0  0
    2.9243    0.7238    4.7799 H   0  0  0  0  0  0  0  0  0  0  0  0
    5.4235    0.1989    4.5570 H   0  0  0  0  0  0  0  0  0  0  0  0
    4.3996   -1.2080    4.5678 H   0  0  0  0  0  0  0  0  0  0  0  0
    5.7193    0.1431    2.1591 H   0  0  0  0  0  0  0  0  0  0  0  0
    6.1118   -1.3909    2.8391 H   0  0  0  0  0  0  0  0  0  0  0  0
    2.2097   -0.8993    0.9352 H   0  0  0  0  0  0  0  0  0  0  0  0
    3.2920    0.4679    0.9117 H   0  0  0  0  0  0  0  0  0  0  0  0
    5.2684   -0.4546   -0.0395 H   0  0  0  0  0  0  0  0  0  0  0  0
    6.8745   -1.9579   -0.6259 H   0  0  0  0  0  0  0  0  0  0  0  0
    6.7898   -2.3204    1.0401 H   0  0  0  0  0  0  0  0  0  0  0  0
    6.7696   -4.3932   -0.3210 H   0  0  0  0  0  0  0  0  0  0  0  0
    4.9690   -4.8961   -1.9013 H   0  0  0  0  0  0  0  0  0  0  0  0
    6.4740   -2.6993   -2.7149 H   0  0  0  0  0  0  0  0  0  0  0  0
    5.0804   -3.2617   -3.6276 H   0  0  0  0  0  0  0  0  0  0  0  0
    5.2019   -0.6909   -2.3448 H   0  0  0  0  0  0  0  0  0  0  0  0
    3.8125   -1.4652   -3.0830 H   0  0  0  0  0  0  0  0  0  0  0  0
    3.0150   -1.2857   -0.9434 H   0  0  0  0  0  0  0  0  0  0  0  0
    2.8552   -3.5669   -1.7492 H   0  0  0  0  0  0  0  0  0  0  0  0
    2.9905   -5.1367   -0.0233 H   0  0  0  0  0  0  0  0  0  0  0  0
    5.0754   -5.5531    0.7789 H   0  0  0  0  0  0  0  0  0  0  0  0
    5.7716   -3.7437    2.7076 H   0  0  0  0  0  0  0  0  0  0  0  0
    4.2701   -5.9819    2.9342 H   0  0  0  0  0  0  0  0  0  0  0  0
    3.9978   -4.7227    4.1227 H   0  0  0  0  0  0  0  0  0  0  0  0
    2.1189   -5.6138    2.0278 H   0  0  0  0  0  0  0  0  0  0  0  0
    1.9429   -3.5601    3.9426 H   0  0  0  0  0  0  0  0  0  0  0  0
    1.8232   -3.0320    1.2211 H   0  0  0  0  0  0  0  0  0  0  0  0
    3.4570   -2.5448    3.1829 H   0  0  0  0  0  0  0  0  0  0  0  0
  1  2  2  0
  2  7  1  0
  2  3  1  0
  3  4  1  0
  3 24  1  0
  3 25  1  0
  4  5  1  0
  4 26  1  0
  4 27  1  0
  6  5  1  1
  5 28  1  0
  5 29  1  0
  6 23  1  0
  6  7  1  0
  6  8  1  0
  7 30  1  0
  7 31  1  0
  8 14  1  0
  8  9  1  0
  8 32  1  6
  9 10  1  0
  9 33  1  0
  9 34  1  0
 10 17  1  0
 10 11  1  0
 10 35  1  6
 11 15  1  0
 11 12  1  0
 11 36  1  6
 12 13  1  0
 12 37  1  0
 12 38  1  0
 13 14  1  0
 13 39  1  0
 13 40  1  0
 14 15  1  0
 14 41  1  1
 15 16  1  0
 15 42  1  6
 16 22  1  0
 16 17  1  0
 16 43  1  6
 17 18  1  0
 17 44  1  1
 18 23  1  0
 18 19  1  0
 18 45  1  1
 19 20  1  0
 19 46  1  0
 19 47  1  0
 20 21  1  0
 20 22  1  0
 20 48  1  6
 21 49  1  0
 22 23  1  0
 22 50  1  6
 23 51  1  1
M  END
>  <i_m_ct_stereo_status>  (110) 
1

>  <s_m_source_file>  (110) 
/var/tmp/pbs.5076255.sched01/tmpmqqk35eb/391x3533zq.sdf

>  <i_m_source_file_index>  (110) 
4

>  <i_lp_mmshare_version>  (110) 
48012

>  <i_f3d_flags>  (110) 
0

>  <s_epik_input>  (110) 
Tz1DKFtDSDJdMSlbQ0gyXVtDSDJdW0NIMl1bQ0BdMTJbQ0BASF0zW0NAQEhdNFtDQEhdNVtDQEBIXShbQ0gyXVtDSDJdNClbQ0BASF0oW0NIMl0zKVtDQEBIXTZbQ0BIXTVbQ0BASF03W0NASF0yW0NASF02W0NIMl1bQ0BIXTdbT0hd

>  <s_epik_cmdline>  (110) 
J2VwaWtfcHl0aG9uJywgJy1waHQnLCAnMi4wJywgJy1waCcsICc3LjAnLCAnLXRuJywgJzgnLCAnLW1hJywgJzIwMCcsICctaW1hZScsICc8aW5maWxlLm1hZT4nLCAnLW9tYWUnLCAnPG91dGZpbGUubWFlPic=

>  <r_lp_tautomer_probability>  (110) 
1

>  <r_epik_Ionization_Penalty>  (110) 
3.58094e-06

>  <r_epik_Ionization_Penalty_Charging>  (110) 
0

>  <r_epik_Ionization_Penalty_Neutral>  (110) 
3.58094e-06

>  <r_epik_State_Penalty>  (110) 
-0

>  <r_epik_Charging_Adjusted_Penalty>  (110) 
0

>  <i_epik_Tot_Q>  (110) 
0

>  <i_epik_Tot_abs_Q>  (110) 
0

>  <s_lp_Force_Field>  (110) 
OPLS3e

>  <r_lp_Energy>  (110) 
82.2072

>  <b_lp_Chiralities_Consistent>  (110) 
1

>  <s_lp_Variant>  (110) 
32:0-1

>  <s_i_glide_gridfile>  (110) 
pfpi4k_grid

>  <i_i_glide_lignum>  (110) 
4

>  <i_i_glide_rotatable_bonds>  (110) 
1

>  <r_i_docking_score>  (110) 
-3.10763

>  <r_i_glide_ligand_efficiency>  (110) 
-0.135114

>  <r_i_glide_ligand_efficiency_sa>  (110) 
-0.384247

>  <r_i_glide_ligand_efficiency_ln>  (110) 
-0.751453

>  <r_i_glide_gscore>  (110) 
-3.10763

>  <r_i_glide_lipo>  (110) 
-0.565631

>  <r_i_glide_hbond>  (110) 
0

>  <r_i_glide_metal>  (110) 
-0

>  <r_i_glide_rewards>  (110) 
-1.27878

>  <r_i_glide_evdw>  (110) 
-27.2497

>  <r_i_glide_ecoul>  (110) 
0.713694

>  <r_i_glide_erotb>  (110) 
0

>  <r_i_glide_esite>  (110) 
-0.00779007

>  <r_i_glide_emodel>  (110) 
-31.9302

>  <r_i_glide_energy>  (110) 
-26.536

>  <r_i_glide_einternal>  (110) 
0.000513847

>  <r_i_glide_intrahb_reward>  (110) 
-0

>  <i_i_glide_confnum>  (110) 
4

>  <i_i_glide_posenum>  (110) 
10

>  <r_i_glide_eff_state_penalty>  (110) 
0

>  <ligand_id>  (110) 
32

>  <original_smiles>  (110) 
O=C1CCCC2(C1)C1CC3C4CCC1C4C1C3C3CC(O)C1C32

>  <smiles>  (110) 
[H]OC1([H])C([H])([H])C2([H])C3([H])C4([H])C([H])([H])C5([H])C6([H])C([H])([H])C([H])([H])C4([H])C6([H])C3([H])C1([H])C2([H])C51C([H])([H])C(=O)C([H])([H])C([H])([H])C1([H])[H]

$$$$
33:0:0
     RDKit          3D

 17 18  0  0  1  0  0  0  0  0999 V2000
   -4.5279   -9.1067   -5.3701 C   0  0  0  0  0  0  0  0  0  0  0  0
   -5.4198   -7.9747   -5.5077 N   0  0  0  0  0  0  0  0  0  0  0  0
   -5.2991   -6.8531   -4.7230 N   0  0  0  0  0  0  0  0  0  0  0  0
   -6.3111   -6.1274   -5.1855 C   0  0  0  0  0  0  0  0  0  0  0  0
   -6.7012   -4.8459   -4.7626 C   0  0  0  0  0  0  0  0  0  0  0  0
   -7.8115   -4.2554   -5.4050 C   0  0  0  0  0  0  0  0  0  0  0  0
   -8.4950   -4.9258   -6.4458 C   0  0  0  0  0  0  0  0  0  0  0  0
   -8.0795   -6.2117   -6.8560 C   0  0  0  0  0  0  0  0  0  0  0  0
   -6.9807   -6.7882   -6.1949 C   0  0  0  0  0  0  0  0  0  0  0  0
   -6.4367   -7.9774   -6.4299 N   0  0  0  0  0  0  0  0  0  0  0  0
   -3.7899   -8.9217   -4.5897 H   0  0  0  0  0  0  0  0  0  0  0  0
   -4.0106   -9.2854   -6.3103 H   0  0  0  0  0  0  0  0  0  0  0  0
   -5.0904  -10.0035   -5.1127 H   0  0  0  0  0  0  0  0  0  0  0  0
   -6.1703   -4.3287   -3.9757 H   0  0  0  0  0  0  0  0  0  0  0  0
   -8.1357   -3.2693   -5.1128 H   0  0  0  0  0  0  0  0  0  0  0  0
   -9.3389   -4.4516   -6.9251 H   0  0  0  0  0  0  0  0  0  0  0  0
   -8.5984   -6.7390   -7.6431 H   0  0  0  0  0  0  0  0  0  0  0  0
  1  2  1  0
  1 11  1  0
  1 12  1  0
  1 13  1  0
  2 10  1  0
  2  3  1  0
  3  4  2  0
  4  9  1  0
  4  5  1  0
  5  6  2  0
  5 14  1  0
  6  7  1  0
  6 15  1  0
  7  8  2  0
  7 16  1  0
  8  9  1  0
  8 17  1  0
  9 10  2  0
M  END
>  <i_m_ct_stereo_status>  (111) 
1

>  <s_m_source_file>  (111) 
/var/tmp/pbs.5076255.sched01/tmpmqqk35eb/391x3533zq.sdf

>  <i_m_source_file_index>  (111) 
5

>  <i_lp_mmshare_version>  (111) 
48012

>  <i_f3d_flags>  (111) 
0

>  <s_epik_input>  (111) 
W0NIM11uKG4xKW5jKGMxMilbY0hdW2NIXVtjSF1bY0hdMg==

>  <s_epik_cmdline>  (111) 
J2VwaWtfcHl0aG9uJywgJy1waHQnLCAnMi4wJywgJy1waCcsICc3LjAnLCAnLXRuJywgJzgnLCAnLW1hJywgJzIwMCcsICctaW1hZScsICc8aW5maWxlLm1hZT4nLCAnLW9tYWUnLCAnPG91dGZpbGUubWFlPic=

>  <r_lp_tautomer_probability>  (111) 
1

>  <r_epik_Ionization_Penalty>  (111) 
3.76597e-11

>  <r_epik_Ionization_Penalty_Charging>  (111) 
0

>  <r_epik_Ionization_Penalty_Neutral>  (111) 
3.76597e-11

>  <r_epik_State_Penalty>  (111) 
-0

>  <r_epik_Charging_Adjusted_Penalty>  (111) 
0

>  <i_epik_Tot_Q>  (111) 
0

>  <i_epik_Tot_abs_Q>  (111) 
0

>  <s_lp_Force_Field>  (111) 
OPLS3e

>  <r_lp_Energy>  (111) 
7.31202

>  <b_lp_Chiralities_Consistent>  (111) 
1

>  <s_lp_Variant>  (111) 
33:0-1

>  <s_i_glide_gridfile>  (111) 
pfpi4k_grid

>  <i_i_glide_lignum>  (111) 
5

>  <i_i_glide_rotatable_bonds>  (111) 
0

>  <r_i_docking_score>  (111) 
-7.10281

>  <r_i_glide_ligand_efficiency>  (111) 
-0.710281

>  <r_i_glide_ligand_efficiency_sa>  (111) 
-1.53025

>  <r_i_glide_ligand_efficiency_ln>  (111) 
-2.15068

>  <r_i_glide_gscore>  (111) 
-7.10281

>  <r_i_glide_lipo>  (111) 
-1.83649

>  <r_i_glide_hbond>  (111) 
-0.00807809

>  <r_i_glide_metal>  (111) 
-0

>  <r_i_glide_rewards>  (111) 
-3.97409

>  <r_i_glide_evdw>  (111) 
-20.7779

>  <r_i_glide_ecoul>  (111) 
-1.63506

>  <r_i_glide_erotb>  (111) 
0

>  <r_i_glide_esite>  (111) 
0

>  <r_i_glide_emodel>  (111) 
-32.0611

>  <r_i_glide_energy>  (111) 
-22.4129

>  <r_i_glide_einternal>  (111) 
0

>  <r_i_glide_intrahb_reward>  (111) 
-0

>  <i_i_glide_confnum>  (111) 
1

>  <i_i_glide_posenum>  (111) 
1

>  <r_i_glide_eff_state_penalty>  (111) 
0

>  <ligand_id>  (111) 
33

>  <original_smiles>  (111) 
Cn1nc2ccccc2n1

>  <smiles>  (111) 
[H]c1c([H])c([H])c2nn(C([H])([H])[H])nc2c1[H]

$$$$
33:0:1
     RDKit          3D

 17 18  0  0  1  0  0  0  0  0999 V2000
   -6.0458   -9.5198   -7.6789 C   0  0  0  0  0  0  0  0  0  0  0  0
   -6.4182   -8.2884   -7.0131 N   0  0  0  0  0  0  0  0  0  0  0  0
   -5.7314   -7.8172   -5.9210 N   0  0  0  0  0  0  0  0  0  0  0  0
   -6.4159   -6.7058   -5.6684 C   0  0  0  0  0  0  0  0  0  0  0  0
   -6.1799   -5.7784   -4.6422 C   0  0  0  0  0  0  0  0  0  0  0  0
   -7.0285   -4.6527   -4.5574 C   0  0  0  0  0  0  0  0  0  0  0  0
   -8.0810   -4.4736   -5.4859 C   0  0  0  0  0  0  0  0  0  0  0  0
   -8.2973   -5.4195   -6.5127 C   0  0  0  0  0  0  0  0  0  0  0  0
   -7.4400   -6.5329   -6.5740 C   0  0  0  0  0  0  0  0  0  0  0  0
   -7.4717   -7.5267   -7.4559 N   0  0  0  0  0  0  0  0  0  0  0  0
   -5.1848   -9.9760   -7.1887 H   0  0  0  0  0  0  0  0  0  0  0  0
   -5.7886   -9.3121   -8.7175 H   0  0  0  0  0  0  0  0  0  0  0  0
   -6.8811  -10.2204   -7.6561 H   0  0  0  0  0  0  0  0  0  0  0  0
   -5.3782   -5.9219   -3.9355 H   0  0  0  0  0  0  0  0  0  0  0  0
   -6.8719   -3.9218   -3.7782 H   0  0  0  0  0  0  0  0  0  0  0  0
   -8.7250   -3.6106   -5.4031 H   0  0  0  0  0  0  0  0  0  0  0  0
   -9.1014   -5.2932   -7.2226 H   0  0  0  0  0  0  0  0  0  0  0  0
  1  2  1  0
  1 11  1  0
  1 12  1  0
  1 13  1  0
  2 10  1  0
  2  3  1  0
  3  4  2  0
  4  9  1  0
  4  5  1  0
  5  6  2  0
  5 14  1  0
  6  7  1  0
  6 15  1  0
  7  8  2  0
  7 16  1  0
  8  9  1  0
  8 17  1  0
  9 10  2  0
M  END
>  <i_m_ct_stereo_status>  (112) 
1

>  <s_m_source_file>  (112) 
/var/tmp/pbs.5076255.sched01/tmpmqqk35eb/391x3533zq.sdf

>  <i_m_source_file_index>  (112) 
5

>  <i_lp_mmshare_version>  (112) 
48012

>  <i_f3d_flags>  (112) 
0

>  <s_epik_input>  (112) 
W0NIM11uKG4xKW5jKGMxMilbY0hdW2NIXVtjSF1bY0hdMg==

>  <s_epik_cmdline>  (112) 
J2VwaWtfcHl0aG9uJywgJy1waHQnLCAnMi4wJywgJy1waCcsICc3LjAnLCAnLXRuJywgJzgnLCAnLW1hJywgJzIwMCcsICctaW1hZScsICc8aW5maWxlLm1hZT4nLCAnLW9tYWUnLCAnPG91dGZpbGUubWFlPic=

>  <r_lp_tautomer_probability>  (112) 
1

>  <r_epik_Ionization_Penalty>  (112) 
3.76597e-11

>  <r_epik_Ionization_Penalty_Charging>  (112) 
0

>  <r_epik_Ionization_Penalty_Neutral>  (112) 
3.76597e-11

>  <r_epik_State_Penalty>  (112) 
-0

>  <r_epik_Charging_Adjusted_Penalty>  (112) 
0

>  <i_epik_Tot_Q>  (112) 
0

>  <i_epik_Tot_abs_Q>  (112) 
0

>  <s_lp_Force_Field>  (112) 
OPLS3e

>  <r_lp_Energy>  (112) 
7.31202

>  <b_lp_Chiralities_Consistent>  (112) 
1

>  <s_lp_Variant>  (112) 
33:0-1

>  <s_i_glide_gridfile>  (112) 
pfpi4k_grid

>  <i_i_glide_lignum>  (112) 
5

>  <i_i_glide_rotatable_bonds>  (112) 
0

>  <r_i_docking_score>  (112) 
-5.7611

>  <r_i_glide_ligand_efficiency>  (112) 
-0.57611

>  <r_i_glide_ligand_efficiency_sa>  (112) 
-1.24119

>  <r_i_glide_ligand_efficiency_ln>  (112) 
-1.74442

>  <r_i_glide_gscore>  (112) 
-5.7611

>  <r_i_glide_lipo>  (112) 
-1.92505

>  <r_i_glide_hbond>  (112) 
0

>  <r_i_glide_metal>  (112) 
-0

>  <r_i_glide_rewards>  (112) 
-2.92287

>  <r_i_glide_evdw>  (112) 
-19.2655

>  <r_i_glide_ecoul>  (112) 
0.333991

>  <r_i_glide_erotb>  (112) 
0

>  <r_i_glide_esite>  (112) 
0

>  <r_i_glide_emodel>  (112) 
-26.7576

>  <r_i_glide_energy>  (112) 
-18.9315

>  <r_i_glide_einternal>  (112) 
0

>  <r_i_glide_intrahb_reward>  (112) 
-0

>  <i_i_glide_confnum>  (112) 
2

>  <i_i_glide_posenum>  (112) 
5

>  <r_i_glide_eff_state_penalty>  (112) 
0

>  <ligand_id>  (112) 
33

>  <original_smiles>  (112) 
Cn1nc2ccccc2n1

>  <smiles>  (112) 
[H]c1c([H])c([H])c2nn(C([H])([H])[H])nc2c1[H]

$$$$
33:0:2
     RDKit          3D

 17 18  0  0  1  0  0  0  0  0999 V2000
   -1.8753   -9.0679    2.4942 C   0  0  0  0  0  0  0  0  0  0  0  0
   -1.0356   -8.0122    3.0204 N   0  0  0  0  0  0  0  0  0  0  0  0
   -1.1204   -7.5998    4.3282 N   0  0  0  0  0  0  0  0  0  0  0  0
   -0.1779   -6.6645    4.3519 C   0  0  0  0  0  0  0  0  0  0  0  0
    0.2041   -5.8680    5.4450 C   0  0  0  0  0  0  0  0  0  0  0  0
    1.2163   -4.9031    5.2382 C   0  0  0  0  0  0  0  0  0  0  0  0
    1.8201   -4.7552    3.9663 C   0  0  0  0  0  0  0  0  0  0  0  0
    1.4194   -5.5700    2.8825 C   0  0  0  0  0  0  0  0  0  0  0  0
    0.4099   -6.5201    3.1134 C   0  0  0  0  0  0  0  0  0  0  0  0
   -0.1341   -7.3457    2.2248 N   0  0  0  0  0  0  0  0  0  0  0  0
   -2.5333   -9.4536    3.2736 H   0  0  0  0  0  0  0  0  0  0  0  0
   -1.2599   -9.8845    2.1135 H   0  0  0  0  0  0  0  0  0  0  0  0
   -2.4885   -8.6798    1.6821 H   0  0  0  0  0  0  0  0  0  0  0  0
   -0.2598   -5.9895    6.4122 H   0  0  0  0  0  0  0  0  0  0  0  0
    1.5396   -4.2812    6.0589 H   0  0  0  0  0  0  0  0  0  0  0  0
    2.5932   -4.0153    3.8230 H   0  0  0  0  0  0  0  0  0  0  0  0
    1.8725   -5.4579    1.9093 H   0  0  0  0  0  0  0  0  0  0  0  0
  1  2  1  0
  1 11  1  0
  1 12  1  0
  1 13  1  0
  2 10  1  0
  2  3  1  0
  3  4  2  0
  4  9  1  0
  4  5  1  0
  5  6  2  0
  5 14  1  0
  6  7  1  0
  6 15  1  0
  7  8  2  0
  7 16  1  0
  8  9  1  0
  8 17  1  0
  9 10  2  0
M  END
>  <i_m_ct_stereo_status>  (113) 
1

>  <s_m_source_file>  (113) 
/var/tmp/pbs.5076255.sched01/tmpmqqk35eb/391x3533zq.sdf

>  <i_m_source_file_index>  (113) 
5

>  <i_lp_mmshare_version>  (113) 
48012

>  <i_f3d_flags>  (113) 
0

>  <s_epik_input>  (113) 
W0NIM11uKG4xKW5jKGMxMilbY0hdW2NIXVtjSF1bY0hdMg==

>  <s_epik_cmdline>  (113) 
J2VwaWtfcHl0aG9uJywgJy1waHQnLCAnMi4wJywgJy1waCcsICc3LjAnLCAnLXRuJywgJzgnLCAnLW1hJywgJzIwMCcsICctaW1hZScsICc8aW5maWxlLm1hZT4nLCAnLW9tYWUnLCAnPG91dGZpbGUubWFlPic=

>  <r_lp_tautomer_probability>  (113) 
1

>  <r_epik_Ionization_Penalty>  (113) 
3.76597e-11

>  <r_epik_Ionization_Penalty_Charging>  (113) 
0

>  <r_epik_Ionization_Penalty_Neutral>  (113) 
3.76597e-11

>  <r_epik_State_Penalty>  (113) 
-0

>  <r_epik_Charging_Adjusted_Penalty>  (113) 
0

>  <i_epik_Tot_Q>  (113) 
0

>  <i_epik_Tot_abs_Q>  (113) 
0

>  <s_lp_Force_Field>  (113) 
OPLS3e

>  <r_lp_Energy>  (113) 
7.31202

>  <b_lp_Chiralities_Consistent>  (113) 
1

>  <s_lp_Variant>  (113) 
33:0-1

>  <s_i_glide_gridfile>  (113) 
pfpi4k_grid

>  <i_i_glide_lignum>  (113) 
5

>  <i_i_glide_rotatable_bonds>  (113) 
0

>  <r_i_docking_score>  (113) 
-3.31684

>  <r_i_glide_ligand_efficiency>  (113) 
-0.331684

>  <r_i_glide_ligand_efficiency_sa>  (113) 
-0.714591

>  <r_i_glide_ligand_efficiency_ln>  (113) 
-1.00432

>  <r_i_glide_gscore>  (113) 
-3.31684

>  <r_i_glide_lipo>  (113) 
-0.240418

>  <r_i_glide_hbond>  (113) 
0

>  <r_i_glide_metal>  (113) 
-0

>  <r_i_glide_rewards>  (113) 
-2.25

>  <r_i_glide_evdw>  (113) 
-14.1079

>  <r_i_glide_ecoul>  (113) 
-0.40522

>  <r_i_glide_erotb>  (113) 
0

>  <r_i_glide_esite>  (113) 
-0.0602433

>  <r_i_glide_emodel>  (113) 
-19.0174

>  <r_i_glide_energy>  (113) 
-14.5131

>  <r_i_glide_einternal>  (113) 
0

>  <r_i_glide_intrahb_reward>  (113) 
-0

>  <i_i_glide_confnum>  (113) 
2

>  <i_i_glide_posenum>  (113) 
3

>  <r_i_glide_eff_state_penalty>  (113) 
0

>  <ligand_id>  (113) 
33

>  <original_smiles>  (113) 
Cn1nc2ccccc2n1

>  <smiles>  (113) 
[H]c1c([H])c([H])c2nn(C([H])([H])[H])nc2c1[H]

$$$$
35:0:0
     RDKit          3D

 58 63  0  0  1  0  0  0  0  0999 V2000
    1.0220   -1.2469    2.8453 C   0  0  0  0  0  0  0  0  0  0  0  0
    0.6965    0.2031    3.2449 C   0  0  1  0  0  0  0  0  0  0  0  0
    0.3972    0.1880    4.7675 C   0  0  0  0  0  0  0  0  0  0  0  0
    0.3744    1.5378    5.5817 C   0  0  2  0  0  0  0  0  0  0  0  0
   -0.4787    2.6537    4.8644 C   0  0  1  0  0  0  0  0  0  0  0  0
   -1.7654    2.1035    4.6407 O   0  0  0  0  0  0  0  0  0  0  0  0
   -0.9573    3.8227    5.7849 C   0  0  0  0  0  0  0  0  0  0  0  0
   -0.3113    5.1838    5.5139 C   0  0  0  0  0  0  0  0  0  0  0  0
    1.1196    5.0711    4.9864 C   0  0  1  0  0  0  0  0  0  0  0  0
    1.7061    6.4997    4.9478 C   0  0  0  0  0  0  0  0  0  0  0  0
    1.9050    4.3897    5.9624 O   0  0  0  0  0  0  0  0  0  0  0  0
    2.5567    3.1288    5.7197 C   0  0  2  0  0  0  0  0  0  0  0  0
    3.8387    3.4096    6.5466 C   0  0  0  0  0  0  0  0  0  0  0  0
    3.0358    2.9643    4.2130 C   0  0  1  0  0  0  0  0  0  0  0  0
    2.9396    1.6104    3.5133 C   0  0  0  0  0  0  0  0  0  0  0  0
    1.6860    1.2274    2.7312 C   0  0  2  0  0  0  0  0  0  0  0  0
    0.5573    2.1742    2.4901 N   0  0  1  0  0  0  0  0  0  0  0  0
   -0.2743    0.9627    2.3164 C   0  0  0  0  0  0  0  0  0  0  0  0
    0.1110    3.1692    3.5122 C   0  0  2  0  0  0  0  0  0  0  0  0
    1.1062    4.3719    3.6099 C   0  0  2  0  0  0  0  0  0  0  0  0
    2.5505    4.0500    3.2646 C   0  0  0  0  0  0  0  0  0  0  0  0
    1.6775    1.9810    6.3970 C   0  0  0  0  0  0  0  0  0  0  0  0
    1.2558    2.4610    7.8368 C   0  0  0  0  0  0  0  0  0  0  0  0
    2.5155    0.7248    6.7969 C   0  0  0  0  0  0  0  0  0  0  0  0
    0.2117   -1.9401    3.0787 H   0  0  0  0  0  0  0  0  0  0  0  0
    1.9116   -1.6271    3.3557 H   0  0  0  0  0  0  0  0  0  0  0  0
    1.2175   -1.3369    1.7764 H   0  0  0  0  0  0  0  0  0  0  0  0
   -0.5934   -0.2534    4.8763 H   0  0  0  0  0  0  0  0  0  0  0  0
    1.0153   -0.5625    5.2604 H   0  0  0  0  0  0  0  0  0  0  0  0
   -0.2932    1.2336    6.3842 H   0  0  0  0  0  0  0  0  0  0  0  0
   -1.7138    1.4076    4.0006 H   0  0  0  0  0  0  0  0  0  0  0  0
   -2.0381    4.0061    5.7174 H   0  0  0  0  0  0  0  0  0  0  0  0
   -0.8497    3.5593    6.8263 H   0  0  0  0  0  0  0  0  0  0  0  0
   -0.8986    5.7024    4.7587 H   0  0  0  0  0  0  0  0  0  0  0  0
   -0.3614    5.7999    6.4176 H   0  0  0  0  0  0  0  0  0  0  0  0
    1.2274    7.1251    4.1871 H   0  0  0  0  0  0  0  0  0  0  0  0
    2.7813    6.5055    4.7525 H   0  0  0  0  0  0  0  0  0  0  0  0
    1.5801    7.0036    5.9079 H   0  0  0  0  0  0  0  0  0  0  0  0
    4.5589    2.5941    6.4989 H   0  0  0  0  0  0  0  0  0  0  0  0
    3.6343    3.6146    7.6010 H   0  0  0  0  0  0  0  0  0  0  0  0
    4.3464    4.2994    6.1767 H   0  0  0  0  0  0  0  0  0  0  0  0
    4.1116    3.1275    4.2357 H   0  0  0  0  0  0  0  0  0  0  0  0
    3.7462    1.6094    2.7866 H   0  0  0  0  0  0  0  0  0  0  0  0
    3.2663    0.7955    4.1374 H   0  0  0  0  0  0  0  0  0  0  0  0
    2.0021    0.9038    1.7344 H   0  0  0  0  0  0  0  0  0  0  0  0
   -0.2010    0.5928    1.2954 H   0  0  0  0  0  0  0  0  0  0  0  0
   -1.3107    0.9608    2.6120 H   0  0  0  0  0  0  0  0  0  0  0  0
   -0.7557    3.6224    3.0109 H   0  0  0  0  0  0  0  0  0  0  0  0
    0.7787    5.1195    2.8796 H   0  0  0  0  0  0  0  0  0  0  0  0
    3.1826    4.9288    3.3619 H   0  0  0  0  0  0  0  0  0  0  0  0
    2.6603    3.7618    2.2220 H   0  0  0  0  0  0  0  0  0  0  0  0
    2.0742    2.3962    8.5523 H   0  0  0  0  0  0  0  0  0  0  0  0
    0.4646    1.8494    8.2727 H   0  0  0  0  0  0  0  0  0  0  0  0
    0.9326    3.4949    7.9003 H   0  0  0  0  0  0  0  0  0  0  0  0
    3.3476    0.9621    7.4568 H   0  0  0  0  0  0  0  0  0  0  0  0
    2.9449    0.1594    5.9850 H   0  0  0  0  0  0  0  0  0  0  0  0
    1.8956    0.0209    7.3526 H   0  0  0  0  0  0  0  0  0  0  0  0
    0.6391    2.6646    1.6410 H   0  0  0  0  0  0  0  0  0  0  0  0
  2  1  1  6
  1 25  1  0
  1 26  1  0
  1 27  1  0
  2 16  1  0
  2 18  1  0
  2  3  1  0
  3  4  1  0
  3 28  1  0
  3 29  1  0
  4 22  1  0
  4  5  1  0
  4 30  1  1
  5 19  1  0
  5  6  1  6
  5  7  1  0
  6 31  1  0
  7  8  1  0
  7 32  1  0
  7 33  1  0
  8  9  1  0
  8 34  1  0
  8 35  1  0
  9 20  1  0
  9 10  1  6
  9 11  1  0
 10 36  1  0
 10 37  1  0
 10 38  1  0
 11 12  1  0
 12 13  1  1
 12 14  1  0
 12 22  1  0
 13 39  1  0
 13 40  1  0
 13 41  1  0
 14 21  1  0
 14 15  1  0
 14 42  1  1
 15 16  1  0
 15 43  1  0
 15 44  1  0
 16 17  1  0
 16 45  1  6
 17 18  1  0
 17 19  1  0
 17 58  1  6
 18 46  1  0
 18 47  1  0
 19 20  1  0
 19 48  1  6
 20 21  1  0
 20 49  1  6
 21 50  1  0
 21 51  1  0
 22 23  1  0
 22 24  1  0
 23 52  1  0
 23 53  1  0
 23 54  1  0
 24 55  1  0
 24 56  1  0
 24 57  1  0
M  CHG  1  17   1
M  END
>  <i_m_ct_stereo_status>  (114) 
1

>  <s_m_source_file>  (114) 
/var/tmp/pbs.5076255.sched01/tmpmqqk35eb/391x3533zq.sdf

>  <i_m_source_file_index>  (114) 
7

>  <i_lp_mmshare_version>  (114) 
48012

>  <i_f3d_flags>  (114) 
0

>  <s_epik_input>  (114) 
W0NIM11bQ0BdMTJbQ0BIXTNOKFtDSDJdMilbQ0BIXTRbQ0BAXTUoW09IXSlbQ0BASF0oW0NIMl0xKUMoW0NIM10pKFtDSDNdKVtDQEBdNihbQ0gzXSlbQ0BASF0oW0NIMl0zKVtDSDJdW0NAQEhdNFtDQEBdKE82KShbQ0gzXSlbQ0gyXVtDSDJdNQ==

>  <s_epik_cmdline>  (114) 
J2VwaWtfcHl0aG9uJywgJy1waHQnLCAnMi4wJywgJy1waCcsICc3LjAnLCAnLXRuJywgJzgnLCAnLW1hJywgJzIwMCcsICctaW1hZScsICc8aW5maWxlLm1hZT4nLCAnLW9tYWUnLCAnPG91dGZpbGUubWFlPic=

>  <r_lp_tautomer_probability>  (114) 
1

>  <r_epik_Ionization_Penalty>  (114) 
0.00010261

>  <r_epik_Ionization_Penalty_Charging>  (114) 
0.000102604

>  <r_epik_Ionization_Penalty_Neutral>  (114) 
6.36818e-09

>  <r_epik_State_Penalty>  (114) 
-0

>  <r_epik_Charging_Adjusted_Penalty>  (114) 
0.000102604

>  <i_epik_Tot_Q>  (114) 
1

>  <i_epik_Tot_abs_Q>  (114) 
1

>  <s_lp_Force_Field>  (114) 
OPLS3e

>  <r_lp_Energy>  (114) 
118.039

>  <b_lp_Chiralities_Consistent>  (114) 
1

>  <s_lp_Variant>  (114) 
35:0-1

>  <s_i_glide_gridfile>  (114) 
pfpi4k_grid

>  <i_i_glide_lignum>  (114) 
7

>  <i_i_glide_rotatable_bonds>  (114) 
1

>  <r_i_docking_score>  (114) 
-3.04564

>  <r_i_glide_ligand_efficiency>  (114) 
-0.126902

>  <r_i_glide_ligand_efficiency_sa>  (114) 
-0.366047

>  <r_i_glide_ligand_efficiency_ln>  (114) 
-0.728961

>  <r_i_glide_gscore>  (114) 
-3.04564

>  <r_i_glide_lipo>  (114) 
0

>  <r_i_glide_hbond>  (114) 
-0.17233

>  <r_i_glide_metal>  (114) 
-0

>  <r_i_glide_rewards>  (114) 
-1.14204

>  <r_i_glide_evdw>  (114) 
-14.3474

>  <r_i_glide_ecoul>  (114) 
-6.10664

>  <r_i_glide_erotb>  (114) 
0

>  <r_i_glide_esite>  (114) 
-0.0978952

>  <r_i_glide_emodel>  (114) 
-25.5495

>  <r_i_glide_energy>  (114) 
-20.4541

>  <r_i_glide_einternal>  (114) 
0.196327

>  <r_i_glide_intrahb_reward>  (114) 
-0

>  <i_i_glide_confnum>  (114) 
2

>  <i_i_glide_posenum>  (114) 
31

>  <r_i_glide_eff_state_penalty>  (114) 
0

>  <ligand_id>  (114) 
35

>  <original_smiles>  (114) 
CC12CC3C4(O)CCC5(C)OC(C)(C6CC1N(C2)C4C5C6)C3(C)C

>  <smiles>  (114) 
[H]OC12C([H])([H])C([H])([H])C3(C([H])([H])[H])OC4(C([H])([H])[H])C5([H])C([H])([H])C3([H])C1([H])[N+]1([H])C([H])([H])C(C([H])([H])[H])(C([H])([H])C2([H])C4(C([H])([H])[H])C([H])([H])[H])C1([H])C5([H])[H]

$$$$
35:0:1
     RDKit          3D

 58 63  0  0  1  0  0  0  0  0999 V2000
    1.2173   -1.5659    3.3475 C   0  0  0  0  0  0  0  0  0  0  0  0
    1.1629   -0.0304    3.3773 C   0  0  1  0  0  0  0  0  0  0  0  0
   -0.1002    0.3714    4.1708 C   0  0  0  0  0  0  0  0  0  0  0  0
   -0.2797    1.8583    4.6824 C   0  0  2  0  0  0  0  0  0  0  0  0
    0.0124    2.9198    3.5660 C   0  0  1  0  0  0  0  0  0  0  0  0
   -0.8172    2.5441    2.4776 O   0  0  0  0  0  0  0  0  0  0  0  0
   -0.5921    4.3409    3.8008 C   0  0  0  0  0  0  0  0  0  0  0  0
    0.4260    5.4503    4.0797 C   0  0  0  0  0  0  0  0  0  0  0  0
    1.6797    4.9412    4.7918 C   0  0  1  0  0  0  0  0  0  0  0  0
    2.5244    6.1751    5.1939 C   0  0  0  0  0  0  0  0  0  0  0  0
    1.2937    4.3586    6.0394 O   0  0  0  0  0  0  0  0  0  0  0  0
    1.5047    2.9722    6.3765 C   0  0  2  0  0  0  0  0  0  0  0  0
    1.8293    3.1824    7.8813 C   0  0  0  0  0  0  0  0  0  0  0  0
    2.8232    2.3769    5.7246 C   0  0  1  0  0  0  0  0  0  0  0  0
    2.8625    0.9415    5.1963 C   0  0  0  0  0  0  0  0  0  0  0  0
    2.4724    0.6427    3.7441 C   0  0  2  0  0  0  0  0  0  0  0  0
    2.1818    1.6903    2.7432 N   0  0  1  0  0  0  0  0  0  0  0  0
    1.4106    0.6672    2.0247 C   0  0  0  0  0  0  0  0  0  0  0  0
    1.5034    2.9793    3.0792 C   0  0  2  0  0  0  0  0  0  0  0  0
    2.4336    3.9613    3.8656 C   0  0  2  0  0  0  0  0  0  0  0  0
    3.5006    3.2879    4.7127 C   0  0  0  0  0  0  0  0  0  0  0  0
    0.1149    2.2086    6.1923 C   0  0  0  0  0  0  0  0  0  0  0  0
   -1.0242    3.0794    6.8408 C   0  0  0  0  0  0  0  0  0  0  0  0
   -0.0054    0.9387    7.0915 C   0  0  0  0  0  0  0  0  0  0  0  0
    0.3300   -2.0008    2.8873 H   0  0  0  0  0  0  0  0  0  0  0  0
    1.3126   -1.9827    4.3523 H   0  0  0  0  0  0  0  0  0  0  0  0
    2.0780   -1.9305    2.7803 H   0  0  0  0  0  0  0  0  0  0  0  0
   -0.9427    0.1748    3.5075 H   0  0  0  0  0  0  0  0  0  0  0  0
   -0.2788   -0.3525    4.9634 H   0  0  0  0  0  0  0  0  0  0  0  0
   -1.3680    1.8735    4.7346 H   0  0  0  0  0  0  0  0  0  0  0  0
   -0.6373    3.1669    1.7610 H   0  0  0  0  0  0  0  0  0  0  0  0
   -1.1768    4.6966    2.9430 H   0  0  0  0  0  0  0  0  0  0  0  0
   -1.3341    4.3085    4.5898 H   0  0  0  0  0  0  0  0  0  0  0  0
    0.7276    5.8985    3.1293 H   0  0  0  0  0  0  0  0  0  0  0  0
   -0.0461    6.2563    4.6455 H   0  0  0  0  0  0  0  0  0  0  0  0
    2.9354    6.6911    4.3245 H   0  0  0  0  0  0  0  0  0  0  0  0
    3.3492    5.9235    5.8604 H   0  0  0  0  0  0  0  0  0  0  0  0
    1.9160    6.8995    5.7407 H   0  0  0  0  0  0  0  0  0  0  0  0
    2.0820    2.2512    8.3891 H   0  0  0  0  0  0  0  0  0  0  0  0
    1.0208    3.6588    8.4338 H   0  0  0  0  0  0  0  0  0  0  0  0
    2.6885    3.8450    7.9984 H   0  0  0  0  0  0  0  0  0  0  0  0
    3.5527    2.3293    6.5346 H   0  0  0  0  0  0  0  0  0  0  0  0
    3.9070    0.6396    5.2945 H   0  0  0  0  0  0  0  0  0  0  0  0
    2.3868    0.2445    5.8649 H   0  0  0  0  0  0  0  0  0  0  0  0
    3.2790    0.0448    3.3094 H   0  0  0  0  0  0  0  0  0  0  0  0
    2.0537    0.0771    1.3711 H   0  0  0  0  0  0  0  0  0  0  0  0
    0.5343    0.9560    1.4556 H   0  0  0  0  0  0  0  0  0  0  0  0
    1.4436    3.4404    2.0953 H   0  0  0  0  0  0  0  0  0  0  0  0
    2.9671    4.5539    3.1192 H   0  0  0  0  0  0  0  0  0  0  0  0
    4.1095    4.0243    5.2367 H   0  0  0  0  0  0  0  0  0  0  0  0
    4.2116    2.7426    4.0974 H   0  0  0  0  0  0  0  0  0  0  0  0
   -1.0225    3.0218    7.9294 H   0  0  0  0  0  0  0  0  0  0  0  0
   -2.0232    2.7531    6.5515 H   0  0  0  0  0  0  0  0  0  0  0  0
   -0.9625    4.1441    6.6341 H   0  0  0  0  0  0  0  0  0  0  0  0
    0.1361    1.1533    8.1511 H   0  0  0  0  0  0  0  0  0  0  0  0
    0.6749    0.1300    6.8669 H   0  0  0  0  0  0  0  0  0  0  0  0
   -1.0077    0.5193    7.0087 H   0  0  0  0  0  0  0  0  0  0  0  0
    3.0216    1.9132    2.2290 H   0  0  0  0  0  0  0  0  0  0  0  0
  2  1  1  6
  1 25  1  0
  1 26  1  0
  1 27  1  0
  2 16  1  0
  2 18  1  0
  2  3  1  0
  3  4  1  0
  3 28  1  0
  3 29  1  0
  4 22  1  0
  4  5  1  0
  4 30  1  1
  5 19  1  0
  5  6  1  6
  5  7  1  0
  6 31  1  0
  7  8  1  0
  7 32  1  0
  7 33  1  0
  8  9  1  0
  8 34  1  0
  8 35  1  0
  9 20  1  0
  9 10  1  1
  9 11  1  0
 10 36  1  0
 10 37  1  0
 10 38  1  0
 11 12  1  0
 12 13  1  1
 12 14  1  0
 12 22  1  0
 13 39  1  0
 13 40  1  0
 13 41  1  0
 14 21  1  0
 14 15  1  0
 14 42  1  1
 15 16  1  0
 15 43  1  0
 15 44  1  0
 16 17  1  0
 16 45  1  6
 17 18  1  0
 17 19  1  0
 17 58  1  6
 18 46  1  0
 18 47  1  0
 19 20  1  0
 19 48  1  6
 20 21  1  0
 20 49  1  6
 21 50  1  0
 21 51  1  0
 22 23  1  0
 22 24  1  0
 23 52  1  0
 23 53  1  0
 23 54  1  0
 24 55  1  0
 24 56  1  0
 24 57  1  0
M  CHG  1  17   1
M  END
>  <i_m_ct_stereo_status>  (115) 
1

>  <s_m_source_file>  (115) 
/var/tmp/pbs.5076255.sched01/tmpmqqk35eb/391x3533zq.sdf

>  <i_m_source_file_index>  (115) 
7

>  <i_lp_mmshare_version>  (115) 
48012

>  <i_f3d_flags>  (115) 
0

>  <s_epik_input>  (115) 
W0NIM11bQ0BdMTJbQ0BIXTNOKFtDSDJdMilbQ0BIXTRbQ0BAXTUoW09IXSlbQ0BASF0oW0NIMl0xKUMoW0NIM10pKFtDSDNdKVtDQEBdNihbQ0gzXSlbQ0BASF0oW0NIMl0zKVtDSDJdW0NAQEhdNFtDQEBdKE82KShbQ0gzXSlbQ0gyXVtDSDJdNQ==

>  <s_epik_cmdline>  (115) 
J2VwaWtfcHl0aG9uJywgJy1waHQnLCAnMi4wJywgJy1waCcsICc3LjAnLCAnLXRuJywgJzgnLCAnLW1hJywgJzIwMCcsICctaW1hZScsICc8aW5maWxlLm1hZT4nLCAnLW9tYWUnLCAnPG91dGZpbGUubWFlPic=

>  <r_lp_tautomer_probability>  (115) 
1

>  <r_epik_Ionization_Penalty>  (115) 
0.00010261

>  <r_epik_Ionization_Penalty_Charging>  (115) 
0.000102604

>  <r_epik_Ionization_Penalty_Neutral>  (115) 
6.36818e-09

>  <r_epik_State_Penalty>  (115) 
-0

>  <r_epik_Charging_Adjusted_Penalty>  (115) 
0.000102604

>  <i_epik_Tot_Q>  (115) 
1

>  <i_epik_Tot_abs_Q>  (115) 
1

>  <s_lp_Force_Field>  (115) 
OPLS3e

>  <r_lp_Energy>  (115) 
118.039

>  <b_lp_Chiralities_Consistent>  (115) 
1

>  <s_lp_Variant>  (115) 
35:0-1

>  <s_i_glide_gridfile>  (115) 
pfpi4k_grid

>  <i_i_glide_lignum>  (115) 
7

>  <i_i_glide_rotatable_bonds>  (115) 
1

>  <r_i_docking_score>  (115) 
-3.00837

>  <r_i_glide_ligand_efficiency>  (115) 
-0.125349

>  <r_i_glide_ligand_efficiency_sa>  (115) 
-0.361568

>  <r_i_glide_ligand_efficiency_ln>  (115) 
-0.72004

>  <r_i_glide_gscore>  (115) 
-3.00837

>  <r_i_glide_lipo>  (115) 
-0.00806787

>  <r_i_glide_hbond>  (115) 
-0.16

>  <r_i_glide_metal>  (115) 
-0

>  <r_i_glide_rewards>  (115) 
-1.14204

>  <r_i_glide_evdw>  (115) 
-13.0235

>  <r_i_glide_ecoul>  (115) 
-6.98053

>  <r_i_glide_erotb>  (115) 
0

>  <r_i_glide_esite>  (115) 
0

>  <r_i_glide_emodel>  (115) 
-25.2025

>  <r_i_glide_energy>  (115) 
-20.004

>  <r_i_glide_einternal>  (115) 
0.0632105

>  <r_i_glide_intrahb_reward>  (115) 
-0

>  <i_i_glide_confnum>  (115) 
2

>  <i_i_glide_posenum>  (115) 
14

>  <r_i_glide_eff_state_penalty>  (115) 
0

>  <ligand_id>  (115) 
35

>  <original_smiles>  (115) 
CC12CC3C4(O)CCC5(C)OC(C)(C6CC1N(C2)C4C5C6)C3(C)C

>  <smiles>  (115) 
[H]OC12C([H])([H])C([H])([H])C3(C([H])([H])[H])OC4(C([H])([H])[H])C5([H])C([H])([H])C3([H])C1([H])[N+]1([H])C([H])([H])C(C([H])([H])[H])(C([H])([H])C2([H])C4(C([H])([H])[H])C([H])([H])[H])C1([H])C5([H])[H]

$$$$
35:0:2
     RDKit          3D

 58 63  0  0  1  0  0  0  0  0999 V2000
    1.0913   -1.1698    2.5364 C   0  0  0  0  0  0  0  0  0  0  0  0
    0.6692    0.1968    3.0937 C   0  0  1  0  0  0  0  0  0  0  0  0
    0.6255    0.0566    4.6331 C   0  0  0  0  0  0  0  0  0  0  0  0
    0.5632    1.3435    5.5460 C   0  0  2  0  0  0  0  0  0  0  0  0
   -0.5289    2.3613    5.0651 C   0  0  1  0  0  0  0  0  0  0  0  0
   -1.7279    1.5968    4.9913 O   0  0  0  0  0  0  0  0  0  0  0  0
   -0.9992    3.4003    6.1343 C   0  0  0  0  0  0  0  0  0  0  0  0
   -0.5735    4.8488    5.8777 C   0  0  0  0  0  0  0  0  0  0  0  0
    0.7542    4.9674    5.1303 C   0  0  1  0  0  0  0  0  0  0  0  0
    1.1489    6.4629    5.1145 C   0  0  0  0  0  0  0  0  0  0  0  0
    1.7712    4.3409    5.9144 O   0  0  0  0  0  0  0  0  0  0  0  0
    2.5276    3.1964    5.4696 C   0  0  2  0  0  0  0  0  0  0  0  0
    3.8833    3.5998    6.1076 C   0  0  0  0  0  0  0  0  0  0  0  0
    2.7658    3.1926    3.9014 C   0  0  1  0  0  0  0  0  0  0  0  0
    2.7319    1.8840    3.1067 C   0  0  0  0  0  0  0  0  0  0  0  0
    1.4153    1.3779    2.5101 C   0  0  2  0  0  0  0  0  0  0  0  0
    0.1613    2.1547    2.5292 N   0  0  1  0  0  0  0  0  0  0  0  0
   -0.5304    0.8709    2.3875 C   0  0  0  0  0  0  0  0  0  0  0  0
   -0.2363    3.0403    3.6760 C   0  0  2  0  0  0  0  0  0  0  0  0
    0.6016    4.3626    3.7175 C   0  0  2  0  0  0  0  0  0  0  0  0
    1.9997    4.2570    3.1384 C   0  0  0  0  0  0  0  0  0  0  0  0
    1.9211    1.9055    6.1820 C   0  0  0  0  0  0  0  0  0  0  0  0
    1.6859    2.2352    7.7021 C   0  0  0  0  0  0  0  0  0  0  0  0
    2.9609    0.7522    6.3394 C   0  0  0  0  0  0  0  0  0  0  0  0
    0.4139   -1.9676    2.8471 H   0  0  0  0  0  0  0  0  0  0  0  0
    2.0959   -1.4453    2.8676 H   0  0  0  0  0  0  0  0  0  0  0  0
    1.1243   -1.1673    1.4450 H   0  0  0  0  0  0  0  0  0  0  0  0
   -0.2739   -0.5189    4.8540 H   0  0  0  0  0  0  0  0  0  0  0  0
    1.4012   -0.6335    4.9600 H   0  0  0  0  0  0  0  0  0  0  0  0
    0.0895    0.8948    6.4177 H   0  0  0  0  0  0  0  0  0  0  0  0
   -2.3760    2.0669    4.4942 H   0  0  0  0  0  0  0  0  0  0  0  0
   -2.0881    3.4286    6.2436 H   0  0  0  0  0  0  0  0  0  0  0  0
   -0.6787    3.0914    7.1232 H   0  0  0  0  0  0  0  0  0  0  0  0
   -1.3364    5.3292    5.2680 H   0  0  0  0  0  0  0  0  0  0  0  0
   -0.5467    5.3970    6.8248 H   0  0  0  0  0  0  0  0  0  0  0  0
    0.4807    7.0615    4.4906 H   0  0  0  0  0  0  0  0  0  0  0  0
    2.1668    6.6243    4.7576 H   0  0  0  0  0  0  0  0  0  0  0  0
    1.1208    6.8838    6.1228 H   0  0  0  0  0  0  0  0  0  0  0  0
    4.6797    2.8919    5.8779 H   0  0  0  0  0  0  0  0  0  0  0  0
    3.8307    3.7107    7.1912 H   0  0  0  0  0  0  0  0  0  0  0  0
    4.2067    4.5712    5.7324 H   0  0  0  0  0  0  0  0  0  0  0  0
    3.8037    3.5014    3.7635 H   0  0  0  0  0  0  0  0  0  0  0  0
    3.3822    2.0597    2.2526 H   0  0  0  0  0  0  0  0  0  0  0  0
    3.2537    1.0875    3.6018 H   0  0  0  0  0  0  0  0  0  0  0  0
    1.6007    1.1572    1.4538 H   0  0  0  0  0  0  0  0  0  0  0  0
   -0.5967    0.5885    1.3409 H   0  0  0  0  0  0  0  0  0  0  0  0
   -1.4959    0.7241    2.8531 H   0  0  0  0  0  0  0  0  0  0  0  0
   -1.2200    3.3946    3.3579 H   0  0  0  0  0  0  0  0  0  0  0  0
    0.0722    5.0910    3.0982 H   0  0  0  0  0  0  0  0  0  0  0  0
    2.5244    5.2076    3.2014 H   0  0  0  0  0  0  0  0  0  0  0  0
    1.9791    4.0441    2.0741 H   0  0  0  0  0  0  0  0  0  0  0  0
    2.6141    2.2390    8.2732 H   0  0  0  0  0  0  0  0  0  0  0  0
    1.0612    1.4960    8.2049 H   0  0  0  0  0  0  0  0  0  0  0  0
    1.2501    3.2104    7.8988 H   0  0  0  0  0  0  0  0  0  0  0  0
    3.8557    1.0584    6.8794 H   0  0  0  0  0  0  0  0  0  0  0  0
    3.3172    0.3013    5.4254 H   0  0  0  0  0  0  0  0  0  0  0  0
    2.5343   -0.0621    6.9266 H   0  0  0  0  0  0  0  0  0  0  0  0
    0.0990    2.7307    1.6945 H   0  0  0  0  0  0  0  0  0  0  0  0
  2  1  1  6
  1 25  1  0
  1 26  1  0
  1 27  1  0
  2 16  1  0
  2 18  1  0
  2  3  1  0
  3  4  1  0
  3 28  1  0
  3 29  1  0
  4 22  1  0
  4  5  1  0
  4 30  1  1
  5 19  1  0
  5  6  1  6
  5  7  1  0
  6 31  1  0
  7  8  1  0
  7 32  1  0
  7 33  1  0
  8  9  1  0
  8 34  1  0
  8 35  1  0
  9 20  1  0
  9 10  1  6
  9 11  1  0
 10 36  1  0
 10 37  1  0
 10 38  1  0
 11 12  1  0
 12 13  1  1
 12 14  1  0
 12 22  1  0
 13 39  1  0
 13 40  1  0
 13 41  1  0
 14 21  1  0
 14 15  1  0
 14 42  1  1
 15 16  1  0
 15 43  1  0
 15 44  1  0
 16 17  1  0
 16 45  1  6
 17 18  1  0
 17 19  1  0
 17 58  1  6
 18 46  1  0
 18 47  1  0
 19 20  1  0
 19 48  1  6
 20 21  1  0
 20 49  1  6
 21 50  1  0
 21 51  1  0
 22 23  1  0
 22 24  1  0
 23 52  1  0
 23 53  1  0
 23 54  1  0
 24 55  1  0
 24 56  1  0
 24 57  1  0
M  CHG  1  17   1
M  END
>  <i_m_ct_stereo_status>  (116) 
1

>  <s_m_source_file>  (116) 
/var/tmp/pbs.5076255.sched01/tmpmqqk35eb/391x3533zq.sdf

>  <i_m_source_file_index>  (116) 
7

>  <i_lp_mmshare_version>  (116) 
48012

>  <i_f3d_flags>  (116) 
0

>  <s_epik_input>  (116) 
W0NIM11bQ0BdMTJbQ0BIXTNOKFtDSDJdMilbQ0BIXTRbQ0BAXTUoW09IXSlbQ0BASF0oW0NIMl0xKUMoW0NIM10pKFtDSDNdKVtDQEBdNihbQ0gzXSlbQ0BASF0oW0NIMl0zKVtDSDJdW0NAQEhdNFtDQEBdKE82KShbQ0gzXSlbQ0gyXVtDSDJdNQ==

>  <s_epik_cmdline>  (116) 
J2VwaWtfcHl0aG9uJywgJy1waHQnLCAnMi4wJywgJy1waCcsICc3LjAnLCAnLXRuJywgJzgnLCAnLW1hJywgJzIwMCcsICctaW1hZScsICc8aW5maWxlLm1hZT4nLCAnLW9tYWUnLCAnPG91dGZpbGUubWFlPic=

>  <r_lp_tautomer_probability>  (116) 
1

>  <r_epik_Ionization_Penalty>  (116) 
0.00010261

>  <r_epik_Ionization_Penalty_Charging>  (116) 
0.000102604

>  <r_epik_Ionization_Penalty_Neutral>  (116) 
6.36818e-09

>  <r_epik_State_Penalty>  (116) 
-0

>  <r_epik_Charging_Adjusted_Penalty>  (116) 
0.000102604

>  <i_epik_Tot_Q>  (116) 
1

>  <i_epik_Tot_abs_Q>  (116) 
1

>  <s_lp_Force_Field>  (116) 
OPLS3e

>  <r_lp_Energy>  (116) 
118.039

>  <b_lp_Chiralities_Consistent>  (116) 
1

>  <s_lp_Variant>  (116) 
35:0-1

>  <s_i_glide_gridfile>  (116) 
pfpi4k_grid

>  <i_i_glide_lignum>  (116) 
7

>  <i_i_glide_rotatable_bonds>  (116) 
1

>  <r_i_docking_score>  (116) 
-3.00207

>  <r_i_glide_ligand_efficiency>  (116) 
-0.125086

>  <r_i_glide_ligand_efficiency_sa>  (116) 
-0.360811

>  <r_i_glide_ligand_efficiency_ln>  (116) 
-0.718534

>  <r_i_glide_gscore>  (116) 
-3.00207

>  <r_i_glide_lipo>  (116) 
0

>  <r_i_glide_hbond>  (116) 
-0.2

>  <r_i_glide_metal>  (116) 
-0

>  <r_i_glide_rewards>  (116) 
-1.14204

>  <r_i_glide_evdw>  (116) 
-14.1623

>  <r_i_glide_ecoul>  (116) 
-5.67943

>  <r_i_glide_erotb>  (116) 
0

>  <r_i_glide_esite>  (116) 
-0.1

>  <r_i_glide_emodel>  (116) 
-24.7

>  <r_i_glide_energy>  (116) 
-19.8417

>  <r_i_glide_einternal>  (116) 
0.452997

>  <r_i_glide_intrahb_reward>  (116) 
-0

>  <i_i_glide_confnum>  (116) 
2

>  <i_i_glide_posenum>  (116) 
1

>  <r_i_glide_eff_state_penalty>  (116) 
0

>  <ligand_id>  (116) 
35

>  <original_smiles>  (116) 
CC12CC3C4(O)CCC5(C)OC(C)(C6CC1N(C2)C4C5C6)C3(C)C

>  <smiles>  (116) 
[H]OC12C([H])([H])C([H])([H])C3(C([H])([H])[H])OC4(C([H])([H])[H])C5([H])C([H])([H])C3([H])C1([H])[N+]1([H])C([H])([H])C(C([H])([H])[H])(C([H])([H])C2([H])C4(C([H])([H])[H])C([H])([H])[H])C1([H])C5([H])[H]

$$$$
36:0:0
     RDKit          3D

 32 35  0  0  1  0  0  0  0  0999 V2000
   -7.9933   -4.5549   -5.3194 C   0  0  0  0  0  0  0  0  0  0  0  0
   -8.1805   -5.4724   -6.3176 C   0  0  0  0  0  0  0  0  0  0  0  0
   -7.2196   -6.5318   -6.3357 C   0  0  0  0  0  0  0  0  0  0  0  0
   -7.1570   -7.6322   -7.3613 C   0  0  0  0  0  0  0  0  0  0  0  0
   -8.5279   -8.0864   -7.6133 N   0  0  0  0  0  0  0  0  0  0  0  0
   -9.3124   -7.7750   -8.7900 C   0  0  0  0  0  0  0  0  0  0  0  0
  -10.4341   -8.8396   -8.7360 C   0  0  0  0  0  0  0  0  0  0  0  0
   -9.7618  -10.0714   -8.0821 C   0  0  0  0  0  0  0  0  0  0  0  0
   -8.5963   -9.4232   -7.3678 C   0  0  0  0  0  0  0  0  0  0  0  0
   -7.4630   -9.8526   -6.8268 C   0  0  0  0  0  0  0  0  0  0  0  0
   -6.7707  -11.1885   -6.6906 C   0  0  0  0  0  0  0  0  0  0  0  0
   -5.3171  -10.7427   -6.3792 C   0  0  0  0  0  0  0  0  0  0  0  0
   -5.2488   -9.2916   -6.9030 C   0  0  0  0  0  0  0  0  0  0  0  0
   -6.5960   -8.8121   -6.7060 N   0  0  0  0  0  0  0  0  0  0  0  0
   -6.3354   -6.3838   -5.2864 C   0  0  0  0  0  0  0  0  0  0  0  0
   -6.6110   -4.9369   -4.3655 S   0  0  0  0  0  0  0  0  0  0  0  0
   -8.5203   -3.6275   -5.1438 H   0  0  0  0  0  0  0  0  0  0  0  0
   -8.9921   -5.4130   -7.0245 H   0  0  0  0  0  0  0  0  0  0  0  0
   -6.6239   -7.3473   -8.2683 H   0  0  0  0  0  0  0  0  0  0  0  0
   -9.6871   -6.7438   -8.7865 H   0  0  0  0  0  0  0  0  0  0  0  0
   -8.7050   -7.9266   -9.6875 H   0  0  0  0  0  0  0  0  0  0  0  0
  -11.2253   -8.4885   -8.0695 H   0  0  0  0  0  0  0  0  0  0  0  0
  -10.9032   -9.0144   -9.7129 H   0  0  0  0  0  0  0  0  0  0  0  0
  -10.4423  -10.6329   -7.4360 H   0  0  0  0  0  0  0  0  0  0  0  0
   -9.3802  -10.7509   -8.8434 H   0  0  0  0  0  0  0  0  0  0  0  0
   -7.1941  -11.8531   -5.9291 H   0  0  0  0  0  0  0  0  0  0  0  0
   -6.8174  -11.7039   -7.6506 H   0  0  0  0  0  0  0  0  0  0  0  0
   -5.1748  -10.7217   -5.2963 H   0  0  0  0  0  0  0  0  0  0  0  0
   -4.5205  -11.3841   -6.7825 H   0  0  0  0  0  0  0  0  0  0  0  0
   -4.5145   -8.6715   -6.3766 H   0  0  0  0  0  0  0  0  0  0  0  0
   -5.0219   -9.2979   -7.9719 H   0  0  0  0  0  0  0  0  0  0  0  0
   -5.5177   -7.0276   -5.0163 H   0  0  0  0  0  0  0  0  0  0  0  0
  1 16  1  0
  1  2  2  0
  1 17  1  0
  2  3  1  0
  2 18  1  0
  3  4  1  0
  3 15  2  0
  4 14  1  0
  4  5  1  0
  4 19  1  0
  5  9  1  0
  5  6  1  0
  6  7  1  0
  6 20  1  0
  6 21  1  0
  7  8  1  0
  7 22  1  0
  7 23  1  0
  8  9  1  0
  8 24  1  0
  8 25  1  0
  9 10  2  0
 10 14  1  0
 10 11  1  0
 11 12  1  0
 11 26  1  0
 11 27  1  0
 12 13  1  0
 12 28  1  0
 12 29  1  0
 13 14  1  0
 13 30  1  0
 13 31  1  0
 15 16  1  0
 15 32  1  0
M  END
>  <i_m_ct_stereo_status>  (117) 
1

>  <s_m_source_file>  (117) 
/var/tmp/pbs.5076255.sched01/tmpmqqk35eb/391x3533zq.sdf

>  <i_m_source_file_index>  (117) 
8

>  <i_lp_mmshare_version>  (117) 
48012

>  <i_f3d_flags>  (117) 
0

>  <s_epik_input>  (117) 
W2NIXTFzW2NIXVtjSF1jMVtDSF0yTihbQ0gyXVtDSDJdW0NIMl0zKUMzPUMoTjI0KVtDSDJdW0NIMl1bQ0gyXTQ=

>  <s_epik_cmdline>  (117) 
J2VwaWtfcHl0aG9uJywgJy1waHQnLCAnMi4wJywgJy1waCcsICc3LjAnLCAnLXRuJywgJzgnLCAnLW1hJywgJzIwMCcsICctaW1hZScsICc8aW5maWxlLm1hZT4nLCAnLW9tYWUnLCAnPG91dGZpbGUubWFlPic=

>  <r_lp_tautomer_probability>  (117) 
1

>  <r_epik_Ionization_Penalty>  (117) 
5.86599e-05

>  <r_epik_Ionization_Penalty_Charging>  (117) 
1.18432e-05

>  <r_epik_Ionization_Penalty_Neutral>  (117) 
4.68167e-05

>  <r_epik_State_Penalty>  (117) 
0.000129836

>  <r_epik_Charging_Adjusted_Penalty>  (117) 
0.000141679

>  <i_epik_Tot_Q>  (117) 
0

>  <i_epik_Tot_abs_Q>  (117) 
0

>  <s_epik_Chemistry_Notes>  (117) 
This compound has an imine and may undergo hydrolysis. This compound contains an acetal/aminal-like group ( X-CH(R)-Y where X, Y are N, S, or O) that may be acid/base labile, releasing an aldehyde.

>  <s_lp_Force_Field>  (117) 
OPLS3e

>  <r_lp_Energy>  (117) 
30.3581

>  <b_lp_Chiralities_Consistent>  (117) 
1

>  <s_lp_Variant>  (117) 
36:0-1

>  <s_i_glide_gridfile>  (117) 
pfpi4k_grid

>  <i_i_glide_lignum>  (117) 
8

>  <i_i_glide_rotatable_bonds>  (117) 
1

>  <r_i_docking_score>  (117) 
-6.13426

>  <r_i_glide_ligand_efficiency>  (117) 
-0.383391

>  <r_i_glide_ligand_efficiency_sa>  (117) 
-0.966086

>  <r_i_glide_ligand_efficiency_ln>  (117) 
-1.62601

>  <r_i_glide_gscore>  (117) 
-6.13426

>  <r_i_glide_lipo>  (117) 
-2.21122

>  <r_i_glide_hbond>  (117) 
0

>  <r_i_glide_metal>  (117) 
-0

>  <r_i_glide_rewards>  (117) 
-2.98829

>  <r_i_glide_evdw>  (117) 
-26.5507

>  <r_i_glide_ecoul>  (117) 
0.503324

>  <r_i_glide_erotb>  (117) 
0.317279

>  <r_i_glide_esite>  (117) 
0

>  <r_i_glide_emodel>  (117) 
-35.6685

>  <r_i_glide_energy>  (117) 
-26.0474

>  <r_i_glide_einternal>  (117) 
0.0478222

>  <r_i_glide_intrahb_reward>  (117) 
-0

>  <i_i_glide_confnum>  (117) 
2

>  <i_i_glide_posenum>  (117) 
36

>  <r_i_glide_eff_state_penalty>  (117) 
0

>  <ligand_id>  (117) 
36

>  <original_smiles>  (117) 
c1cc(C2N3CCCC3=C3CCCN32)cs1

>  <smiles>  (117) 
[H]c1sc([H])c(C2([H])N3C(=C4N2C([H])([H])C([H])([H])C4([H])[H])C([H])([H])C([H])([H])C3([H])[H])c1[H]

$$$$
36:0:1
     RDKit          3D

 32 35  0  0  1  0  0  0  0  0999 V2000
   -7.1811   -5.3993   -5.9560 C   0  0  0  0  0  0  0  0  0  0  0  0
   -7.4685   -6.6852   -6.3304 C   0  0  0  0  0  0  0  0  0  0  0  0
   -6.5673   -7.6568   -5.7937 C   0  0  0  0  0  0  0  0  0  0  0  0
   -6.6901   -9.1445   -5.9555 C   0  0  0  0  0  0  0  0  0  0  0  0
   -5.3628   -9.7115   -6.2067 N   0  0  0  0  0  0  0  0  0  0  0  0
   -4.5763  -10.4294   -5.2289 C   0  0  0  0  0  0  0  0  0  0  0  0
   -3.5524  -11.1285   -6.0860 C   0  0  0  0  0  0  0  0  0  0  0  0
   -4.2814  -11.4539   -7.4119 C   0  0  0  0  0  0  0  0  0  0  0  0
   -5.4065  -10.4329   -7.3565 C   0  0  0  0  0  0  0  0  0  0  0  0
   -6.5850  -10.2785   -7.9383 C   0  0  0  0  0  0  0  0  0  0  0  0
   -7.3854  -11.0455   -8.9729 C   0  0  0  0  0  0  0  0  0  0  0  0
   -8.7867  -10.4267   -8.7751 C   0  0  0  0  0  0  0  0  0  0  0  0
   -8.7490   -9.8671   -7.3370 C   0  0  0  0  0  0  0  0  0  0  0  0
   -7.3697   -9.4380   -7.2196 N   0  0  0  0  0  0  0  0  0  0  0  0
   -5.5877   -7.0525   -5.0345 C   0  0  0  0  0  0  0  0  0  0  0  0
   -5.7862   -5.3288   -4.9249 S   0  0  0  0  0  0  0  0  0  0  0  0
   -7.7401   -4.5036   -6.1653 H   0  0  0  0  0  0  0  0  0  0  0  0
   -8.2937   -6.9492   -6.9630 H   0  0  0  0  0  0  0  0  0  0  0  0
   -7.1805   -9.6404   -5.1200 H   0  0  0  0  0  0  0  0  0  0  0  0
   -4.1283   -9.7588   -4.5045 H   0  0  0  0  0  0  0  0  0  0  0  0
   -5.0355  -11.2834   -4.7564 H   0  0  0  0  0  0  0  0  0  0  0  0
   -2.8321  -10.3325   -6.2245 H   0  0  0  0  0  0  0  0  0  0  0  0
   -3.0729  -11.9685   -5.5772 H   0  0  0  0  0  0  0  0  0  0  0  0
   -3.6215  -11.3423   -8.2702 H   0  0  0  0  0  0  0  0  0  0  0  0
   -4.6946  -12.4615   -7.4147 H   0  0  0  0  0  0  0  0  0  0  0  0
   -6.9986  -10.8891   -9.9716 H   0  0  0  0  0  0  0  0  0  0  0  0
   -7.3762  -12.1057   -8.7427 H   0  0  0  0  0  0  0  0  0  0  0  0
   -8.8954   -9.5898   -9.4706 H   0  0  0  0  0  0  0  0  0  0  0  0
   -9.6202  -11.1064   -8.9542 H   0  0  0  0  0  0  0  0  0  0  0  0
   -9.4487   -9.0530   -7.1750 H   0  0  0  0  0  0  0  0  0  0  0  0
   -8.9446  -10.6728   -6.6256 H   0  0  0  0  0  0  0  0  0  0  0  0
   -4.7760   -7.5301   -4.5176 H   0  0  0  0  0  0  0  0  0  0  0  0
  1 16  1  0
  1  2  2  0
  1 17  1  0
  2  3  1  0
  2 18  1  0
  3  4  1  0
  3 15  2  0
  4 14  1  0
  4  5  1  0
  4 19  1  0
  5  9  1  0
  5  6  1  0
  6  7  1  0
  6 20  1  0
  6 21  1  0
  7  8  1  0
  7 22  1  0
  7 23  1  0
  8  9  1  0
  8 24  1  0
  8 25  1  0
  9 10  2  0
 10 14  1  0
 10 11  1  0
 11 12  1  0
 11 26  1  0
 11 27  1  0
 12 13  1  0
 12 28  1  0
 12 29  1  0
 13 14  1  0
 13 30  1  0
 13 31  1  0
 15 16  1  0
 15 32  1  0
M  END
>  <i_m_ct_stereo_status>  (118) 
1

>  <s_m_source_file>  (118) 
/var/tmp/pbs.5076255.sched01/tmpmqqk35eb/391x3533zq.sdf

>  <i_m_source_file_index>  (118) 
8

>  <i_lp_mmshare_version>  (118) 
48012

>  <i_f3d_flags>  (118) 
0

>  <s_epik_input>  (118) 
W2NIXTFzW2NIXVtjSF1jMVtDSF0yTihbQ0gyXVtDSDJdW0NIMl0zKUMzPUMoTjI0KVtDSDJdW0NIMl1bQ0gyXTQ=

>  <s_epik_cmdline>  (118) 
J2VwaWtfcHl0aG9uJywgJy1waHQnLCAnMi4wJywgJy1waCcsICc3LjAnLCAnLXRuJywgJzgnLCAnLW1hJywgJzIwMCcsICctaW1hZScsICc8aW5maWxlLm1hZT4nLCAnLW9tYWUnLCAnPG91dGZpbGUubWFlPic=

>  <r_lp_tautomer_probability>  (118) 
1

>  <r_epik_Ionization_Penalty>  (118) 
5.86599e-05

>  <r_epik_Ionization_Penalty_Charging>  (118) 
1.18432e-05

>  <r_epik_Ionization_Penalty_Neutral>  (118) 
4.68167e-05

>  <r_epik_State_Penalty>  (118) 
0.000129836

>  <r_epik_Charging_Adjusted_Penalty>  (118) 
0.000141679

>  <i_epik_Tot_Q>  (118) 
0

>  <i_epik_Tot_abs_Q>  (118) 
0

>  <s_epik_Chemistry_Notes>  (118) 
This compound has an imine and may undergo hydrolysis. This compound contains an acetal/aminal-like group ( X-CH(R)-Y where X, Y are N, S, or O) that may be acid/base labile, releasing an aldehyde.

>  <s_lp_Force_Field>  (118) 
OPLS3e

>  <r_lp_Energy>  (118) 
30.3581

>  <b_lp_Chiralities_Consistent>  (118) 
1

>  <s_lp_Variant>  (118) 
36:0-1

>  <s_i_glide_gridfile>  (118) 
pfpi4k_grid

>  <i_i_glide_lignum>  (118) 
8

>  <i_i_glide_rotatable_bonds>  (118) 
1

>  <r_i_docking_score>  (118) 
-5.42277

>  <r_i_glide_ligand_efficiency>  (118) 
-0.338923

>  <r_i_glide_ligand_efficiency_sa>  (118) 
-0.854033

>  <r_i_glide_ligand_efficiency_ln>  (118) 
-1.43741

>  <r_i_glide_gscore>  (118) 
-5.42277

>  <r_i_glide_lipo>  (118) 
-1.6682

>  <r_i_glide_hbond>  (118) 
0

>  <r_i_glide_metal>  (118) 
-0

>  <r_i_glide_rewards>  (118) 
-2.86486

>  <r_i_glide_evdw>  (118) 
-18.5957

>  <r_i_glide_ecoul>  (118) 
-1.84803

>  <r_i_glide_erotb>  (118) 
0.317279

>  <r_i_glide_esite>  (118) 
0

>  <r_i_glide_emodel>  (118) 
-28.4092

>  <r_i_glide_energy>  (118) 
-20.4437

>  <r_i_glide_einternal>  (118) 
0.0786699

>  <r_i_glide_intrahb_reward>  (118) 
-0

>  <i_i_glide_confnum>  (118) 
5

>  <i_i_glide_posenum>  (118) 
2

>  <r_i_glide_eff_state_penalty>  (118) 
0

>  <ligand_id>  (118) 
36

>  <original_smiles>  (118) 
c1cc(C2N3CCCC3=C3CCCN32)cs1

>  <smiles>  (118) 
[H]c1sc([H])c(C2([H])N3C(=C4N2C([H])([H])C([H])([H])C4([H])[H])C([H])([H])C([H])([H])C3([H])[H])c1[H]

$$$$
36:0:2
     RDKit          3D

 32 35  0  0  1  0  0  0  0  0999 V2000
   -6.5686   -6.4737   -5.9196 C   0  0  0  0  0  0  0  0  0  0  0  0
   -7.0881   -7.6600   -6.3600 C   0  0  0  0  0  0  0  0  0  0  0  0
   -6.2589   -8.7989   -6.0798 C   0  0  0  0  0  0  0  0  0  0  0  0
   -6.6672  -10.2363   -6.3170 C   0  0  0  0  0  0  0  0  0  0  0  0
   -5.4772  -10.9575   -6.7503 N   0  0  0  0  0  0  0  0  0  0  0  0
   -4.6954  -11.8659   -5.9219 C   0  0  0  0  0  0  0  0  0  0  0  0
   -3.8636  -12.6451   -6.9626 C   0  0  0  0  0  0  0  0  0  0  0  0
   -4.7890  -12.7070   -8.2085 C   0  0  0  0  0  0  0  0  0  0  0  0
   -5.7048  -11.5260   -7.9650 C   0  0  0  0  0  0  0  0  0  0  0  0
   -6.8967  -11.1303   -8.4193 C   0  0  0  0  0  0  0  0  0  0  0  0
   -7.9172  -11.6720   -9.3979 C   0  0  0  0  0  0  0  0  0  0  0  0
   -9.1883  -10.8844   -8.9873 C   0  0  0  0  0  0  0  0  0  0  0  0
   -8.9156  -10.4766   -7.5236 C   0  0  0  0  0  0  0  0  0  0  0  0
   -7.4719  -10.2836   -7.5229 N   0  0  0  0  0  0  0  0  0  0  0  0
   -5.1047   -8.4212   -5.4326 C   0  0  0  0  0  0  0  0  0  0  0  0
   -5.0452   -6.7147   -5.1197 S   0  0  0  0  0  0  0  0  0  0  0  0
   -7.0125   -5.4847   -5.9614 H   0  0  0  0  0  0  0  0  0  0  0  0
   -8.0478   -7.7432   -6.8518 H   0  0  0  0  0  0  0  0  0  0  0  0
   -7.2205  -10.7117   -5.5060 H   0  0  0  0  0  0  0  0  0  0  0  0
   -4.0998  -11.3707   -5.1494 H   0  0  0  0  0  0  0  0  0  0  0  0
   -5.3689  -12.5589   -5.4220 H   0  0  0  0  0  0  0  0  0  0  0  0
   -2.9927  -12.0357   -7.2048 H   0  0  0  0  0  0  0  0  0  0  0  0
   -3.4913  -13.6103   -6.5840 H   0  0  0  0  0  0  0  0  0  0  0  0
   -4.2444  -12.6058   -9.1460 H   0  0  0  0  0  0  0  0  0  0  0  0
   -5.3519  -13.6432   -8.2227 H   0  0  0  0  0  0  0  0  0  0  0  0
   -7.6341  -11.4859  -10.4326 H   0  0  0  0  0  0  0  0  0  0  0  0
   -8.0714  -12.7439   -9.2560 H   0  0  0  0  0  0  0  0  0  0  0  0
   -9.2347   -9.9699   -9.5814 H   0  0  0  0  0  0  0  0  0  0  0  0
  -10.1460  -11.4079   -9.1226 H   0  0  0  0  0  0  0  0  0  0  0  0
   -9.4663   -9.5947   -7.1860 H   0  0  0  0  0  0  0  0  0  0  0  0
   -9.1828  -11.3007   -6.8598 H   0  0  0  0  0  0  0  0  0  0  0  0
   -4.3040   -9.0471   -5.0608 H   0  0  0  0  0  0  0  0  0  0  0  0
  1 16  1  0
  1  2  2  0
  1 17  1  0
  2  3  1  0
  2 18  1  0
  3  4  1  0
  3 15  2  0
  4 14  1  0
  4  5  1  0
  4 19  1  0
  5  9  1  0
  5  6  1  0
  6  7  1  0
  6 20  1  0
  6 21  1  0
  7  8  1  0
  7 22  1  0
  7 23  1  0
  8  9  1  0
  8 24  1  0
  8 25  1  0
  9 10  2  0
 10 14  1  0
 10 11  1  0
 11 12  1  0
 11 26  1  0
 11 27  1  0
 12 13  1  0
 12 28  1  0
 12 29  1  0
 13 14  1  0
 13 30  1  0
 13 31  1  0
 15 16  1  0
 15 32  1  0
M  END
>  <i_m_ct_stereo_status>  (119) 
1

>  <s_m_source_file>  (119) 
/var/tmp/pbs.5076255.sched01/tmpmqqk35eb/391x3533zq.sdf

>  <i_m_source_file_index>  (119) 
8

>  <i_lp_mmshare_version>  (119) 
48012

>  <i_f3d_flags>  (119) 
0

>  <s_epik_input>  (119) 
W2NIXTFzW2NIXVtjSF1jMVtDSF0yTihbQ0gyXVtDSDJdW0NIMl0zKUMzPUMoTjI0KVtDSDJdW0NIMl1bQ0gyXTQ=

>  <s_epik_cmdline>  (119) 
J2VwaWtfcHl0aG9uJywgJy1waHQnLCAnMi4wJywgJy1waCcsICc3LjAnLCAnLXRuJywgJzgnLCAnLW1hJywgJzIwMCcsICctaW1hZScsICc8aW5maWxlLm1hZT4nLCAnLW9tYWUnLCAnPG91dGZpbGUubWFlPic=

>  <r_lp_tautomer_probability>  (119) 
1

>  <r_epik_Ionization_Penalty>  (119) 
5.86599e-05

>  <r_epik_Ionization_Penalty_Charging>  (119) 
1.18432e-05

>  <r_epik_Ionization_Penalty_Neutral>  (119) 
4.68167e-05

>  <r_epik_State_Penalty>  (119) 
0.000129836

>  <r_epik_Charging_Adjusted_Penalty>  (119) 
0.000141679

>  <i_epik_Tot_Q>  (119) 
0

>  <i_epik_Tot_abs_Q>  (119) 
0

>  <s_epik_Chemistry_Notes>  (119) 
This compound has an imine and may undergo hydrolysis. This compound contains an acetal/aminal-like group ( X-CH(R)-Y where X, Y are N, S, or O) that may be acid/base labile, releasing an aldehyde.

>  <s_lp_Force_Field>  (119) 
OPLS3e

>  <r_lp_Energy>  (119) 
30.3581

>  <b_lp_Chiralities_Consistent>  (119) 
1

>  <s_lp_Variant>  (119) 
36:0-1

>  <s_i_glide_gridfile>  (119) 
pfpi4k_grid

>  <i_i_glide_lignum>  (119) 
8

>  <i_i_glide_rotatable_bonds>  (119) 
1

>  <r_i_docking_score>  (119) 
-5.25422

>  <r_i_glide_ligand_efficiency>  (119) 
-0.328389

>  <r_i_glide_ligand_efficiency_sa>  (119) 
-0.827488

>  <r_i_glide_ligand_efficiency_ln>  (119) 
-1.39274

>  <r_i_glide_gscore>  (119) 
-5.25422

>  <r_i_glide_lipo>  (119) 
-1.32784

>  <r_i_glide_hbond>  (119) 
0

>  <r_i_glide_metal>  (119) 
-0

>  <r_i_glide_rewards>  (119) 
-2.67269

>  <r_i_glide_evdw>  (119) 
-24.9639

>  <r_i_glide_ecoul>  (119) 
-2.15179

>  <r_i_glide_erotb>  (119) 
0.317279

>  <r_i_glide_esite>  (119) 
0

>  <r_i_glide_emodel>  (119) 
-35.1194

>  <r_i_glide_energy>  (119) 
-27.1157

>  <r_i_glide_einternal>  (119) 
0.0640736

>  <r_i_glide_intrahb_reward>  (119) 
-0

>  <i_i_glide_confnum>  (119) 
5

>  <i_i_glide_posenum>  (119) 
8

>  <r_i_glide_eff_state_penalty>  (119) 
0

>  <ligand_id>  (119) 
36

>  <original_smiles>  (119) 
c1cc(C2N3CCCC3=C3CCCN32)cs1

>  <smiles>  (119) 
[H]c1sc([H])c(C2([H])N3C(=C4N2C([H])([H])C([H])([H])C4([H])[H])C([H])([H])C([H])([H])C3([H])[H])c1[H]

$$$$
38:0:0
     RDKit          3D

 28 30  0  0  1  0  0  0  0  0999 V2000
    3.1882   -1.2019   -3.8710 C   0  0  0  0  0  0  0  0  0  0  0  0
    3.1615   -2.6999   -3.5384 C   0  0  0  0  0  0  0  0  0  0  0  0
    2.0180   -3.0870   -2.5806 C   0  0  0  0  0  0  0  0  0  0  0  0
    4.7991   -3.2657   -2.9778 S   0  0  0  0  0  0  0  0  0  0  0  0
    5.1662   -2.5340   -1.4058 C   0  0  0  0  0  0  0  0  0  0  0  0
    4.1889   -1.9244   -0.6869 N   0  0  0  0  0  0  0  0  0  0  0  0
    4.5191   -1.3631    0.5305 C   0  0  0  0  0  0  0  0  0  0  0  0
    5.8341   -1.3779    0.9848 C   0  0  0  0  0  0  0  0  0  0  0  0
    5.8209   -0.7095    2.2379 C   0  0  0  0  0  0  0  0  0  0  0  0
    4.5337   -0.3428    2.4873 N   0  0  0  0  0  0  0  0  0  0  0  0
    3.7191   -0.7421    1.4371 N   0  0  0  0  0  0  0  0  0  0  0  0
    2.2856   -0.4892    1.4194 C   0  0  0  0  0  0  0  0  0  0  0  0
    6.8561   -1.9824    0.1966 C   0  0  0  0  0  0  0  0  0  0  0  0
    8.0994   -1.9948    0.4755 N   0  0  0  0  0  0  0  0  0  0  0  0
    8.5371   -2.7377   -0.6421 N   0  0  0  0  0  0  0  0  0  0  0  0
    7.5741   -3.0469   -1.4968 N   0  0  0  0  0  0  0  0  0  0  0  0
    6.4636   -2.5394   -0.9249 N   0  0  0  0  0  0  0  0  0  0  0  0
    2.2241   -0.8847   -4.2678 H   0  0  0  0  0  0  0  0  0  0  0  0
    3.9455   -0.9772   -4.6244 H   0  0  0  0  0  0  0  0  0  0  0  0
    3.3989   -0.5937   -2.9900 H   0  0  0  0  0  0  0  0  0  0  0  0
    2.9712   -3.2356   -4.4671 H   0  0  0  0  0  0  0  0  0  0  0  0
    1.0583   -2.7826   -2.9889 H   0  0  0  0  0  0  0  0  0  0  0  0
    2.0786   -2.6123   -1.6112 H   0  0  0  0  0  0  0  0  0  0  0  0
    1.9769   -4.1546   -2.3798 H   0  0  0  0  0  0  0  0  0  0  0  0
    6.6029   -0.4698    2.9457 H   0  0  0  0  0  0  0  0  0  0  0  0
    1.9447   -0.0207    2.3428 H   0  0  0  0  0  0  0  0  0  0  0  0
    1.7350   -1.4238    1.2811 H   0  0  0  0  0  0  0  0  0  0  0  0
    2.0403    0.1748    0.5899 H   0  0  0  0  0  0  0  0  0  0  0  0
  1  2  1  0
  1 18  1  0
  1 19  1  0
  1 20  1  0
  2  3  1  0
  2  4  1  0
  2 21  1  0
  3 22  1  0
  3 23  1  0
  3 24  1  0
  4  5  1  0
  5 17  1  0
  5  6  2  0
  6  7  1  0
  7 11  1  0
  7  8  2  0
  8  9  1  0
  8 13  1  0
  9 10  2  0
  9 25  1  0
 10 11  1  0
 11 12  1  0
 12 26  1  0
 12 27  1  0
 12 28  1  0
 13 17  1  0
 13 14  2  0
 14 15  1  0
 15 16  2  0
 16 17  1  0
M  END
>  <i_m_ct_stereo_status>  (120) 
1

>  <s_m_source_file>  (120) 
/var/tmp/pbs.5076255.sched01/tmpmqqk35eb/391x3533zq.sdf

>  <i_m_source_file_index>  (120) 
10

>  <i_lp_mmshare_version>  (120) 
48012

>  <i_f3d_flags>  (120) 
0

>  <s_epik_input>  (120) 
W0NIM11bQ0hdKFtDSDNdKVNjKG4xKW4obm5uMiljMmMoYzEzKVtjSF1ubjNbQ0gzXQ==

>  <s_epik_cmdline>  (120) 
J2VwaWtfcHl0aG9uJywgJy1waHQnLCAnMi4wJywgJy1waCcsICc3LjAnLCAnLXRuJywgJzgnLCAnLW1hJywgJzIwMCcsICctaW1hZScsICc8aW5maWxlLm1hZT4nLCAnLW9tYWUnLCAnPG91dGZpbGUubWFlPic=

>  <r_lp_tautomer_probability>  (120) 
1

>  <r_epik_Ionization_Penalty>  (120) 
2.31252e-10

>  <r_epik_Ionization_Penalty_Charging>  (120) 
0

>  <r_epik_Ionization_Penalty_Neutral>  (120) 
2.31252e-10

>  <r_epik_State_Penalty>  (120) 
-0

>  <r_epik_Charging_Adjusted_Penalty>  (120) 
0

>  <i_epik_Tot_Q>  (120) 
0

>  <i_epik_Tot_abs_Q>  (120) 
0

>  <s_lp_Force_Field>  (120) 
OPLS3e

>  <r_lp_Energy>  (120) 
18.3287

>  <b_lp_Chiralities_Consistent>  (120) 
1

>  <s_lp_Variant>  (120) 
38:0-1

>  <s_i_glide_gridfile>  (120) 
pfpi4k_grid

>  <i_i_glide_lignum>  (120) 
10

>  <i_i_glide_rotatable_bonds>  (120) 
2

>  <r_i_docking_score>  (120) 
-3.97076

>  <r_i_glide_ligand_efficiency>  (120) 
-0.233574

>  <r_i_glide_ligand_efficiency_sa>  (120) 
-0.600584

>  <r_i_glide_ligand_efficiency_ln>  (120) 
-1.03588

>  <r_i_glide_gscore>  (120) 
-3.97076

>  <r_i_glide_lipo>  (120) 
-0.873377

>  <r_i_glide_hbond>  (120) 
0

>  <r_i_glide_metal>  (120) 
-0

>  <r_i_glide_rewards>  (120) 
-1.70934

>  <r_i_glide_evdw>  (120) 
-27.6218

>  <r_i_glide_ecoul>  (120) 
-0.920047

>  <r_i_glide_erotb>  (120) 
0.281356

>  <r_i_glide_esite>  (120) 
-0.150298

>  <r_i_glide_emodel>  (120) 
-34.9996

>  <r_i_glide_energy>  (120) 
-28.5418

>  <r_i_glide_einternal>  (120) 
0.262231

>  <r_i_glide_intrahb_reward>  (120) 
-0

>  <i_i_glide_confnum>  (120) 
4

>  <i_i_glide_posenum>  (120) 
5

>  <r_i_glide_eff_state_penalty>  (120) 
0

>  <ligand_id>  (120) 
38

>  <original_smiles>  (120) 
CC(C)Sc1nc2c(cnn2C)c2nnnn12

>  <smiles>  (120) 
[H]c1nn(C([H])([H])[H])c2nc(SC([H])(C([H])([H])[H])C([H])([H])[H])n3nnnc3c12

$$$$
38:0:1
     RDKit          3D

 28 30  0  0  1  0  0  0  0  0999 V2000
    2.5951   -7.3444    1.8510 C   0  0  0  0  0  0  0  0  0  0  0  0
    3.1032   -6.2573    0.8898 C   0  0  0  0  0  0  0  0  0  0  0  0
    4.4156   -6.6875    0.2198 C   0  0  0  0  0  0  0  0  0  0  0  0
    3.3070   -4.6727    1.7610 S   0  0  0  0  0  0  0  0  0  0  0  0
    3.6926   -3.4465    0.5416 C   0  0  0  0  0  0  0  0  0  0  0  0
    3.0650   -3.4734   -0.6658 N   0  0  0  0  0  0  0  0  0  0  0  0
    3.3989   -2.4958   -1.5839 C   0  0  0  0  0  0  0  0  0  0  0  0
    4.3363   -1.5099   -1.2888 C   0  0  0  0  0  0  0  0  0  0  0  0
    4.4290   -0.6863   -2.4326 C   0  0  0  0  0  0  0  0  0  0  0  0
    3.5872   -1.1869   -3.3688 N   0  0  0  0  0  0  0  0  0  0  0  0
    2.9361   -2.2968   -2.8466 N   0  0  0  0  0  0  0  0  0  0  0  0
    1.9430   -3.0231   -3.5941 C   0  0  0  0  0  0  0  0  0  0  0  0
    4.9801   -1.5046   -0.0180 C   0  0  0  0  0  0  0  0  0  0  0  0
    5.8755   -0.6605    0.3438 N   0  0  0  0  0  0  0  0  0  0  0  0
    6.1017   -1.1826    1.6363 N   0  0  0  0  0  0  0  0  0  0  0  0
    5.3690   -2.2532    1.9292 N   0  0  0  0  0  0  0  0  0  0  0  0
    4.6287   -2.4521    0.8120 N   0  0  0  0  0  0  0  0  0  0  0  0
    2.4539   -8.2917    1.3293 H   0  0  0  0  0  0  0  0  0  0  0  0
    1.6374   -7.0713    2.2948 H   0  0  0  0  0  0  0  0  0  0  0  0
    3.2964   -7.5268    2.6670 H   0  0  0  0  0  0  0  0  0  0  0  0
    2.3480   -6.1095    0.1167 H   0  0  0  0  0  0  0  0  0  0  0  0
    4.2859   -7.6285   -0.3132 H   0  0  0  0  0  0  0  0  0  0  0  0
    5.2118   -6.8338    0.9509 H   0  0  0  0  0  0  0  0  0  0  0  0
    4.7540   -5.9487   -0.5064 H   0  0  0  0  0  0  0  0  0  0  0  0
    5.0236    0.1928   -2.6495 H   0  0  0  0  0  0  0  0  0  0  0  0
    1.7168   -2.5254   -4.5284 H   0  0  0  0  0  0  0  0  0  0  0  0
    1.0231   -3.0617   -3.0107 H   0  0  0  0  0  0  0  0  0  0  0  0
    2.2849   -4.0357   -3.7958 H   0  0  0  0  0  0  0  0  0  0  0  0
  1  2  1  0
  1 18  1  0
  1 19  1  0
  1 20  1  0
  2  3  1  0
  2  4  1  0
  2 21  1  0
  3 22  1  0
  3 23  1  0
  3 24  1  0
  4  5  1  0
  5 17  1  0
  5  6  2  0
  6  7  1  0
  7 11  1  0
  7  8  2  0
  8  9  1  0
  8 13  1  0
  9 10  2  0
  9 25  1  0
 10 11  1  0
 11 12  1  0
 12 26  1  0
 12 27  1  0
 12 28  1  0
 13 17  1  0
 13 14  2  0
 14 15  1  0
 15 16  2  0
 16 17  1  0
M  END
>  <i_m_ct_stereo_status>  (121) 
1

>  <s_m_source_file>  (121) 
/var/tmp/pbs.5076255.sched01/tmpmqqk35eb/391x3533zq.sdf

>  <i_m_source_file_index>  (121) 
10

>  <i_lp_mmshare_version>  (121) 
48012

>  <i_f3d_flags>  (121) 
0

>  <s_epik_input>  (121) 
W0NIM11bQ0hdKFtDSDNdKVNjKG4xKW4obm5uMiljMmMoYzEzKVtjSF1ubjNbQ0gzXQ==

>  <s_epik_cmdline>  (121) 
J2VwaWtfcHl0aG9uJywgJy1waHQnLCAnMi4wJywgJy1waCcsICc3LjAnLCAnLXRuJywgJzgnLCAnLW1hJywgJzIwMCcsICctaW1hZScsICc8aW5maWxlLm1hZT4nLCAnLW9tYWUnLCAnPG91dGZpbGUubWFlPic=

>  <r_lp_tautomer_probability>  (121) 
1

>  <r_epik_Ionization_Penalty>  (121) 
2.31252e-10

>  <r_epik_Ionization_Penalty_Charging>  (121) 
0

>  <r_epik_Ionization_Penalty_Neutral>  (121) 
2.31252e-10

>  <r_epik_State_Penalty>  (121) 
-0

>  <r_epik_Charging_Adjusted_Penalty>  (121) 
0

>  <i_epik_Tot_Q>  (121) 
0

>  <i_epik_Tot_abs_Q>  (121) 
0

>  <s_lp_Force_Field>  (121) 
OPLS3e

>  <r_lp_Energy>  (121) 
18.3287

>  <b_lp_Chiralities_Consistent>  (121) 
1

>  <s_lp_Variant>  (121) 
38:0-1

>  <s_i_glide_gridfile>  (121) 
pfpi4k_grid

>  <i_i_glide_lignum>  (121) 
10

>  <i_i_glide_rotatable_bonds>  (121) 
2

>  <r_i_docking_score>  (121) 
-3.38422

>  <r_i_glide_ligand_efficiency>  (121) 
-0.199072

>  <r_i_glide_ligand_efficiency_sa>  (121) 
-0.51187

>  <r_i_glide_ligand_efficiency_ln>  (121) 
-0.882868

>  <r_i_glide_gscore>  (121) 
-3.38422

>  <r_i_glide_lipo>  (121) 
-0.325341

>  <r_i_glide_hbond>  (121) 
0

>  <r_i_glide_metal>  (121) 
-0

>  <r_i_glide_rewards>  (121) 
-1.72182

>  <r_i_glide_evdw>  (121) 
-25.1487

>  <r_i_glide_ecoul>  (121) 
-1.94676

>  <r_i_glide_erotb>  (121) 
0.281356

>  <r_i_glide_esite>  (121) 
-0.0689693

>  <r_i_glide_emodel>  (121) 
-32.0282

>  <r_i_glide_energy>  (121) 
-27.0954

>  <r_i_glide_einternal>  (121) 
1.75786

>  <r_i_glide_intrahb_reward>  (121) 
-0

>  <i_i_glide_confnum>  (121) 
2

>  <i_i_glide_posenum>  (121) 
6

>  <r_i_glide_eff_state_penalty>  (121) 
0

>  <ligand_id>  (121) 
38

>  <original_smiles>  (121) 
CC(C)Sc1nc2c(cnn2C)c2nnnn12

>  <smiles>  (121) 
[H]c1nn(C([H])([H])[H])c2nc(SC([H])(C([H])([H])[H])C([H])([H])[H])n3nnnc3c12

$$$$
38:0:2
     RDKit          3D

 28 30  0  0  1  0  0  0  0  0999 V2000
    6.0350   -5.0833    2.5213 C   0  0  0  0  0  0  0  0  0  0  0  0
    4.7474   -5.7598    2.0298 C   0  0  0  0  0  0  0  0  0  0  0  0
    5.0022   -6.5302    0.7313 C   0  0  0  0  0  0  0  0  0  0  0  0
    3.3335   -4.6108    1.8640 S   0  0  0  0  0  0  0  0  0  0  0  0
    3.7135   -3.3930    0.6384 C   0  0  0  0  0  0  0  0  0  0  0  0
    3.0966   -3.4656   -0.5691 N   0  0  0  0  0  0  0  0  0  0  0  0
    3.4132   -2.5048   -1.5109 C   0  0  0  0  0  0  0  0  0  0  0  0
    4.3692   -1.5297   -1.2463 C   0  0  0  0  0  0  0  0  0  0  0  0
    4.4497   -0.7051   -2.3979 C   0  0  0  0  0  0  0  0  0  0  0  0
    3.5967   -1.2154   -3.3136 N   0  0  0  0  0  0  0  0  0  0  0  0
    2.9442   -2.3148   -2.7700 N   0  0  0  0  0  0  0  0  0  0  0  0
    1.9378   -3.0356   -3.5009 C   0  0  0  0  0  0  0  0  0  0  0  0
    5.0139   -1.4853    0.0193 C   0  0  0  0  0  0  0  0  0  0  0  0
    5.9331   -0.6518    0.3299 N   0  0  0  0  0  0  0  0  0  0  0  0
    6.0972   -1.0769    1.6750 N   0  0  0  0  0  0  0  0  0  0  0  0
    5.3015   -2.0537    2.0316 N   0  0  0  0  0  0  0  0  0  0  0  0
    4.6201   -2.3728    0.8935 N   0  0  0  0  0  0  0  0  0  0  0  0
    6.8306   -5.8059    2.7069 H   0  0  0  0  0  0  0  0  0  0  0  0
    5.8500   -4.5297    3.4454 H   0  0  0  0  0  0  0  0  0  0  0  0
    6.4406   -4.4146    1.7643 H   0  0  0  0  0  0  0  0  0  0  0  0
    4.4508   -6.4757    2.7984 H   0  0  0  0  0  0  0  0  0  0  0  0
    5.8208   -7.2370    0.8723 H   0  0  0  0  0  0  0  0  0  0  0  0
    5.2732   -5.8611   -0.0864 H   0  0  0  0  0  0  0  0  0  0  0  0
    4.1214   -7.0944    0.4263 H   0  0  0  0  0  0  0  0  0  0  0  0
    5.0285    0.1770   -2.6011 H   0  0  0  0  0  0  0  0  0  0  0  0
    1.7097   -2.5428   -4.4400 H   0  0  0  0  0  0  0  0  0  0  0  0
    1.0283   -3.0523   -2.9144 H   0  0  0  0  0  0  0  0  0  0  0  0
    2.2687   -4.0547   -3.7030 H   0  0  0  0  0  0  0  0  0  0  0  0
  1  2  1  0
  1 18  1  0
  1 19  1  0
  1 20  1  0
  2  3  1  0
  2  4  1  0
  2 21  1  0
  3 22  1  0
  3 23  1  0
  3 24  1  0
  4  5  1  0
  5 17  1  0
  5  6  2  0
  6  7  1  0
  7 11  1  0
  7  8  2  0
  8  9  1  0
  8 13  1  0
  9 10  2  0
  9 25  1  0
 10 11  1  0
 11 12  1  0
 12 26  1  0
 12 27  1  0
 12 28  1  0
 13 17  1  0
 13 14  2  0
 14 15  1  0
 15 16  2  0
 16 17  1  0
M  END
>  <i_m_ct_stereo_status>  (122) 
1

>  <s_m_source_file>  (122) 
/var/tmp/pbs.5076255.sched01/tmpmqqk35eb/391x3533zq.sdf

>  <i_m_source_file_index>  (122) 
10

>  <i_lp_mmshare_version>  (122) 
48012

>  <i_f3d_flags>  (122) 
0

>  <s_epik_input>  (122) 
W0NIM11bQ0hdKFtDSDNdKVNjKG4xKW4obm5uMiljMmMoYzEzKVtjSF1ubjNbQ0gzXQ==

>  <s_epik_cmdline>  (122) 
J2VwaWtfcHl0aG9uJywgJy1waHQnLCAnMi4wJywgJy1waCcsICc3LjAnLCAnLXRuJywgJzgnLCAnLW1hJywgJzIwMCcsICctaW1hZScsICc8aW5maWxlLm1hZT4nLCAnLW9tYWUnLCAnPG91dGZpbGUubWFlPic=

>  <r_lp_tautomer_probability>  (122) 
1

>  <r_epik_Ionization_Penalty>  (122) 
2.31252e-10

>  <r_epik_Ionization_Penalty_Charging>  (122) 
0

>  <r_epik_Ionization_Penalty_Neutral>  (122) 
2.31252e-10

>  <r_epik_State_Penalty>  (122) 
-0

>  <r_epik_Charging_Adjusted_Penalty>  (122) 
0

>  <i_epik_Tot_Q>  (122) 
0

>  <i_epik_Tot_abs_Q>  (122) 
0

>  <s_lp_Force_Field>  (122) 
OPLS3e

>  <r_lp_Energy>  (122) 
18.3287

>  <b_lp_Chiralities_Consistent>  (122) 
1

>  <s_lp_Variant>  (122) 
38:0-1

>  <s_i_glide_gridfile>  (122) 
pfpi4k_grid

>  <i_i_glide_lignum>  (122) 
10

>  <i_i_glide_rotatable_bonds>  (122) 
2

>  <r_i_docking_score>  (122) 
-3.36146

>  <r_i_glide_ligand_efficiency>  (122) 
-0.197733

>  <r_i_glide_ligand_efficiency_sa>  (122) 
-0.508428

>  <r_i_glide_ligand_efficiency_ln>  (122) 
-0.876931

>  <r_i_glide_gscore>  (122) 
-3.36146

>  <r_i_glide_lipo>  (122) 
-0.363318

>  <r_i_glide_hbond>  (122) 
0

>  <r_i_glide_metal>  (122) 
-0

>  <r_i_glide_rewards>  (122) 
-1.72209

>  <r_i_glide_evdw>  (122) 
-24.0917

>  <r_i_glide_ecoul>  (122) 
-1.85618

>  <r_i_glide_erotb>  (122) 
0.281356

>  <r_i_glide_esite>  (122) 
-0.0744005

>  <r_i_glide_emodel>  (122) 
-30.6014

>  <r_i_glide_energy>  (122) 
-25.9478

>  <r_i_glide_einternal>  (122) 
1.71713

>  <r_i_glide_intrahb_reward>  (122) 
-0

>  <i_i_glide_confnum>  (122) 
3

>  <i_i_glide_posenum>  (122) 
9

>  <r_i_glide_eff_state_penalty>  (122) 
0

>  <ligand_id>  (122) 
38

>  <original_smiles>  (122) 
CC(C)Sc1nc2c(cnn2C)c2nnnn12

>  <smiles>  (122) 
[H]c1nn(C([H])([H])[H])c2nc(SC([H])(C([H])([H])[H])C([H])([H])[H])n3nnnc3c12

$$$$
39:0:0
     RDKit          3D

 24 25  0  0  1  0  0  0  0  0999 V2000
    2.3483   -2.4870    3.1848 C   0  0  0  0  0  0  0  0  0  0  0  0
    3.4695   -3.4759    2.8181 C   0  0  0  0  0  0  0  0  0  0  0  0
    4.1201   -3.0907    1.5695 N   0  0  0  0  0  0  0  0  0  0  0  0
    5.4529   -2.5269    1.5483 C   0  0  0  0  0  0  0  0  0  0  0  0
    5.5099   -2.0856    0.1094 C   0  0  0  0  0  0  0  0  0  0  0  0
    6.4805   -1.5070   -0.3761 O   0  0  0  0  0  0  0  0  0  0  0  0
    4.3757   -2.4550   -0.5094 N   0  0  0  0  0  0  0  0  0  0  0  0
    4.0138   -2.0607   -1.8357 C   0  0  0  0  0  0  0  0  0  0  0  0
    3.2356   -2.8826   -2.7037 C   0  0  0  0  0  0  0  0  0  0  0  0
    3.0107   -2.2963   -3.9171 C   0  0  0  0  0  0  0  0  0  0  0  0
    3.7165   -0.6991   -4.0164 S   0  0  0  0  0  0  0  0  0  0  0  0
    4.3408   -0.8448   -2.3942 C   0  0  0  0  0  0  0  0  0  0  0  0
    3.5710   -3.1248    0.3436 C   0  0  0  0  0  0  0  0  0  0  0  0
    2.4928   -3.6599    0.0746 O   0  0  0  0  0  0  0  0  0  0  0  0
    1.8454   -2.7938    4.1017 H   0  0  0  0  0  0  0  0  0  0  0  0
    1.5863   -2.4216    2.4055 H   0  0  0  0  0  0  0  0  0  0  0  0
    2.7388   -1.4788    3.3362 H   0  0  0  0  0  0  0  0  0  0  0  0
    4.2081   -3.5082    3.6196 H   0  0  0  0  0  0  0  0  0  0  0  0
    3.0639   -4.4839    2.7181 H   0  0  0  0  0  0  0  0  0  0  0  0
    6.2137   -3.2835    1.7377 H   0  0  0  0  0  0  0  0  0  0  0  0
    5.5630   -1.6836    2.2308 H   0  0  0  0  0  0  0  0  0  0  0  0
    2.8549   -3.8555   -2.4217 H   0  0  0  0  0  0  0  0  0  0  0  0
    2.4246   -2.7146   -4.7186 H   0  0  0  0  0  0  0  0  0  0  0  0
    4.8843   -0.0246   -1.9465 H   0  0  0  0  0  0  0  0  0  0  0  0
  1  2  1  0
  1 15  1  0
  1 16  1  0
  1 17  1  0
  2 18  1  0
  2 19  1  0
  2  3  1  0
  3  4  1  0
  3 13  1  0
  4  5  1  0
  4 20  1  0
  4 21  1  0
  5  6  2  0
  5  7  1  0
  7 13  1  0
  7  8  1  0
  8 12  2  0
  8  9  1  0
  9 10  2  0
  9 22  1  0
 10 11  1  0
 10 23  1  0
 11 12  1  0
 12 24  1  0
 13 14  2  0
M  END
>  <i_m_ct_stereo_status>  (123) 
1

>  <s_m_source_file>  (123) 
/var/tmp/pbs.5076255.sched01/tmpmqqk35eb/391x3533zq.sdf

>  <i_m_source_file_index>  (123) 
11

>  <i_lp_mmshare_version>  (123) 
48012

>  <i_f3d_flags>  (123) 
0

>  <s_epik_input>  (123) 
W0NIM11bQ0gyXW4xW2NIXWMoW09IXSluKGMxPU8pLWMyW2NIXVtjSF1zW2NIXTI=

>  <s_epik_cmdline>  (123) 
J2VwaWtfcHl0aG9uJywgJy1waHQnLCAnMi4wJywgJy1waCcsICc3LjAnLCAnLXRuJywgJzgnLCAnLW1hJywgJzIwMCcsICctaW1hZScsICc8aW5maWxlLm1hZT4nLCAnLW9tYWUnLCAnPG91dGZpbGUubWFlPic=

>  <r_lp_tautomer_probability>  (123) 
1

>  <r_epik_Ionization_Penalty>  (123) 
1.72851e-05

>  <r_epik_Ionization_Penalty_Charging>  (123) 
0

>  <r_epik_Ionization_Penalty_Neutral>  (123) 
1.72851e-05

>  <r_epik_State_Penalty>  (123) 
-0

>  <r_epik_Charging_Adjusted_Penalty>  (123) 
0

>  <i_epik_Tot_Q>  (123) 
0

>  <i_epik_Tot_abs_Q>  (123) 
0

>  <s_lp_Force_Field>  (123) 
OPLS3e

>  <r_lp_Energy>  (123) 
5.02644

>  <b_lp_Chiralities_Consistent>  (123) 
1

>  <s_lp_Variant>  (123) 
39:0-1

>  <s_i_glide_gridfile>  (123) 
pfpi4k_grid

>  <i_i_glide_lignum>  (123) 
11

>  <i_i_glide_rotatable_bonds>  (123) 
2

>  <r_i_docking_score>  (123) 
-3.80498

>  <r_i_glide_ligand_efficiency>  (123) 
-0.271784

>  <r_i_glide_ligand_efficiency_sa>  (123) 
-0.655039

>  <r_i_glide_ligand_efficiency_ln>  (123) 
-1.04559

>  <r_i_glide_gscore>  (123) 
-3.80498

>  <r_i_glide_lipo>  (123) 
-0.389328

>  <r_i_glide_hbond>  (123) 
-0.117318

>  <r_i_glide_metal>  (123) 
-0

>  <r_i_glide_rewards>  (123) 
-2.00196

>  <r_i_glide_evdw>  (123) 
-21.339

>  <r_i_glide_ecoul>  (123) 
-3.87788

>  <r_i_glide_erotb>  (123) 
0.375582

>  <r_i_glide_esite>  (123) 
-0.0233267

>  <r_i_glide_emodel>  (123) 
-31.2073

>  <r_i_glide_energy>  (123) 
-25.2169

>  <r_i_glide_einternal>  (123) 
0.181541

>  <r_i_glide_intrahb_reward>  (123) 
-0

>  <i_i_glide_confnum>  (123) 
3

>  <i_i_glide_posenum>  (123) 
22

>  <r_i_glide_eff_state_penalty>  (123) 
0

>  <ligand_id>  (123) 
39

>  <original_smiles>  (123) 
CCn1cc(O)n(-c2ccsc2)c1=O

>  <smiles>  (123) 
[H]c1sc([H])c(N2C(=O)N(C([H])([H])C([H])([H])[H])C([H])([H])C2=O)c1[H]

$$$$
39:0:1
     RDKit          3D

 24 25  0  0  1  0  0  0  0  0999 V2000
    3.4607   -4.2099    3.6838 C   0  0  0  0  0  0  0  0  0  0  0  0
    3.6870   -2.7511    3.2688 C   0  0  0  0  0  0  0  0  0  0  0  0
    4.3228   -2.6459    1.9626 N   0  0  0  0  0  0  0  0  0  0  0  0
    5.6694   -2.1273    1.8087 C   0  0  0  0  0  0  0  0  0  0  0  0
    5.6845   -1.9068    0.3149 C   0  0  0  0  0  0  0  0  0  0  0  0
    6.6481   -1.4534   -0.3021 O   0  0  0  0  0  0  0  0  0  0  0  0
    4.5150   -2.3198   -0.1932 N   0  0  0  0  0  0  0  0  0  0  0  0
    4.1194   -2.1324   -1.5502 C   0  0  0  0  0  0  0  0  0  0  0  0
    4.3648   -0.9347   -2.2886 C   0  0  0  0  0  0  0  0  0  0  0  0
    3.8733   -1.0014   -3.5677 C   0  0  0  0  0  0  0  0  0  0  0  0
    3.1036   -2.5329   -3.8792 S   0  0  0  0  0  0  0  0  0  0  0  0
    3.4427   -3.0810   -2.2628 C   0  0  0  0  0  0  0  0  0  0  0  0
    3.7149   -2.8129    0.7738 C   0  0  0  0  0  0  0  0  0  0  0  0
    2.6031   -3.3148    0.6173 O   0  0  0  0  0  0  0  0  0  0  0  0
    3.0022   -4.2609    4.6719 H   0  0  0  0  0  0  0  0  0  0  0  0
    4.4018   -4.7579    3.7204 H   0  0  0  0  0  0  0  0  0  0  0  0
    2.7997   -4.7263    2.9872 H   0  0  0  0  0  0  0  0  0  0  0  0
    2.7297   -2.2263    3.2391 H   0  0  0  0  0  0  0  0  0  0  0  0
    4.2932   -2.2383    4.0150 H   0  0  0  0  0  0  0  0  0  0  0  0
    6.4116   -2.8727    2.0942 H   0  0  0  0  0  0  0  0  0  0  0  0
    5.8350   -1.1965    2.3550 H   0  0  0  0  0  0  0  0  0  0  0  0
    4.8589   -0.0742   -1.8679 H   0  0  0  0  0  0  0  0  0  0  0  0
    3.9008   -0.2399   -4.3360 H   0  0  0  0  0  0  0  0  0  0  0  0
    3.1183   -4.0559   -1.9292 H   0  0  0  0  0  0  0  0  0  0  0  0
  1  2  1  0
  1 15  1  0
  1 16  1  0
  1 17  1  0
  2 18  1  0
  2 19  1  0
  2  3  1  0
  3  4  1  0
  3 13  1  0
  4  5  1  0
  4 20  1  0
  4 21  1  0
  5  6  2  0
  5  7  1  0
  7 13  1  0
  7  8  1  0
  8 12  2  0
  8  9  1  0
  9 10  2  0
  9 22  1  0
 10 11  1  0
 10 23  1  0
 11 12  1  0
 12 24  1  0
 13 14  2  0
M  END
>  <i_m_ct_stereo_status>  (124) 
1

>  <s_m_source_file>  (124) 
/var/tmp/pbs.5076255.sched01/tmpmqqk35eb/391x3533zq.sdf

>  <i_m_source_file_index>  (124) 
11

>  <i_lp_mmshare_version>  (124) 
48012

>  <i_f3d_flags>  (124) 
0

>  <s_epik_input>  (124) 
W0NIM11bQ0gyXW4xW2NIXWMoW09IXSluKGMxPU8pLWMyW2NIXVtjSF1zW2NIXTI=

>  <s_epik_cmdline>  (124) 
J2VwaWtfcHl0aG9uJywgJy1waHQnLCAnMi4wJywgJy1waCcsICc3LjAnLCAnLXRuJywgJzgnLCAnLW1hJywgJzIwMCcsICctaW1hZScsICc8aW5maWxlLm1hZT4nLCAnLW9tYWUnLCAnPG91dGZpbGUubWFlPic=

>  <r_lp_tautomer_probability>  (124) 
1

>  <r_epik_Ionization_Penalty>  (124) 
1.72851e-05

>  <r_epik_Ionization_Penalty_Charging>  (124) 
0

>  <r_epik_Ionization_Penalty_Neutral>  (124) 
1.72851e-05

>  <r_epik_State_Penalty>  (124) 
-0

>  <r_epik_Charging_Adjusted_Penalty>  (124) 
0

>  <i_epik_Tot_Q>  (124) 
0

>  <i_epik_Tot_abs_Q>  (124) 
0

>  <s_lp_Force_Field>  (124) 
OPLS3e

>  <r_lp_Energy>  (124) 
5.02644

>  <b_lp_Chiralities_Consistent>  (124) 
1

>  <s_lp_Variant>  (124) 
39:0-1

>  <s_i_glide_gridfile>  (124) 
pfpi4k_grid

>  <i_i_glide_lignum>  (124) 
11

>  <i_i_glide_rotatable_bonds>  (124) 
2

>  <r_i_docking_score>  (124) 
-3.68743

>  <r_i_glide_ligand_efficiency>  (124) 
-0.263388

>  <r_i_glide_ligand_efficiency_sa>  (124) 
-0.634803

>  <r_i_glide_ligand_efficiency_ln>  (124) 
-1.01329

>  <r_i_glide_gscore>  (124) 
-3.68743

>  <r_i_glide_lipo>  (124) 
-0.434562

>  <r_i_glide_hbond>  (124) 
-0.114091

>  <r_i_glide_metal>  (124) 
-0

>  <r_i_glide_rewards>  (124) 
-2.06315

>  <r_i_glide_evdw>  (124) 
-20.0444

>  <r_i_glide_ecoul>  (124) 
-2.85176

>  <r_i_glide_erotb>  (124) 
0.375582

>  <r_i_glide_esite>  (124) 
-0.0212239

>  <r_i_glide_emodel>  (124) 
-28.764

>  <r_i_glide_energy>  (124) 
-22.8962

>  <r_i_glide_einternal>  (124) 
0.151372

>  <r_i_glide_intrahb_reward>  (124) 
-0

>  <i_i_glide_confnum>  (124) 
3

>  <i_i_glide_posenum>  (124) 
1

>  <r_i_glide_eff_state_penalty>  (124) 
0

>  <ligand_id>  (124) 
39

>  <original_smiles>  (124) 
CCn1cc(O)n(-c2ccsc2)c1=O

>  <smiles>  (124) 
[H]c1sc([H])c(N2C(=O)N(C([H])([H])C([H])([H])[H])C([H])([H])C2=O)c1[H]

$$$$
39:0:2
     RDKit          3D

 24 25  0  0  1  0  0  0  0  0999 V2000
   -1.8311   -9.2536    2.4784 C   0  0  0  0  0  0  0  0  0  0  0  0
   -0.3874   -9.5785    2.9212 C   0  0  0  0  0  0  0  0  0  0  0  0
    0.0713   -8.6737    3.9672 N   0  0  0  0  0  0  0  0  0  0  0  0
    0.5124   -9.1842    5.2531 C   0  0  0  0  0  0  0  0  0  0  0  0
    0.5986   -7.8825    6.0102 C   0  0  0  0  0  0  0  0  0  0  0  0
    0.8801   -7.8041    7.2013 O   0  0  0  0  0  0  0  0  0  0  0  0
    0.3161   -6.8686    5.1699 N   0  0  0  0  0  0  0  0  0  0  0  0
    0.1349   -5.5127    5.5684 C   0  0  0  0  0  0  0  0  0  0  0  0
    0.6332   -4.4108    4.8138 C   0  0  0  0  0  0  0  0  0  0  0  0
    0.3280   -3.1969    5.3863 C   0  0  0  0  0  0  0  0  0  0  0  0
   -0.5872   -3.4025    6.8579 S   0  0  0  0  0  0  0  0  0  0  0  0
   -0.5663   -5.1408    6.6939 C   0  0  0  0  0  0  0  0  0  0  0  0
    0.0619   -7.3299    3.9300 C   0  0  0  0  0  0  0  0  0  0  0  0
   -0.1937   -6.6344    2.9411 O   0  0  0  0  0  0  0  0  0  0  0  0
   -2.1459   -9.9216    1.6891 H   0  0  0  0  0  0  0  0  0  0  0  0
   -1.9431   -8.2428    2.0864 H   0  0  0  0  0  0  0  0  0  0  0  0
   -2.5289   -9.3640    3.3111 H   0  0  0  0  0  0  0  0  0  0  0  0
   -0.3483  -10.6090    3.2772 H   0  0  0  0  0  0  0  0  0  0  0  0
    0.3054   -9.5187    2.0816 H   0  0  0  0  0  0  0  0  0  0  0  0
    1.4924   -9.6521    5.1957 H   0  0  0  0  0  0  0  0  0  0  0  0
   -0.1992   -9.8711    5.7102 H   0  0  0  0  0  0  0  0  0  0  0  0
    1.1905   -4.5378    3.8985 H   0  0  0  0  0  0  0  0  0  0  0  0
    0.6048   -2.2086    5.0324 H   0  0  0  0  0  0  0  0  0  0  0  0
   -1.0553   -5.7672    7.4281 H   0  0  0  0  0  0  0  0  0  0  0  0
  1  2  1  0
  1 15  1  0
  1 16  1  0
  1 17  1  0
  2 18  1  0
  2 19  1  0
  2  3  1  0
  3  4  1  0
  3 13  1  0
  4  5  1  0
  4 20  1  0
  4 21  1  0
  5  6  2  0
  5  7  1  0
  7 13  1  0
  7  8  1  0
  8 12  2  0
  8  9  1  0
  9 10  2  0
  9 22  1  0
 10 11  1  0
 10 23  1  0
 11 12  1  0
 12 24  1  0
 13 14  2  0
M  END
>  <i_m_ct_stereo_status>  (125) 
1

>  <s_m_source_file>  (125) 
/var/tmp/pbs.5076255.sched01/tmpmqqk35eb/391x3533zq.sdf

>  <i_m_source_file_index>  (125) 
11

>  <i_lp_mmshare_version>  (125) 
48012

>  <i_f3d_flags>  (125) 
0

>  <s_epik_input>  (125) 
W0NIM11bQ0gyXW4xW2NIXWMoW09IXSluKGMxPU8pLWMyW2NIXVtjSF1zW2NIXTI=

>  <s_epik_cmdline>  (125) 
J2VwaWtfcHl0aG9uJywgJy1waHQnLCAnMi4wJywgJy1waCcsICc3LjAnLCAnLXRuJywgJzgnLCAnLW1hJywgJzIwMCcsICctaW1hZScsICc8aW5maWxlLm1hZT4nLCAnLW9tYWUnLCAnPG91dGZpbGUubWFlPic=

>  <r_lp_tautomer_probability>  (125) 
1

>  <r_epik_Ionization_Penalty>  (125) 
1.72851e-05

>  <r_epik_Ionization_Penalty_Charging>  (125) 
0

>  <r_epik_Ionization_Penalty_Neutral>  (125) 
1.72851e-05

>  <r_epik_State_Penalty>  (125) 
-0

>  <r_epik_Charging_Adjusted_Penalty>  (125) 
0

>  <i_epik_Tot_Q>  (125) 
0

>  <i_epik_Tot_abs_Q>  (125) 
0

>  <s_lp_Force_Field>  (125) 
OPLS3e

>  <r_lp_Energy>  (125) 
5.02644

>  <b_lp_Chiralities_Consistent>  (125) 
1

>  <s_lp_Variant>  (125) 
39:0-1

>  <s_i_glide_gridfile>  (125) 
pfpi4k_grid

>  <i_i_glide_lignum>  (125) 
11

>  <i_i_glide_rotatable_bonds>  (125) 
2

>  <r_i_docking_score>  (125) 
-3.48479

>  <r_i_glide_ligand_efficiency>  (125) 
-0.248914

>  <r_i_glide_ligand_efficiency_sa>  (125) 
-0.599917

>  <r_i_glide_ligand_efficiency_ln>  (125) 
-0.957608

>  <r_i_glide_gscore>  (125) 
-3.48479

>  <r_i_glide_lipo>  (125) 
-0.318486

>  <r_i_glide_hbond>  (125) 
-0.16

>  <r_i_glide_metal>  (125) 
-0

>  <r_i_glide_rewards>  (125) 
-1.97554

>  <r_i_glide_evdw>  (125) 
-17.54

>  <r_i_glide_ecoul>  (125) 
-2.78258

>  <r_i_glide_erotb>  (125) 
0.375582

>  <r_i_glide_esite>  (125) 
-0.111956

>  <r_i_glide_emodel>  (125) 
-25.5198

>  <r_i_glide_energy>  (125) 
-20.3226

>  <r_i_glide_einternal>  (125) 
0.66108

>  <r_i_glide_intrahb_reward>  (125) 
-0

>  <i_i_glide_confnum>  (125) 
2

>  <i_i_glide_posenum>  (125) 
16

>  <r_i_glide_eff_state_penalty>  (125) 
0

>  <ligand_id>  (125) 
39

>  <original_smiles>  (125) 
CCn1cc(O)n(-c2ccsc2)c1=O

>  <smiles>  (125) 
[H]c1sc([H])c(N2C(=O)N(C([H])([H])C([H])([H])[H])C([H])([H])C2=O)c1[H]

$$$$
40:0:0
     RDKit          3D

 43 47  0  0  1  0  0  0  0  0999 V2000
    4.8435   -3.4547    2.5368 C   0  0  0  0  0  0  0  0  0  0  0  0
    4.9081   -2.2428    1.5905 C   0  0  1  0  0  0  0  0  0  0  0  0
    5.7652   -2.6296    0.3640 C   0  0  0  0  0  0  0  0  0  0  0  0
    5.1228   -3.8450   -0.3581 C   0  0  1  0  0  0  0  0  0  0  0  0
    5.0317   -5.0471    0.5914 C   0  0  0  0  0  0  0  0  0  0  0  0
    4.1825   -4.6679    1.8242 C   0  0  2  0  0  0  0  0  0  0  0  0
    2.7664   -4.2856    1.3577 C   0  0  0  0  0  0  0  0  0  0  0  0
    2.8434   -3.0723    0.4095 C   0  0  1  0  0  0  0  0  0  0  0  0
    3.4801   -1.8655    1.1471 C   0  0  0  0  0  0  0  0  0  0  0  0
    3.6965   -3.4311   -0.8311 C   0  0  1  0  0  0  0  0  0  0  0  0
    3.7307   -2.3283   -1.7988 N   0  0  2  0  0  0  0  0  0  0  0  0
    2.6122   -2.2046   -2.7584 C   0  0  1  0  0  0  0  0  0  0  0  0
    3.0158   -0.8616   -3.4182 C   0  0  0  0  0  0  0  0  0  0  0  0
    4.5301   -0.9547   -3.4517 C   0  0  0  0  0  0  0  0  0  0  0  0
    4.7917   -2.3089   -2.8087 C   0  0  2  0  0  0  0  0  0  0  0  0
    4.3751   -3.4552   -3.7532 C   0  0  0  0  0  0  0  0  0  0  0  0
    2.8511   -3.3348   -3.7566 C   0  0  0  0  0  0  0  0  0  0  0  0
    4.2784   -3.1914    3.4365 H   0  0  0  0  0  0  0  0  0  0  0  0
    5.8528   -3.7212    2.8496 H   0  0  0  0  0  0  0  0  0  0  0  0
    5.3608   -1.3894    2.0960 H   0  0  0  0  0  0  0  0  0  0  0  0
    5.8474   -1.7576   -0.2831 H   0  0  0  0  0  0  0  0  0  0  0  0
    6.7877   -2.8751    0.6645 H   0  0  0  0  0  0  0  0  0  0  0  0
    5.7322   -4.1831   -1.1954 H   0  0  0  0  0  0  0  0  0  0  0  0
    4.5973   -5.9035    0.0776 H   0  0  0  0  0  0  0  0  0  0  0  0
    6.0358   -5.3393    0.8944 H   0  0  0  0  0  0  0  0  0  0  0  0
    4.1390   -5.5180    2.5092 H   0  0  0  0  0  0  0  0  0  0  0  0
    2.3026   -5.1255    0.8471 H   0  0  0  0  0  0  0  0  0  0  0  0
    2.1359   -4.0589    2.2184 H   0  0  0  0  0  0  0  0  0  0  0  0
    1.8437   -2.8151    0.0898 H   0  0  0  0  0  0  0  0  0  0  0  0
    2.8675   -1.5989    2.0105 H   0  0  0  0  0  0  0  0  0  0  0  0
    3.4862   -0.9819    0.5114 H   0  0  0  0  0  0  0  0  0  0  0  0
    3.2174   -4.2999   -1.2762 H   0  0  0  0  0  0  0  0  0  0  0  0
    1.6251   -2.2591   -2.3212 H   0  0  0  0  0  0  0  0  0  0  0  0
    2.5760   -0.7183   -4.4103 H   0  0  0  0  0  0  0  0  0  0  0  0
    2.6865   -0.0151   -2.8089 H   0  0  0  0  0  0  0  0  0  0  0  0
    4.9288   -0.8887   -4.4595 H   0  0  0  0  0  0  0  0  0  0  0  0
    4.9607   -0.1656   -2.8360 H   0  0  0  0  0  0  0  0  0  0  0  0
    5.8311   -2.3676   -2.4735 H   0  0  0  0  0  0  0  0  0  0  0  0
    4.8194   -3.3693   -4.7391 H   0  0  0  0  0  0  0  0  0  0  0  0
    4.6763   -4.4192   -3.3468 H   0  0  0  0  0  0  0  0  0  0  0  0
    2.3500   -4.2499   -3.4638 H   0  0  0  0  0  0  0  0  0  0  0  0
    2.4387   -3.0375   -4.7180 H   0  0  0  0  0  0  0  0  0  0  0  0
    3.7597   -1.4501   -1.2973 H   0  0  0  0  0  0  0  0  0  0  0  0
  1  6  1  0
  1  2  1  0
  1 18  1  0
  1 19  1  0
  2  9  1  0
  2  3  1  0
  2 20  1  1
  3  4  1  0
  3 21  1  0
  3 22  1  0
  4 10  1  0
  4  5  1  0
  4 23  1  6
  5  6  1  0
  5 24  1  0
  5 25  1  0
  6  7  1  0
  6 26  1  1
  7  8  1  0
  7 27  1  0
  7 28  1  0
  8  9  1  0
  8 10  1  0
  8 29  1  6
  9 30  1  0
  9 31  1  0
 10 11  1  0
 10 32  1  6
 11 15  1  0
 11 12  1  0
 11 43  1  1
 12 17  1  0
 12 13  1  0
 12 33  1  1
 13 14  1  0
 13 34  1  0
 13 35  1  0
 14 15  1  0
 14 36  1  0
 14 37  1  0
 15 16  1  0
 15 38  1  1
 16 17  1  0
 16 39  1  0
 16 40  1  0
 17 41  1  0
 17 42  1  0
M  CHG  1  11   1
M  END
>  <i_m_ct_stereo_status>  (126) 
1

>  <s_m_source_file>  (126) 
/var/tmp/pbs.5076255.sched01/tmpmqqk35eb/391x3533zq.sdf

>  <i_m_source_file_index>  (126) 
12

>  <i_lp_mmshare_version>  (126) 
48012

>  <i_f3d_flags>  (126) 
0

>  <s_epik_input>  (126) 
W0NAQEhdMTJbQ0gyXVtDQEhdM1tDSDJdW0NAQEhdKFtDSDJdMSlbQ0BASF0oW0NASF0oW0NIMl0zKVtDSDJdMilOKFtDQEBIXTQ1KVtDQEhdKFtDSDJdW0NIMl00KVtDSDJdW0NIMl01

>  <s_epik_cmdline>  (126) 
J2VwaWtfcHl0aG9uJywgJy1waHQnLCAnMi4wJywgJy1waCcsICc3LjAnLCAnLXRuJywgJzgnLCAnLW1hJywgJzIwMCcsICctaW1hZScsICc8aW5maWxlLm1hZT4nLCAnLW9tYWUnLCAnPG91dGZpbGUubWFlPic=

>  <r_lp_tautomer_probability>  (126) 
1

>  <r_epik_Ionization_Penalty>  (126) 
7.09147e-05

>  <r_epik_Ionization_Penalty_Charging>  (126) 
7.09147e-05

>  <r_epik_Ionization_Penalty_Neutral>  (126) 
0

>  <r_epik_State_Penalty>  (126) 
-0

>  <r_epik_Charging_Adjusted_Penalty>  (126) 
7.09147e-05

>  <i_epik_Tot_Q>  (126) 
1

>  <i_epik_Tot_abs_Q>  (126) 
1

>  <s_lp_Force_Field>  (126) 
OPLS3e

>  <r_lp_Energy>  (126) 
32.2397

>  <b_lp_Chiralities_Consistent>  (126) 
1

>  <s_lp_Variant>  (126) 
40:0-1

>  <s_i_glide_gridfile>  (126) 
pfpi4k_grid

>  <i_i_glide_lignum>  (126) 
12

>  <i_i_glide_rotatable_bonds>  (126) 
1

>  <r_i_docking_score>  (126) 
-3.88334

>  <r_i_glide_ligand_efficiency>  (126) 
-0.228432

>  <r_i_glide_ligand_efficiency_sa>  (126) 
-0.587362

>  <r_i_glide_ligand_efficiency_ln>  (126) 
-1.01308

>  <r_i_glide_gscore>  (126) 
-3.88334

>  <r_i_glide_lipo>  (126) 
-0.985173

>  <r_i_glide_hbond>  (126) 
0

>  <r_i_glide_metal>  (126) 
-0

>  <r_i_glide_rewards>  (126) 
-1.82465

>  <r_i_glide_evdw>  (126) 
-17.9016

>  <r_i_glide_ecoul>  (126) 
-3.08007

>  <r_i_glide_erotb>  (126) 
0.317189

>  <r_i_glide_esite>  (126) 
-0.0336087

>  <r_i_glide_emodel>  (126) 
-24.6528

>  <r_i_glide_energy>  (126) 
-20.9817

>  <r_i_glide_einternal>  (126) 
2.28027

>  <r_i_glide_intrahb_reward>  (126) 
-0

>  <i_i_glide_confnum>  (126) 
2

>  <i_i_glide_posenum>  (126) 
3

>  <r_i_glide_eff_state_penalty>  (126) 
0

>  <ligand_id>  (126) 
40

>  <original_smiles>  (126) 
C1C2CC3CC1CC(C2)C3N1C2CCC1CC2

>  <smiles>  (126) 
[H]C1([H])C2([H])C([H])([H])C3([H])C([H])([H])C1([H])C([H])([H])C([H])(C2([H])[H])C3([H])[N+]1([H])C2([H])C([H])([H])C([H])([H])C1([H])C([H])([H])C2([H])[H]

$$$$
40:0:1
     RDKit          3D

 43 47  0  0  1  0  0  0  0  0999 V2000
    5.5449   -2.1595    2.0739 C   0  0  0  0  0  0  0  0  0  0  0  0
    5.4108   -1.1970    0.8762 C   0  0  1  0  0  0  0  0  0  0  0  0
    6.1820   -1.7933   -0.3207 C   0  0  0  0  0  0  0  0  0  0  0  0
    5.5965   -3.1807   -0.6799 C   0  0  1  0  0  0  0  0  0  0  0  0
    5.7129   -4.1331    0.5232 C   0  0  0  0  0  0  0  0  0  0  0  0
    4.9484   -3.5457    1.7215 C   0  0  2  0  0  0  0  0  0  0  0  0
    3.4629   -3.3917    1.3522 C   0  0  0  0  0  0  0  0  0  0  0  0
    3.3393   -2.4229    0.1607 C   0  0  1  0  0  0  0  0  0  0  0  0
    3.9170   -1.0366    0.5297 C   0  0  0  0  0  0  0  0  0  0  0  0
    4.0954   -3.0106   -1.0713 C   0  0  1  0  0  0  0  0  0  0  0  0
    3.9348   -2.1367   -2.2646 N   0  0  2  0  0  0  0  0  0  0  0  0
    2.6573   -2.1173   -2.9643 C   0  0  1  0  0  0  0  0  0  0  0  0
    2.8905   -0.9634   -3.9388 C   0  0  0  0  0  0  0  0  0  0  0  0
    4.3394   -1.2054   -4.3009 C   0  0  0  0  0  0  0  0  0  0  0  0
    4.7354   -2.4144   -3.4478 C   0  0  2  0  0  0  0  0  0  0  0  0
    4.1130   -3.6980   -4.0061 C   0  0  0  0  0  0  0  0  0  0  0  0
    2.6234   -3.4519   -3.7350 C   0  0  0  0  0  0  0  0  0  0  0  0
    5.0287   -1.7350    2.9410 H   0  0  0  0  0  0  0  0  0  0  0  0
    6.6096   -2.2657    2.3162 H   0  0  0  0  0  0  0  0  0  0  0  0
    5.8222   -0.2185    1.1360 H   0  0  0  0  0  0  0  0  0  0  0  0
    6.1191   -1.1098   -1.1639 H   0  0  0  0  0  0  0  0  0  0  0  0
    7.2395   -1.8882   -0.0839 H   0  0  0  0  0  0  0  0  0  0  0  0
    6.1588   -3.6535   -1.4883 H   0  0  0  0  0  0  0  0  0  0  0  0
    5.3245   -5.1140    0.2545 H   0  0  0  0  0  0  0  0  0  0  0  0
    6.7665   -4.2667    0.7664 H   0  0  0  0  0  0  0  0  0  0  0  0
    5.0423   -4.2162    2.5738 H   0  0  0  0  0  0  0  0  0  0  0  0
    3.0303   -4.3530    1.0846 H   0  0  0  0  0  0  0  0  0  0  0  0
    2.8919   -3.0147    2.1946 H   0  0  0  0  0  0  0  0  0  0  0  0
    2.2745   -2.3386   -0.0661 H   0  0  0  0  0  0  0  0  0  0  0  0
    3.3729   -0.6187    1.3718 H   0  0  0  0  0  0  0  0  0  0  0  0
    3.8020   -0.3194   -0.2813 H   0  0  0  0  0  0  0  0  0  0  0  0
    3.6857   -4.0192   -1.2466 H   0  0  0  0  0  0  0  0  0  0  0  0
    1.8168   -1.9413   -2.3222 H   0  0  0  0  0  0  0  0  0  0  0  0
    2.2225   -0.9870   -4.7915 H   0  0  0  0  0  0  0  0  0  0  0  0
    2.7799    0.0181   -3.4633 H   0  0  0  0  0  0  0  0  0  0  0  0
    4.5006   -1.3559   -5.3631 H   0  0  0  0  0  0  0  0  0  0  0  0
    4.9014   -0.3331   -3.9867 H   0  0  0  0  0  0  0  0  0  0  0  0
    5.8028   -2.4709   -3.2945 H   0  0  0  0  0  0  0  0  0  0  0  0
    4.3456   -3.8653   -5.0573 H   0  0  0  0  0  0  0  0  0  0  0  0
    4.4923   -4.5572   -3.4565 H   0  0  0  0  0  0  0  0  0  0  0  0
    2.1927   -4.2113   -3.0885 H   0  0  0  0  0  0  0  0  0  0  0  0
    2.0139   -3.3908   -4.6355 H   0  0  0  0  0  0  0  0  0  0  0  0
    4.1115   -1.1801   -1.9911 H   0  0  0  0  0  0  0  0  0  0  0  0
  1  6  1  0
  1  2  1  0
  1 18  1  0
  1 19  1  0
  2  9  1  0
  2  3  1  0
  2 20  1  1
  3  4  1  0
  3 21  1  0
  3 22  1  0
  4 10  1  0
  4  5  1  0
  4 23  1  6
  5  6  1  0
  5 24  1  0
  5 25  1  0
  6  7  1  0
  6 26  1  1
  7  8  1  0
  7 27  1  0
  7 28  1  0
  8  9  1  0
  8 10  1  0
  8 29  1  6
  9 30  1  0
  9 31  1  0
 10 11  1  0
 10 32  1  6
 11 15  1  0
 11 12  1  0
 11 43  1  1
 12 17  1  0
 12 13  1  0
 12 33  1  1
 13 14  1  0
 13 34  1  0
 13 35  1  0
 14 15  1  0
 14 36  1  0
 14 37  1  0
 15 16  1  0
 15 38  1  1
 16 17  1  0
 16 39  1  0
 16 40  1  0
 17 41  1  0
 17 42  1  0
M  CHG  1  11   1
M  END
>  <i_m_ct_stereo_status>  (127) 
1

>  <s_m_source_file>  (127) 
/var/tmp/pbs.5076255.sched01/tmpmqqk35eb/391x3533zq.sdf

>  <i_m_source_file_index>  (127) 
12

>  <i_lp_mmshare_version>  (127) 
48012

>  <i_f3d_flags>  (127) 
0

>  <s_epik_input>  (127) 
W0NAQEhdMTJbQ0gyXVtDQEhdM1tDSDJdW0NAQEhdKFtDSDJdMSlbQ0BASF0oW0NASF0oW0NIMl0zKVtDSDJdMilOKFtDQEBIXTQ1KVtDQEhdKFtDSDJdW0NIMl00KVtDSDJdW0NIMl01

>  <s_epik_cmdline>  (127) 
J2VwaWtfcHl0aG9uJywgJy1waHQnLCAnMi4wJywgJy1waCcsICc3LjAnLCAnLXRuJywgJzgnLCAnLW1hJywgJzIwMCcsICctaW1hZScsICc8aW5maWxlLm1hZT4nLCAnLW9tYWUnLCAnPG91dGZpbGUubWFlPic=

>  <r_lp_tautomer_probability>  (127) 
1

>  <r_epik_Ionization_Penalty>  (127) 
7.09147e-05

>  <r_epik_Ionization_Penalty_Charging>  (127) 
7.09147e-05

>  <r_epik_Ionization_Penalty_Neutral>  (127) 
0

>  <r_epik_State_Penalty>  (127) 
-0

>  <r_epik_Charging_Adjusted_Penalty>  (127) 
7.09147e-05

>  <i_epik_Tot_Q>  (127) 
1

>  <i_epik_Tot_abs_Q>  (127) 
1

>  <s_lp_Force_Field>  (127) 
OPLS3e

>  <r_lp_Energy>  (127) 
32.2397

>  <b_lp_Chiralities_Consistent>  (127) 
1

>  <s_lp_Variant>  (127) 
40:0-1

>  <s_i_glide_gridfile>  (127) 
pfpi4k_grid

>  <i_i_glide_lignum>  (127) 
12

>  <i_i_glide_rotatable_bonds>  (127) 
1

>  <r_i_docking_score>  (127) 
-3.21173

>  <r_i_glide_ligand_efficiency>  (127) 
-0.188926

>  <r_i_glide_ligand_efficiency_sa>  (127) 
-0.485781

>  <r_i_glide_ligand_efficiency_ln>  (127) 
-0.83787

>  <r_i_glide_gscore>  (127) 
-3.21173

>  <r_i_glide_lipo>  (127) 
-0.684054

>  <r_i_glide_hbond>  (127) 
0

>  <r_i_glide_metal>  (127) 
-0

>  <r_i_glide_rewards>  (127) 
-1.82465

>  <r_i_glide_evdw>  (127) 
-13.578

>  <r_i_glide_ecoul>  (127) 
-2.21101

>  <r_i_glide_erotb>  (127) 
0.317189

>  <r_i_glide_esite>  (127) 
-0.00966798

>  <r_i_glide_emodel>  (127) 
-19.5034

>  <r_i_glide_energy>  (127) 
-15.789

>  <r_i_glide_einternal>  (127) 
0.719317

>  <r_i_glide_intrahb_reward>  (127) 
-0

>  <i_i_glide_confnum>  (127) 
1

>  <i_i_glide_posenum>  (127) 
1

>  <r_i_glide_eff_state_penalty>  (127) 
0

>  <ligand_id>  (127) 
40

>  <original_smiles>  (127) 
C1C2CC3CC1CC(C2)C3N1C2CCC1CC2

>  <smiles>  (127) 
[H]C1([H])C2([H])C([H])([H])C3([H])C([H])([H])C1([H])C([H])([H])C([H])(C2([H])[H])C3([H])[N+]1([H])C2([H])C([H])([H])C([H])([H])C1([H])C([H])([H])C2([H])[H]

$$$$
40:0:2
     RDKit          3D

 43 47  0  0  1  0  0  0  0  0999 V2000
    4.4072   -1.3349   -4.3205 C   0  0  0  0  0  0  0  0  0  0  0  0
    4.5252   -2.7960   -3.8733 C   0  0  1  0  0  0  0  0  0  0  0  0
    5.5695   -2.9114   -2.7430 C   0  0  0  0  0  0  0  0  0  0  0  0
    5.1475   -2.0091   -1.5571 C   0  0  1  0  0  0  0  0  0  0  0  0
    5.0131   -0.5678   -1.9989 C   0  0  0  0  0  0  0  0  0  0  0  0
    4.0491   -0.4365   -3.1413 C   0  0  2  0  0  0  0  0  0  0  0  0
    2.7551   -0.9421   -2.6372 C   0  0  0  0  0  0  0  0  0  0  0  0
    2.7683   -2.3834   -2.1632 C   0  0  1  0  0  0  0  0  0  0  0  0
    3.1566   -3.2459   -3.3681 C   0  0  0  0  0  0  0  0  0  0  0  0
    3.7826   -2.4778   -1.0151 C   0  0  1  0  0  0  0  0  0  0  0  0
    3.8701   -3.8598   -0.5396 N   0  0  2  0  0  0  0  0  0  0  0  0
    2.8593   -4.3218    0.4143 C   0  0  1  0  0  0  0  0  0  0  0  0
    3.2750   -5.7871    0.5379 C   0  0  0  0  0  0  0  0  0  0  0  0
    4.8108   -5.7153    0.4349 C   0  0  0  0  0  0  0  0  0  0  0  0
    5.0378   -4.2184    0.2773 C   0  0  2  0  0  0  0  0  0  0  0  0
    4.7627   -3.4893    1.6058 C   0  0  0  0  0  0  0  0  0  0  0  0
    3.2300   -3.5995    1.7246 C   0  0  0  0  0  0  0  0  0  0  0  0
    3.7024   -1.2127   -5.1497 H   0  0  0  0  0  0  0  0  0  0  0  0
    5.3456   -1.0109   -4.7129 H   0  0  0  0  0  0  0  0  0  0  0  0
    4.8203   -3.4429   -4.7000 H   0  0  0  0  0  0  0  0  0  0  0  0
    5.6669   -3.9479   -2.4388 H   0  0  0  0  0  0  0  0  0  0  0  0
    6.5648   -2.6647   -3.1041 H   0  0  0  0  0  0  0  0  0  0  0  0
    5.9016   -1.9930   -0.7762 H   0  0  0  0  0  0  0  0  0  0  0  0
    4.6935    0.0741   -1.1779 H   0  0  0  0  0  0  0  0  0  0  0  0
    5.9727   -0.1978   -2.3055 H   0  0  0  0  0  0  0  0  0  0  0  0
    3.9293    0.6012   -3.4749 H   0  0  0  0  0  0  0  0  0  0  0  0
    2.3064   -0.2516   -1.9329 H   0  0  0  0  0  0  0  0  0  0  0  0
    2.2365   -0.9038   -3.5761 H   0  0  0  0  0  0  0  0  0  0  0  0
    1.7758   -2.6879   -1.8327 H   0  0  0  0  0  0  0  0  0  0  0  0
    2.4008   -3.1906   -4.1603 H   0  0  0  0  0  0  0  0  0  0  0  0
    3.2192   -4.2442   -3.0811 H   0  0  0  0  0  0  0  0  0  0  0  0
    3.4600   -1.8076   -0.2098 H   0  0  0  0  0  0  0  0  0  0  0  0
    1.8268   -4.1813    0.0883 H   0  0  0  0  0  0  0  0  0  0  0  0
    2.9332   -6.2630    1.4531 H   0  0  0  0  0  0  0  0  0  0  0  0
    2.8732   -6.3248   -0.3109 H   0  0  0  0  0  0  0  0  0  0  0  0
    5.3245   -6.1119    1.3066 H   0  0  0  0  0  0  0  0  0  0  0  0
    5.1717   -6.2418   -0.4513 H   0  0  0  0  0  0  0  0  0  0  0  0
    6.0178   -4.0101   -0.1539 H   0  0  0  0  0  0  0  0  0  0  0  0
    5.2886   -3.9506    2.4382 H   0  0  0  0  0  0  0  0  0  0  0  0
    5.0661   -2.4418    1.5560 H   0  0  0  0  0  0  0  0  0  0  0  0
    2.7628   -2.6150    1.7910 H   0  0  0  0  0  0  0  0  0  0  0  0
    2.9269   -4.1701    2.6013 H   0  0  0  0  0  0  0  0  0  0  0  0
    3.8386   -4.4298   -1.3823 H   0  0  0  0  0  0  0  0  0  0  0  0
  1  6  1  0
  1  2  1  0
  1 18  1  0
  1 19  1  0
  2  9  1  0
  2  3  1  0
  2 20  1  6
  3  4  1  0
  3 21  1  0
  3 22  1  0
  4 10  1  0
  4  5  1  0
  4 23  1  1
  5  6  1  0
  5 24  1  0
  5 25  1  0
  6  7  1  0
  6 26  1  6
  7  8  1  0
  7 27  1  0
  7 28  1  0
  8  9  1  0
  8 10  1  0
  8 29  1  1
  9 30  1  0
  9 31  1  0
 10 11  1  0
 10 32  1  1
 11 15  1  0
 11 12  1  0
 11 43  1  6
 12 17  1  0
 12 13  1  0
 12 33  1  6
 13 14  1  0
 13 34  1  0
 13 35  1  0
 14 15  1  0
 14 36  1  0
 14 37  1  0
 15 16  1  0
 15 38  1  6
 16 17  1  0
 16 39  1  0
 16 40  1  0
 17 41  1  0
 17 42  1  0
M  CHG  1  11   1
M  END
>  <i_m_ct_stereo_status>  (128) 
1

>  <s_m_source_file>  (128) 
/var/tmp/pbs.5076255.sched01/tmpmqqk35eb/391x3533zq.sdf

>  <i_m_source_file_index>  (128) 
12

>  <i_lp_mmshare_version>  (128) 
48012

>  <i_f3d_flags>  (128) 
0

>  <s_epik_input>  (128) 
W0NAQEhdMTJbQ0gyXVtDQEhdM1tDSDJdW0NAQEhdKFtDSDJdMSlbQ0BASF0oW0NASF0oW0NIMl0zKVtDSDJdMilOKFtDQEBIXTQ1KVtDQEhdKFtDSDJdW0NIMl00KVtDSDJdW0NIMl01

>  <s_epik_cmdline>  (128) 
J2VwaWtfcHl0aG9uJywgJy1waHQnLCAnMi4wJywgJy1waCcsICc3LjAnLCAnLXRuJywgJzgnLCAnLW1hJywgJzIwMCcsICctaW1hZScsICc8aW5maWxlLm1hZT4nLCAnLW9tYWUnLCAnPG91dGZpbGUubWFlPic=

>  <r_lp_tautomer_probability>  (128) 
1

>  <r_epik_Ionization_Penalty>  (128) 
7.09147e-05

>  <r_epik_Ionization_Penalty_Charging>  (128) 
7.09147e-05

>  <r_epik_Ionization_Penalty_Neutral>  (128) 
0

>  <r_epik_State_Penalty>  (128) 
-0

>  <r_epik_Charging_Adjusted_Penalty>  (128) 
7.09147e-05

>  <i_epik_Tot_Q>  (128) 
1

>  <i_epik_Tot_abs_Q>  (128) 
1

>  <s_lp_Force_Field>  (128) 
OPLS3e

>  <r_lp_Energy>  (128) 
32.2397

>  <b_lp_Chiralities_Consistent>  (128) 
1

>  <s_lp_Variant>  (128) 
40:0-1

>  <s_i_glide_gridfile>  (128) 
pfpi4k_grid

>  <i_i_glide_lignum>  (128) 
12

>  <i_i_glide_rotatable_bonds>  (128) 
1

>  <r_i_docking_score>  (128) 
-2.67859

>  <r_i_glide_ligand_efficiency>  (128) 
-0.157564

>  <r_i_glide_ligand_efficiency_sa>  (128) 
-0.405142

>  <r_i_glide_ligand_efficiency_ln>  (128) 
-0.698786

>  <r_i_glide_gscore>  (128) 
-2.67859

>  <r_i_glide_lipo>  (128) 
-0.774261

>  <r_i_glide_hbond>  (128) 
0

>  <r_i_glide_metal>  (128) 
-0

>  <r_i_glide_rewards>  (128) 
-1.82465

>  <r_i_glide_evdw>  (128) 
3.76311

>  <r_i_glide_ecoul>  (128) 
-3.84211

>  <r_i_glide_erotb>  (128) 
0.317189

>  <r_i_glide_esite>  (128) 
-0.00870956

>  <r_i_glide_emodel>  (128) 
-0.577367

>  <r_i_glide_energy>  (128) 
-0.0790014

>  <r_i_glide_einternal>  (128) 
1.55243

>  <r_i_glide_intrahb_reward>  (128) 
-0

>  <i_i_glide_confnum>  (128) 
2

>  <i_i_glide_posenum>  (128) 
32

>  <r_i_glide_eff_state_penalty>  (128) 
0

>  <ligand_id>  (128) 
40

>  <original_smiles>  (128) 
C1C2CC3CC1CC(C2)C3N1C2CCC1CC2

>  <smiles>  (128) 
[H]C1([H])C2([H])C([H])([H])C3([H])C([H])([H])C1([H])C([H])([H])C([H])(C2([H])[H])C3([H])[N+]1([H])C2([H])C([H])([H])C([H])([H])C1([H])C([H])([H])C2([H])[H]

$$$$
41:0:0
     RDKit          3D

 53 57  0  0  1  0  0  0  0  0999 V2000
    2.7854   -3.5610    6.0263 C   0  0  0  0  0  0  0  0  0  0  0  0
    3.8149   -3.4081    4.8908 C   0  0  2  0  0  0  0  0  0  0  0  0
    3.7345   -1.9914    4.2868 C   0  0  0  0  0  0  0  0  0  0  0  0
    4.8103   -1.7636    3.2157 C   0  0  0  0  0  0  0  0  0  0  0  0
    4.7842   -2.8293    2.0999 C   0  0  1  0  0  0  0  0  0  0  0  0
    4.7698   -4.2552    2.6946 C   0  0  1  0  0  0  0  0  0  0  0  0
    3.6537   -4.4541    3.7538 C   0  0  1  0  0  0  0  0  0  0  0  0
    3.7019   -5.9144    4.2223 C   0  0  0  0  0  0  0  0  0  0  0  0
    3.3812   -6.9103    3.0952 C   0  0  0  0  0  0  0  0  0  0  0  0
    3.7744   -6.4849    1.6488 C   0  0  1  0  0  0  0  0  0  0  0  0
    4.2583   -7.7263    0.8872 C   0  0  0  0  0  0  0  0  0  0  0  0
    2.6382   -6.0894    0.8815 O   0  0  0  0  0  0  0  0  0  0  0  0
    2.4737   -4.6028    0.9925 O   0  0  0  0  0  0  0  0  0  0  0  0
    3.4722   -3.9697    0.2482 C   0  0  1  0  0  0  0  0  0  0  0  0
    4.6599   -4.7015    0.2984 O   0  0  0  0  0  0  0  0  0  0  0  0
    4.8253   -5.3370    1.5700 C   0  0  1  0  0  0  0  0  0  0  0  0
    2.9884   -3.8450   -1.0663 O   0  0  0  0  0  0  0  0  0  0  0  0
    3.5822   -2.9034   -1.9137 C   0  0  0  0  0  0  0  0  0  0  0  0
    5.1046   -3.0640   -2.1799 C   0  0  0  0  0  0  0  0  0  0  0  0
    2.7475   -2.7411   -3.1876 C   0  0  0  0  0  0  0  0  0  0  0  0
    3.4137   -1.4823   -1.2342 N   0  0  0  0  0  0  0  0  0  0  0  0
    4.0677   -1.4187    0.0807 C   0  0  0  0  0  0  0  0  0  0  0  0
    3.6945   -2.6050    1.0008 C   0  0  2  0  0  0  0  0  0  0  0  0
    1.7622   -3.5600    5.6498 H   0  0  0  0  0  0  0  0  0  0  0  0
    2.8767   -2.7466    6.7473 H   0  0  0  0  0  0  0  0  0  0  0  0
    2.9386   -4.4844    6.5854 H   0  0  0  0  0  0  0  0  0  0  0  0
    4.8014   -3.5230    5.3441 H   0  0  0  0  0  0  0  0  0  0  0  0
    2.7486   -1.8272    3.8521 H   0  0  0  0  0  0  0  0  0  0  0  0
    3.8542   -1.2443    5.0755 H   0  0  0  0  0  0  0  0  0  0  0  0
    4.7315   -0.7568    2.8057 H   0  0  0  0  0  0  0  0  0  0  0  0
    5.7811   -1.8073    3.7090 H   0  0  0  0  0  0  0  0  0  0  0  0
    5.7450   -2.7426    1.5877 H   0  0  0  0  0  0  0  0  0  0  0  0
    5.7085   -4.3665    3.2324 H   0  0  0  0  0  0  0  0  0  0  0  0
    2.6732   -4.2819    3.3179 H   0  0  0  0  0  0  0  0  0  0  0  0
    4.6989   -6.1278    4.6032 H   0  0  0  0  0  0  0  0  0  0  0  0
    3.0148   -6.0937    5.0509 H   0  0  0  0  0  0  0  0  0  0  0  0
    3.8731   -7.8541    3.3533 H   0  0  0  0  0  0  0  0  0  0  0  0
    2.3129   -7.1182    3.1175 H   0  0  0  0  0  0  0  0  0  0  0  0
    5.1613   -8.1348    1.3434 H   0  0  0  0  0  0  0  0  0  0  0  0
    4.4806   -7.4833   -0.1538 H   0  0  0  0  0  0  0  0  0  0  0  0
    3.4983   -8.5142    0.8901 H   0  0  0  0  0  0  0  0  0  0  0  0
    5.8134   -5.7923    1.5817 H   0  0  0  0  0  0  0  0  0  0  0  0
    5.4627   -2.2377   -2.7964 H   0  0  0  0  0  0  0  0  0  0  0  0
    5.2889   -3.9850   -2.7318 H   0  0  0  0  0  0  0  0  0  0  0  0
    5.6996   -3.0962   -1.2722 H   0  0  0  0  0  0  0  0  0  0  0  0
    3.1251   -1.9291   -3.8147 H   0  0  0  0  0  0  0  0  0  0  0  0
    1.7058   -2.5514   -2.9307 H   0  0  0  0  0  0  0  0  0  0  0  0
    2.7891   -3.6657   -3.7637 H   0  0  0  0  0  0  0  0  0  0  0  0
    3.7695   -0.7458   -1.8213 H   0  0  0  0  0  0  0  0  0  0  0  0
    5.1466   -1.3417   -0.0612 H   0  0  0  0  0  0  0  0  0  0  0  0
    3.7726   -0.4872    0.5632 H   0  0  0  0  0  0  0  0  0  0  0  0
    2.7375   -2.3576    1.4619 H   0  0  0  0  0  0  0  0  0  0  0  0
    2.4118   -1.2963   -1.0884 H   0  0  0  0  0  0  0  0  0  0  0  0
  1  2  1  0
  1 24  1  0
  1 25  1  0
  1 26  1  0
  2  7  1  0
  2  3  1  0
  2 27  1  1
  3  4  1  0
  3 28  1  0
  3 29  1  0
  4  5  1  0
  4 30  1  0
  4 31  1  0
  5 23  1  0
  5  6  1  0
  5 32  1  6
  6 16  1  0
  6  7  1  0
  6 33  1  1
  7  8  1  0
  7 34  1  6
  8  9  1  0
  8 35  1  0
  8 36  1  0
  9 10  1  0
  9 37  1  0
  9 38  1  0
 10 16  1  0
 10 11  1  6
 10 12  1  0
 11 39  1  0
 11 40  1  0
 11 41  1  0
 12 13  1  0
 14 13  1  1
 14 23  1  0
 14 15  1  0
 14 17  1  0
 15 16  1  0
 16 42  1  6
 17 18  1  0
 18 19  1  0
 18 20  1  0
 18 21  1  0
 19 43  1  0
 19 44  1  0
 19 45  1  0
 20 46  1  0
 20 47  1  0
 20 48  1  0
 21 22  1  0
 21 49  1  0
 21 53  1  0
 22 23  1  0
 22 50  1  0
 22 51  1  0
 23 52  1  1
M  CHG  1  21   1
M  END
>  <i_m_ct_stereo_status>  (129) 
1

>  <s_m_source_file>  (129) 
/var/tmp/pbs.5076255.sched01/tmpmqqk35eb/391x3533zq.sdf

>  <i_m_source_file_index>  (129) 
13

>  <i_lp_mmshare_version>  (129) 
48012

>  <i_f3d_flags>  (129) 
0

>  <s_epik_input>  (129) 
TzFPW0NAQF0oW0NIM10pKFtDQEhdMk8zKVtDSDJdW0NIMl1bQ0BASF0oW0NASF0oW0NIM10pW0NIMl1bQ0gyXTQpW0NAQEhdMltDQEhdNFtDQEhdKFtDQF0xMzUpW0NIMl1bTkhdQyhPNSkoW0NIM10pW0NIM10=

>  <s_epik_cmdline>  (129) 
J2VwaWtfcHl0aG9uJywgJy1waHQnLCAnMi4wJywgJy1waCcsICc3LjAnLCAnLXRuJywgJzgnLCAnLW1hJywgJzIwMCcsICctaW1hZScsICc8aW5maWxlLm1hZT4nLCAnLW9tYWUnLCAnPG91dGZpbGUubWFlPic=

>  <r_epik_Ionization_Penalty>  (129) 
0.324959

>  <r_epik_Ionization_Penalty_Charging>  (129) 
0.324959

>  <r_epik_Ionization_Penalty_Neutral>  (129) 
0

>  <r_epik_State_Penalty>  (129) 
0.319724

>  <r_epik_Charging_Adjusted_Penalty>  (129) 
0.644683

>  <i_epik_Tot_Q>  (129) 
1

>  <i_epik_Tot_abs_Q>  (129) 
1

>  <s_lp_Force_Field>  (129) 
OPLS3e

>  <r_lp_Energy>  (129) 
43.7483

>  <b_lp_Chiralities_Consistent>  (129) 
1

>  <s_lp_Variant>  (129) 
41:0-1

>  <s_i_glide_gridfile>  (129) 
pfpi4k_grid

>  <i_i_glide_lignum>  (129) 
13

>  <i_i_glide_rotatable_bonds>  (129) 
0

>  <r_i_docking_score>  (129) 
-3.84012

>  <r_i_glide_ligand_efficiency>  (129) 
-0.166962

>  <r_i_glide_ligand_efficiency_sa>  (129) 
-0.474817

>  <r_i_glide_ligand_efficiency_ln>  (129) 
-0.928576

>  <r_i_glide_gscore>  (129) 
-3.84012

>  <r_i_glide_lipo>  (129) 
-0.489291

>  <r_i_glide_hbond>  (129) 
-0.2

>  <r_i_glide_metal>  (129) 
-0

>  <r_i_glide_rewards>  (129) 
-1.19703

>  <r_i_glide_evdw>  (129) 
-22.4816

>  <r_i_glide_ecoul>  (129) 
-4.69808

>  <r_i_glide_erotb>  (129) 
0

>  <r_i_glide_esite>  (129) 
-0.125004

>  <r_i_glide_emodel>  (129) 
-35.792

>  <r_i_glide_energy>  (129) 
-27.1797

>  <r_i_glide_einternal>  (129) 
0

>  <r_i_glide_intrahb_reward>  (129) 
-0

>  <i_i_glide_confnum>  (129) 
2

>  <i_i_glide_posenum>  (129) 
1

>  <r_i_glide_eff_state_penalty>  (129) 
0

>  <ligand_id>  (129) 
41

>  <original_smiles>  (129) 
CC1CCC2C3C1CCC1(C)OOC4(OC31)OC(C)(C)NCC24

>  <smiles>  (129) 
[H]C([H])([H])C1([H])C([H])([H])C([H])([H])C2([H])C3([H])C4([H])OC5(OOC4(C([H])([H])[H])C([H])([H])C([H])([H])C13[H])OC(C([H])([H])[H])(C([H])([H])[H])[N+]([H])([H])C([H])([H])C52[H]

$$$$
41:0:1
     RDKit          3D

 53 57  0  0  1  0  0  0  0  0999 V2000
    3.2617   -1.1179    5.3220 C   0  0  0  0  0  0  0  0  0  0  0  0
    4.1980   -1.4901    4.1565 C   0  0  2  0  0  0  0  0  0  0  0  0
    4.2858   -0.3233    3.1518 C   0  0  0  0  0  0  0  0  0  0  0  0
    5.2868   -0.6185    2.0266 C   0  0  0  0  0  0  0  0  0  0  0  0
    4.9966   -1.9344    1.2898 C   0  0  1  0  0  0  0  0  0  0  0  0
    4.8180   -3.0988    2.2919 C   0  0  1  0  0  0  0  0  0  0  0  0
    3.7792   -2.7777    3.3991 C   0  0  1  0  0  0  0  0  0  0  0  0
    3.6452   -4.0192    4.2878 C   0  0  0  0  0  0  0  0  0  0  0  0
    3.0752   -5.2281    3.5278 C   0  0  0  0  0  0  0  0  0  0  0  0
    3.4055   -5.3273    2.0096 C   0  0  1  0  0  0  0  0  0  0  0  0
    3.6193   -6.8012    1.6423 C   0  0  0  0  0  0  0  0  0  0  0  0
    2.2809   -4.9871    1.1996 O   0  0  0  0  0  0  0  0  0  0  0  0
    2.3629   -3.5298    0.8594 O   0  0  0  0  0  0  0  0  0  0  0  0
    3.3726   -3.3208   -0.0796 C   0  0  1  0  0  0  0  0  0  0  0  0
    4.4345   -4.2008    0.1506 O   0  0  0  0  0  0  0  0  0  0  0  0
    4.6122   -4.4576    1.5457 C   0  0  1  0  0  0  0  0  0  0  0  0
    2.7959   -3.5017   -1.3440 O   0  0  0  0  0  0  0  0  0  0  0  0
    3.4493   -2.9751   -2.4562 C   0  0  0  0  0  0  0  0  0  0  0  0
    4.9019   -3.4605   -2.7192 C   0  0  0  0  0  0  0  0  0  0  0  0
    2.5440   -3.0547   -3.6875 C   0  0  0  0  0  0  0  0  0  0  0  0
    3.5507   -1.4120   -2.2275 N   0  0  0  0  0  0  0  0  0  0  0  0
    4.3381   -1.0892   -1.0343 C   0  0  0  0  0  0  0  0  0  0  0  0
    3.8637   -1.8577    0.2194 C   0  0  2  0  0  0  0  0  0  0  0  0
    2.2213   -1.0497    4.9996 H   0  0  0  0  0  0  0  0  0  0  0  0
    3.5395   -0.1548    5.7553 H   0  0  0  0  0  0  0  0  0  0  0  0
    3.3183   -1.8474    6.1311 H   0  0  0  0  0  0  0  0  0  0  0  0
    5.1909   -1.6348    4.5866 H   0  0  0  0  0  0  0  0  0  0  0  0
    3.3011   -0.1227    2.7255 H   0  0  0  0  0  0  0  0  0  0  0  0
    4.5876    0.5919    3.6681 H   0  0  0  0  0  0  0  0  0  0  0  0
    5.3181    0.2087    1.3196 H   0  0  0  0  0  0  0  0  0  0  0  0
    6.2804   -0.6753    2.4702 H   0  0  0  0  0  0  0  0  0  0  0  0
    5.9088   -2.1733    0.7415 H   0  0  0  0  0  0  0  0  0  0  0  0
    5.7746   -3.2035    2.8057 H   0  0  0  0  0  0  0  0  0  0  0  0
    2.7997   -2.5712    2.9721 H   0  0  0  0  0  0  0  0  0  0  0  0
    4.6259   -4.2788    4.6824 H   0  0  0  0  0  0  0  0  0  0  0  0
    3.0114   -3.8281    5.1531 H   0  0  0  0  0  0  0  0  0  0  0  0
    3.4291   -6.1219    4.0440 H   0  0  0  0  0  0  0  0  0  0  0  0
    1.9925   -5.2345    3.6489 H   0  0  0  0  0  0  0  0  0  0  0  0
    4.4820   -7.2120    2.1681 H   0  0  0  0  0  0  0  0  0  0  0  0
    3.7854   -6.9179    0.5710 H   0  0  0  0  0  0  0  0  0  0  0  0
    2.7488   -7.4044    1.9102 H   0  0  0  0  0  0  0  0  0  0  0  0
    5.5225   -5.0497    1.6607 H   0  0  0  0  0  0  0  0  0  0  0  0
    5.3280   -2.9230   -3.5671 H   0  0  0  0  0  0  0  0  0  0  0  0
    4.8913   -4.5198   -2.9744 H   0  0  0  0  0  0  0  0  0  0  0  0
    5.5612   -3.3347   -1.8652 H   0  0  0  0  0  0  0  0  0  0  0  0
    2.9937   -2.5425   -4.5386 H   0  0  0  0  0  0  0  0  0  0  0  0
    1.5668   -2.6276   -3.4722 H   0  0  0  0  0  0  0  0  0  0  0  0
    2.3969   -4.0977   -3.9555 H   0  0  0  0  0  0  0  0  0  0  0  0
    3.9617   -0.9565   -3.0314 H   0  0  0  0  0  0  0  0  0  0  0  0
    5.3978   -1.2502   -1.2348 H   0  0  0  0  0  0  0  0  0  0  0  0
    4.2378   -0.0245   -0.8322 H   0  0  0  0  0  0  0  0  0  0  0  0
    2.9965   -1.3204    0.6099 H   0  0  0  0  0  0  0  0  0  0  0  0
    2.6194   -1.0391   -2.0886 H   0  0  0  0  0  0  0  0  0  0  0  0
  1  2  1  0
  1 24  1  0
  1 25  1  0
  1 26  1  0
  2  7  1  0
  2  3  1  0
  2 27  1  1
  3  4  1  0
  3 28  1  0
  3 29  1  0
  4  5  1  0
  4 30  1  0
  4 31  1  0
  5 23  1  0
  5  6  1  0
  5 32  1  6
  6 16  1  0
  6  7  1  0
  6 33  1  1
  7  8  1  0
  7 34  1  6
  8  9  1  0
  8 35  1  0
  8 36  1  0
  9 10  1  0
  9 37  1  0
  9 38  1  0
 10 16  1  0
 10 11  1  6
 10 12  1  0
 11 39  1  0
 11 40  1  0
 11 41  1  0
 12 13  1  0
 14 13  1  1
 14 23  1  0
 14 15  1  0
 14 17  1  0
 15 16  1  0
 16 42  1  6
 17 18  1  0
 18 19  1  0
 18 20  1  0
 18 21  1  0
 19 43  1  0
 19 44  1  0
 19 45  1  0
 20 46  1  0
 20 47  1  0
 20 48  1  0
 21 22  1  0
 21 49  1  0
 21 53  1  0
 22 23  1  0
 22 50  1  0
 22 51  1  0
 23 52  1  1
M  CHG  1  21   1
M  END
>  <i_m_ct_stereo_status>  (130) 
1

>  <s_m_source_file>  (130) 
/var/tmp/pbs.5076255.sched01/tmpmqqk35eb/391x3533zq.sdf

>  <i_m_source_file_index>  (130) 
13

>  <i_lp_mmshare_version>  (130) 
48012

>  <i_f3d_flags>  (130) 
0

>  <s_epik_input>  (130) 
TzFPW0NAQF0oW0NIM10pKFtDQEhdMk8zKVtDSDJdW0NIMl1bQ0BASF0oW0NASF0oW0NIM10pW0NIMl1bQ0gyXTQpW0NAQEhdMltDQEhdNFtDQEhdKFtDQF0xMzUpW0NIMl1bTkhdQyhPNSkoW0NIM10pW0NIM10=

>  <s_epik_cmdline>  (130) 
J2VwaWtfcHl0aG9uJywgJy1waHQnLCAnMi4wJywgJy1waCcsICc3LjAnLCAnLXRuJywgJzgnLCAnLW1hJywgJzIwMCcsICctaW1hZScsICc8aW5maWxlLm1hZT4nLCAnLW9tYWUnLCAnPG91dGZpbGUubWFlPic=

>  <r_epik_Ionization_Penalty>  (130) 
0.324959

>  <r_epik_Ionization_Penalty_Charging>  (130) 
0.324959

>  <r_epik_Ionization_Penalty_Neutral>  (130) 
0

>  <r_epik_State_Penalty>  (130) 
0.319724

>  <r_epik_Charging_Adjusted_Penalty>  (130) 
0.644683

>  <i_epik_Tot_Q>  (130) 
1

>  <i_epik_Tot_abs_Q>  (130) 
1

>  <s_lp_Force_Field>  (130) 
OPLS3e

>  <r_lp_Energy>  (130) 
43.7483

>  <b_lp_Chiralities_Consistent>  (130) 
1

>  <s_lp_Variant>  (130) 
41:0-1

>  <s_i_glide_gridfile>  (130) 
pfpi4k_grid

>  <i_i_glide_lignum>  (130) 
13

>  <i_i_glide_rotatable_bonds>  (130) 
0

>  <r_i_docking_score>  (130) 
-3.57274

>  <r_i_glide_ligand_efficiency>  (130) 
-0.155337

>  <r_i_glide_ligand_efficiency_sa>  (130) 
-0.441757

>  <r_i_glide_ligand_efficiency_ln>  (130) 
-0.863922

>  <r_i_glide_gscore>  (130) 
-3.57274

>  <r_i_glide_lipo>  (130) 
-0.684092

>  <r_i_glide_hbond>  (130) 
-0.0863681

>  <r_i_glide_metal>  (130) 
-0

>  <r_i_glide_rewards>  (130) 
-1.21849

>  <r_i_glide_evdw>  (130) 
-23.9397

>  <r_i_glide_ecoul>  (130) 
-1.92116

>  <r_i_glide_erotb>  (130) 
0

>  <r_i_glide_esite>  (130) 
-0.0986311

>  <r_i_glide_emodel>  (130) 
-33.8617

>  <r_i_glide_energy>  (130) 
-25.8609

>  <r_i_glide_einternal>  (130) 
0

>  <r_i_glide_intrahb_reward>  (130) 
-0

>  <i_i_glide_confnum>  (130) 
2

>  <i_i_glide_posenum>  (130) 
16

>  <r_i_glide_eff_state_penalty>  (130) 
0

>  <ligand_id>  (130) 
41

>  <original_smiles>  (130) 
CC1CCC2C3C1CCC1(C)OOC4(OC31)OC(C)(C)NCC24

>  <smiles>  (130) 
[H]C([H])([H])C1([H])C([H])([H])C([H])([H])C2([H])C3([H])C4([H])OC5(OOC4(C([H])([H])[H])C([H])([H])C([H])([H])C13[H])OC(C([H])([H])[H])(C([H])([H])[H])[N+]([H])([H])C([H])([H])C52[H]

$$$$
41:0:2
     RDKit          3D

 53 57  0  0  1  0  0  0  0  0999 V2000
    3.8278   -2.5716   -0.1923 C   0  0  0  0  0  0  0  0  0  0  0  0
    4.3121   -3.6650    0.7800 C   0  0  2  0  0  0  0  0  0  0  0  0
    4.7079   -4.9338   -0.0003 C   0  0  0  0  0  0  0  0  0  0  0  0
    5.2888   -6.0124    0.9232 C   0  0  0  0  0  0  0  0  0  0  0  0
    4.3541   -6.3787    2.0904 C   0  0  1  0  0  0  0  0  0  0  0  0
    3.8753   -5.1050    2.8274 C   0  0  1  0  0  0  0  0  0  0  0  0
    3.2719   -4.0461    1.8671 C   0  0  1  0  0  0  0  0  0  0  0  0
    2.7824   -2.8659    2.7154 C   0  0  0  0  0  0  0  0  0  0  0  0
    1.6396   -3.2562    3.6678 C   0  0  0  0  0  0  0  0  0  0  0  0
    1.6309   -4.7220    4.1915 C   0  0  1  0  0  0  0  0  0  0  0  0
    1.1480   -4.7197    5.6491 C   0  0  0  0  0  0  0  0  0  0  0  0
    0.6282   -5.5127    3.5483 O   0  0  0  0  0  0  0  0  0  0  0  0
    1.2448   -6.2281    2.3809 O   0  0  0  0  0  0  0  0  0  0  0  0
    2.0861   -7.2486    2.8459 C   0  0  1  0  0  0  0  0  0  0  0  0
    2.7016   -6.8660    4.0404 O   0  0  0  0  0  0  0  0  0  0  0  0
    2.9926   -5.4674    4.0637 C   0  0  1  0  0  0  0  0  0  0  0  0
    1.2896   -8.3932    3.0090 O   0  0  0  0  0  0  0  0  0  0  0  0
    1.9076   -9.6479    3.0539 C   0  0  0  0  0  0  0  0  0  0  0  0
    2.9495   -9.8699    4.1822 C   0  0  0  0  0  0  0  0  0  0  0  0
    0.8466  -10.7491    2.9544 C   0  0  0  0  0  0  0  0  0  0  0  0
    2.7070   -9.8406    1.6931 N   0  0  0  0  0  0  0  0  0  0  0  0
    3.7300   -8.8055    1.5063 C   0  0  0  0  0  0  0  0  0  0  0  0
    3.1960   -7.3642    1.7306 C   0  0  2  0  0  0  0  0  0  0  0  0
    2.8725   -2.8292   -0.6532 H   0  0  0  0  0  0  0  0  0  0  0  0
    4.5506   -2.4129   -0.9950 H   0  0  0  0  0  0  0  0  0  0  0  0
    3.7075   -1.6100    0.3086 H   0  0  0  0  0  0  0  0  0  0  0  0
    5.2103   -3.2789    1.2656 H   0  0  0  0  0  0  0  0  0  0  0  0
    3.8397   -5.3304   -0.5273 H   0  0  0  0  0  0  0  0  0  0  0  0
    5.4436   -4.6865   -0.7695 H   0  0  0  0  0  0  0  0  0  0  0  0
    5.5433   -6.9025    0.3551 H   0  0  0  0  0  0  0  0  0  0  0  0
    6.2267   -5.6343    1.3297 H   0  0  0  0  0  0  0  0  0  0  0  0
    4.9783   -6.9063    2.8139 H   0  0  0  0  0  0  0  0  0  0  0  0
    4.7724   -4.6451    3.2450 H   0  0  0  0  0  0  0  0  0  0  0  0
    2.4120   -4.4481    1.3367 H   0  0  0  0  0  0  0  0  0  0  0  0
    3.6167   -2.4834    3.3019 H   0  0  0  0  0  0  0  0  0  0  0  0
    2.4446   -2.0363    2.0938 H   0  0  0  0  0  0  0  0  0  0  0  0
    1.6756   -2.5589    4.5065 H   0  0  0  0  0  0  0  0  0  0  0  0
    0.6894   -3.0606    3.1723 H   0  0  0  0  0  0  0  0  0  0  0  0
    1.8369   -4.1682    6.2906 H   0  0  0  0  0  0  0  0  0  0  0  0
    1.0657   -5.7353    6.0378 H   0  0  0  0  0  0  0  0  0  0  0  0
    0.1650   -4.2516    5.7374 H   0  0  0  0  0  0  0  0  0  0  0  0
    3.5777   -5.2714    4.9631 H   0  0  0  0  0  0  0  0  0  0  0  0
    3.4105  -10.8543    4.0721 H   0  0  0  0  0  0  0  0  0  0  0  0
    2.4516   -9.8452    5.1507 H   0  0  0  0  0  0  0  0  0  0  0  0
    3.7365   -9.1200    4.1897 H   0  0  0  0  0  0  0  0  0  0  0  0
    1.3091  -11.7345    2.8810 H   0  0  0  0  0  0  0  0  0  0  0  0
    0.2038  -10.5832    2.0907 H   0  0  0  0  0  0  0  0  0  0  0  0
    0.2290  -10.7340    3.8508 H   0  0  0  0  0  0  0  0  0  0  0  0
    3.1554  -10.7539    1.6357 H   0  0  0  0  0  0  0  0  0  0  0  0
    4.5798   -9.0210    2.1568 H   0  0  0  0  0  0  0  0  0  0  0  0
    4.1172   -8.8866    0.4901 H   0  0  0  0  0  0  0  0  0  0  0  0
    2.7174   -7.0482    0.8050 H   0  0  0  0  0  0  0  0  0  0  0  0
    2.0524   -9.7860    0.9232 H   0  0  0  0  0  0  0  0  0  0  0  0
  1  2  1  0
  1 24  1  0
  1 25  1  0
  1 26  1  0
  2  7  1  0
  2  3  1  0
  2 27  1  1
  3  4  1  0
  3 28  1  0
  3 29  1  0
  4  5  1  0
  4 30  1  0
  4 31  1  0
  5 23  1  0
  5  6  1  0
  5 32  1  1
  6 16  1  0
  6  7  1  0
  6 33  1  1
  7  8  1  0
  7 34  1  6
  8  9  1  0
  8 35  1  0
  8 36  1  0
  9 10  1  0
  9 37  1  0
  9 38  1  0
 10 16  1  0
 10 11  1  1
 10 12  1  0
 11 39  1  0
 11 40  1  0
 11 41  1  0
 12 13  1  0
 14 13  1  6
 14 23  1  0
 14 15  1  0
 14 17  1  0
 15 16  1  0
 16 42  1  1
 17 18  1  0
 18 19  1  0
 18 20  1  0
 18 21  1  0
 19 43  1  0
 19 44  1  0
 19 45  1  0
 20 46  1  0
 20 47  1  0
 20 48  1  0
 21 22  1  0
 21 49  1  0
 21 53  1  0
 22 23  1  0
 22 50  1  0
 22 51  1  0
 23 52  1  6
M  CHG  1  21   1
M  END
>  <i_m_ct_stereo_status>  (131) 
1

>  <s_m_source_file>  (131) 
/var/tmp/pbs.5076255.sched01/tmpmqqk35eb/391x3533zq.sdf

>  <i_m_source_file_index>  (131) 
13

>  <i_lp_mmshare_version>  (131) 
48012

>  <i_f3d_flags>  (131) 
0

>  <s_epik_input>  (131) 
TzFPW0NAQF0oW0NIM10pKFtDQEhdMk8zKVtDSDJdW0NIMl1bQ0BASF0oW0NASF0oW0NIM10pW0NIMl1bQ0gyXTQpW0NAQEhdMltDQEhdNFtDQEhdKFtDQF0xMzUpW0NIMl1bTkhdQyhPNSkoW0NIM10pW0NIM10=

>  <s_epik_cmdline>  (131) 
J2VwaWtfcHl0aG9uJywgJy1waHQnLCAnMi4wJywgJy1waCcsICc3LjAnLCAnLXRuJywgJzgnLCAnLW1hJywgJzIwMCcsICctaW1hZScsICc8aW5maWxlLm1hZT4nLCAnLW9tYWUnLCAnPG91dGZpbGUubWFlPic=

>  <r_epik_Ionization_Penalty>  (131) 
0.324959

>  <r_epik_Ionization_Penalty_Charging>  (131) 
0.324959

>  <r_epik_Ionization_Penalty_Neutral>  (131) 
0

>  <r_epik_State_Penalty>  (131) 
0.319724

>  <r_epik_Charging_Adjusted_Penalty>  (131) 
0.644683

>  <i_epik_Tot_Q>  (131) 
1

>  <i_epik_Tot_abs_Q>  (131) 
1

>  <s_lp_Force_Field>  (131) 
OPLS3e

>  <r_lp_Energy>  (131) 
43.7483

>  <b_lp_Chiralities_Consistent>  (131) 
1

>  <s_lp_Variant>  (131) 
41:0-1

>  <s_i_glide_gridfile>  (131) 
pfpi4k_grid

>  <i_i_glide_lignum>  (131) 
13

>  <i_i_glide_rotatable_bonds>  (131) 
0

>  <r_i_docking_score>  (131) 
-3.48379

>  <r_i_glide_ligand_efficiency>  (131) 
-0.151469

>  <r_i_glide_ligand_efficiency_sa>  (131) 
-0.430758

>  <r_i_glide_ligand_efficiency_ln>  (131) 
-0.842412

>  <r_i_glide_gscore>  (131) 
-3.48379

>  <r_i_glide_lipo>  (131) 
-0.346368

>  <r_i_glide_hbond>  (131) 
-0.145543

>  <r_i_glide_metal>  (131) 
-0

>  <r_i_glide_rewards>  (131) 
-1.22959

>  <r_i_glide_evdw>  (131) 
-20.7562

>  <r_i_glide_ecoul>  (131) 
-4.54464

>  <r_i_glide_erotb>  (131) 
0

>  <r_i_glide_esite>  (131) 
-0.0427844

>  <r_i_glide_emodel>  (131) 
-33.1007

>  <r_i_glide_energy>  (131) 
-25.3009

>  <r_i_glide_einternal>  (131) 
0

>  <r_i_glide_intrahb_reward>  (131) 
-0

>  <i_i_glide_confnum>  (131) 
2

>  <i_i_glide_posenum>  (131) 
8

>  <r_i_glide_eff_state_penalty>  (131) 
0

>  <ligand_id>  (131) 
41

>  <original_smiles>  (131) 
CC1CCC2C3C1CCC1(C)OOC4(OC31)OC(C)(C)NCC24

>  <smiles>  (131) 
[H]C([H])([H])C1([H])C([H])([H])C([H])([H])C2([H])C3([H])C4([H])OC5(OOC4(C([H])([H])[H])C([H])([H])C([H])([H])C13[H])OC(C([H])([H])[H])(C([H])([H])[H])[N+]([H])([H])C([H])([H])C52[H]

$$$$
41:1:0
     RDKit          3D

 52 56  0  0  1  0  0  0  0  0999 V2000
    3.4052   -1.1383    5.1244 C   0  0  0  0  0  0  0  0  0  0  0  0
    4.3502   -1.5460    3.9825 C   0  0  2  0  0  0  0  0  0  0  0  0
    4.5137   -0.3764    2.9938 C   0  0  0  0  0  0  0  0  0  0  0  0
    5.5306   -0.7043    1.8962 C   0  0  0  0  0  0  0  0  0  0  0  0
    5.2039   -2.0100    1.1486 C   0  0  1  0  0  0  0  0  0  0  0  0
    4.9472   -3.1676    2.1265 C   0  0  1  0  0  0  0  0  0  0  0  0
    3.8924   -2.8067    3.2035 C   0  0  1  0  0  0  0  0  0  0  0  0
    3.6762   -4.0447    4.0766 C   0  0  0  0  0  0  0  0  0  0  0  0
    3.0789   -5.2219    3.2924 C   0  0  0  0  0  0  0  0  0  0  0  0
    3.4439   -5.3253    1.7811 C   0  0  1  0  0  0  0  0  0  0  0  0
    3.6143   -6.8006    1.4217 C   0  0  0  0  0  0  0  0  0  0  0  0
    2.3629   -4.9465    0.9287 O   0  0  0  0  0  0  0  0  0  0  0  0
    2.5082   -3.4779    0.6401 O   0  0  0  0  0  0  0  0  0  0  0  0
    3.5478   -3.2866   -0.2801 C   0  0  1  0  0  0  0  0  0  0  0  0
    4.5618   -4.2193   -0.0416 O   0  0  0  0  0  0  0  0  0  0  0  0
    4.6991   -4.5046    1.3565 C   0  0  1  0  0  0  0  0  0  0  0  0
    3.0151   -3.3770   -1.5874 O   0  0  0  0  0  0  0  0  0  0  0  0
    3.6970   -2.7193   -2.6184 C   0  0  0  0  0  0  0  0  0  0  0  0
    5.0100   -3.4758   -2.9510 C   0  0  0  0  0  0  0  0  0  0  0  0
    2.7736   -2.9002   -3.8272 C   0  0  0  0  0  0  0  0  0  0  0  0
    3.8387   -1.3381   -2.3019 N   0  0  0  0  0  0  0  0  0  0  0  0
    4.6631   -1.1136   -1.1419 C   0  0  0  0  0  0  0  0  0  0  0  0
    4.0959   -1.8703    0.0681 C   0  0  2  0  0  0  0  0  0  0  0  0
    2.3784   -1.0173    4.7743 H   0  0  0  0  0  0  0  0  0  0  0  0
    3.7171   -0.1930    5.5725 H   0  0  0  0  0  0  0  0  0  0  0  0
    3.4068   -1.8745    5.9278 H   0  0  0  0  0  0  0  0  0  0  0  0
    5.3240   -1.7380    4.4356 H   0  0  0  0  0  0  0  0  0  0  0  0
    3.5515   -0.1336    2.5372 H   0  0  0  0  0  0  0  0  0  0  0  0
    4.8418    0.5235    3.5216 H   0  0  0  0  0  0  0  0  0  0  0  0
    5.6103    0.1232    1.1927 H   0  0  0  0  0  0  0  0  0  0  0  0
    6.5112   -0.8048    2.3605 H   0  0  0  0  0  0  0  0  0  0  0  0
    6.1116   -2.2851    0.6143 H   0  0  0  0  0  0  0  0  0  0  0  0
    5.8775   -3.3293    2.6667 H   0  0  0  0  0  0  0  0  0  0  0  0
    2.9384   -2.5536    2.7511 H   0  0  0  0  0  0  0  0  0  0  0  0
    4.6309   -4.3539    4.4913 H   0  0  0  0  0  0  0  0  0  0  0  0
    3.0214   -3.8329    4.9266 H   0  0  0  0  0  0  0  0  0  0  0  0
    3.3643   -6.1448    3.8162 H   0  0  0  0  0  0  0  0  0  0  0  0
    1.9990   -5.1584    3.3690 H   0  0  0  0  0  0  0  0  0  0  0  0
    4.4379   -7.2560    1.9752 H   0  0  0  0  0  0  0  0  0  0  0  0
    3.8180   -6.9272    0.3557 H   0  0  0  0  0  0  0  0  0  0  0  0
    2.7102   -7.3720    1.6549 H   0  0  0  0  0  0  0  0  0  0  0  0
    5.5753   -5.1398    1.4865 H   0  0  0  0  0  0  0  0  0  0  0  0
    5.4847   -2.9984   -3.8042 H   0  0  0  0  0  0  0  0  0  0  0  0
    4.8192   -4.5162   -3.2139 H   0  0  0  0  0  0  0  0  0  0  0  0
    5.7173   -3.4529   -2.1289 H   0  0  0  0  0  0  0  0  0  0  0  0
    3.1880   -2.4002   -4.7031 H   0  0  0  0  0  0  0  0  0  0  0  0
    1.8052   -2.4471   -3.6103 H   0  0  0  0  0  0  0  0  0  0  0  0
    2.6096   -3.9581   -4.0583 H   0  0  0  0  0  0  0  0  0  0  0  0
    4.1807   -0.8115   -3.0869 H   0  0  0  0  0  0  0  0  0  0  0  0
    5.6973   -1.3717   -1.3647 H   0  0  0  0  0  0  0  0  0  0  0  0
    4.6239   -0.0494   -0.9371 H   0  0  0  0  0  0  0  0  0  0  0  0
    3.2467   -1.2905    0.4418 H   0  0  0  0  0  0  0  0  0  0  0  0
  1  2  1  0
  1 24  1  0
  1 25  1  0
  1 26  1  0
  2  7  1  0
  2  3  1  0
  2 27  1  1
  3  4  1  0
  3 28  1  0
  3 29  1  0
  4  5  1  0
  4 30  1  0
  4 31  1  0
  5 23  1  0
  5  6  1  0
  5 32  1  6
  6 16  1  0
  6  7  1  0
  6 33  1  1
  7  8  1  0
  7 34  1  6
  8  9  1  0
  8 35  1  0
  8 36  1  0
  9 10  1  0
  9 37  1  0
  9 38  1  0
 10 16  1  0
 10 11  1  6
 10 12  1  0
 11 39  1  0
 11 40  1  0
 11 41  1  0
 12 13  1  0
 14 13  1  1
 14 23  1  0
 14 15  1  0
 14 17  1  0
 15 16  1  0
 16 42  1  6
 17 18  1  0
 18 19  1  0
 18 20  1  0
 18 21  1  0
 19 43  1  0
 19 44  1  0
 19 45  1  0
 20 46  1  0
 20 47  1  0
 20 48  1  0
 21 22  1  0
 21 49  1  0
 22 23  1  0
 22 50  1  0
 22 51  1  0
 23 52  1  1
M  END
>  <i_m_ct_stereo_status>  (132) 
1

>  <s_m_source_file>  (132) 
/var/tmp/pbs.5076255.sched01/tmpmqqk35eb/391x3533zq.sdf

>  <i_m_source_file_index>  (132) 
14

>  <i_lp_mmshare_version>  (132) 
48012

>  <i_f3d_flags>  (132) 
0

>  <s_epik_input>  (132) 
TzFPW0NAQF0oW0NIM10pKFtDQEhdMk8zKVtDSDJdW0NIMl1bQ0BASF0oW0NASF0oW0NIM10pW0NIMl1bQ0gyXTQpW0NAQEhdMltDQEhdNFtDQEhdKFtDQF0xMzUpW0NIMl1bTkhdQyhPNSkoW0NIM10pW0NIM10=

>  <s_epik_cmdline>  (132) 
J2VwaWtfcHl0aG9uJywgJy1waHQnLCAnMi4wJywgJy1waCcsICc3LjAnLCAnLXRuJywgJzgnLCAnLW1hJywgJzIwMCcsICctaW1hZScsICc8aW5maWxlLm1hZT4nLCAnLW9tYWUnLCAnPG91dGZpbGUubWFlPic=

>  <r_epik_Ionization_Penalty>  (132) 
0.510935

>  <r_epik_Ionization_Penalty_Charging>  (132) 
0

>  <r_epik_Ionization_Penalty_Neutral>  (132) 
0.510935

>  <r_epik_State_Penalty>  (132) 
0.518176

>  <r_epik_Charging_Adjusted_Penalty>  (132) 
0.518176

>  <i_epik_Tot_Q>  (132) 
0

>  <i_epik_Tot_abs_Q>  (132) 
0

>  <s_lp_Force_Field>  (132) 
OPLS3e

>  <r_lp_Energy>  (132) 
42.4235

>  <b_lp_Chiralities_Consistent>  (132) 
1

>  <s_lp_Variant>  (132) 
41:0-2

>  <s_i_glide_gridfile>  (132) 
pfpi4k_grid

>  <i_i_glide_lignum>  (132) 
14

>  <i_i_glide_rotatable_bonds>  (132) 
0

>  <r_i_docking_score>  (132) 
-2.99977

>  <r_i_glide_ligand_efficiency>  (132) 
-0.130425

>  <r_i_glide_ligand_efficiency_sa>  (132) 
-0.370911

>  <r_i_glide_ligand_efficiency_ln>  (132) 
-0.725372

>  <r_i_glide_gscore>  (132) 
-2.99977

>  <r_i_glide_lipo>  (132) 
-0.73336

>  <r_i_glide_hbond>  (132) 
0

>  <r_i_glide_metal>  (132) 
-0

>  <r_i_glide_rewards>  (132) 
-1.2413

>  <r_i_glide_evdw>  (132) 
-27.3949

>  <r_i_glide_ecoul>  (132) 
2.38345

>  <r_i_glide_erotb>  (132) 
0

>  <r_i_glide_esite>  (132) 
-0.0128842

>  <r_i_glide_emodel>  (132) 
-29.4292

>  <r_i_glide_energy>  (132) 
-25.0114

>  <r_i_glide_einternal>  (132) 
0

>  <r_i_glide_intrahb_reward>  (132) 
-0

>  <i_i_glide_confnum>  (132) 
1

>  <i_i_glide_posenum>  (132) 
3

>  <r_i_glide_eff_state_penalty>  (132) 
0

>  <ligand_id>  (132) 
41

>  <original_smiles>  (132) 
CC1CCC2C3C1CCC1(C)OOC4(OC31)OC(C)(C)NCC24

>  <smiles>  (132) 
[H]N1C([H])([H])C2([H])C3(OOC4(C([H])([H])[H])C([H])([H])C([H])([H])C5([H])C([H])(C([H])([H])[H])C([H])([H])C([H])([H])C2([H])C5([H])C4([H])O3)OC1(C([H])([H])[H])C([H])([H])[H]

$$$$
41:1:1
     RDKit          3D

 52 56  0  0  1  0  0  0  0  0999 V2000
   -2.7118    3.1795    2.9446 C   0  0  0  0  0  0  0  0  0  0  0  0
   -1.3025    2.6200    3.2231 C   0  0  2  0  0  0  0  0  0  0  0  0
   -1.0435    1.3432    2.3966 C   0  0  0  0  0  0  0  0  0  0  0  0
    0.3856    0.8293    2.5659 C   0  0  0  0  0  0  0  0  0  0  0  0
    0.7501    0.5956    4.0410 C   0  0  1  0  0  0  0  0  0  0  0  0
    0.4142    1.8202    4.9015 C   0  0  1  0  0  0  0  0  0  0  0  0
   -1.0424    2.3061    4.7118 C   0  0  1  0  0  0  0  0  0  0  0  0
   -1.2812    3.4853    5.6540 C   0  0  0  0  0  0  0  0  0  0  0  0
   -1.1499    3.0992    7.1364 C   0  0  0  0  0  0  0  0  0  0  0  0
   -0.1980    1.9166    7.4597 C   0  0  1  0  0  0  0  0  0  0  0  0
    0.4862    2.2314    8.8064 C   0  0  0  0  0  0  0  0  0  0  0  0
   -0.9049    0.7223    7.7865 O   0  0  0  0  0  0  0  0  0  0  0  0
   -1.0209   -0.0793    6.4849 O   0  0  0  0  0  0  0  0  0  0  0  0
    0.2229   -0.6405    6.1963 C   0  0  1  0  0  0  0  0  0  0  0  0
    1.2389    0.2322    6.5526 O   0  0  0  0  0  0  0  0  0  0  0  0
    0.8640    1.6005    6.3790 C   0  0  1  0  0  0  0  0  0  0  0  0
    0.3170   -1.9071    6.8182 O   0  0  0  0  0  0  0  0  0  0  0  0
    1.1670   -2.8601    6.2297 C   0  0  0  0  0  0  0  0  0  0  0  0
    2.6596   -2.4689    6.4845 C   0  0  0  0  0  0  0  0  0  0  0  0
    0.9190   -4.1234    7.0897 C   0  0  0  0  0  0  0  0  0  0  0  0
    0.7750   -3.0758    4.8884 N   0  0  0  0  0  0  0  0  0  0  0  0
    0.9869   -1.9152    4.0585 C   0  0  0  0  0  0  0  0  0  0  0  0
    0.1893   -0.7306    4.6236 C   0  0  2  0  0  0  0  0  0  0  0  0
   -3.4977    2.5442    3.3486 H   0  0  0  0  0  0  0  0  0  0  0  0
   -2.9110    3.2788    1.8809 H   0  0  0  0  0  0  0  0  0  0  0  0
   -2.8362    4.1735    3.3667 H   0  0  0  0  0  0  0  0  0  0  0  0
   -0.5950    3.3792    2.8815 H   0  0  0  0  0  0  0  0  0  0  0  0
   -1.7531    0.5670    2.6846 H   0  0  0  0  0  0  0  0  0  0  0  0
   -1.1856    1.5132    1.3327 H   0  0  0  0  0  0  0  0  0  0  0  0
    0.5267   -0.0746    1.9720 H   0  0  0  0  0  0  0  0  0  0  0  0
    1.0632    1.5750    2.1454 H   0  0  0  0  0  0  0  0  0  0  0  0
    1.8349    0.5018    4.0686 H   0  0  0  0  0  0  0  0  0  0  0  0
    1.0454    2.6336    4.5345 H   0  0  0  0  0  0  0  0  0  0  0  0
   -1.7590    1.5316    4.9814 H   0  0  0  0  0  0  0  0  0  0  0  0
   -0.5322    4.2521    5.4489 H   0  0  0  0  0  0  0  0  0  0  0  0
   -2.2558    3.9449    5.5053 H   0  0  0  0  0  0  0  0  0  0  0  0
   -0.8849    3.9908    7.7028 H   0  0  0  0  0  0  0  0  0  0  0  0
   -2.1458    2.8133    7.4795 H   0  0  0  0  0  0  0  0  0  0  0  0
    1.1005    3.1338    8.7449 H   0  0  0  0  0  0  0  0  0  0  0  0
    1.1341    1.4114    9.1270 H   0  0  0  0  0  0  0  0  0  0  0  0
   -0.2489    2.3955    9.6003 H   0  0  0  0  0  0  0  0  0  0  0  0
    1.7437    2.2240    6.5632 H   0  0  0  0  0  0  0  0  0  0  0  0
    3.3036   -3.2527    6.0859 H   0  0  0  0  0  0  0  0  0  0  0  0
    2.8766   -2.3505    7.5428 H   0  0  0  0  0  0  0  0  0  0  0  0
    2.9237   -1.5458    5.9700 H   0  0  0  0  0  0  0  0  0  0  0  0
    1.5168   -4.9550    6.7189 H   0  0  0  0  0  0  0  0  0  0  0  0
   -0.1358   -4.4048    7.0116 H   0  0  0  0  0  0  0  0  0  0  0  0
    1.1577   -3.9541    8.1387 H   0  0  0  0  0  0  0  0  0  0  0  0
    1.3108   -3.8405    4.4942 H   0  0  0  0  0  0  0  0  0  0  0  0
    2.0497   -1.7091    3.9549 H   0  0  0  0  0  0  0  0  0  0  0  0
    0.6190   -2.1608    3.0639 H   0  0  0  0  0  0  0  0  0  0  0  0
   -0.8558   -0.8768    4.3421 H   0  0  0  0  0  0  0  0  0  0  0  0
  1  2  1  0
  1 24  1  0
  1 25  1  0
  1 26  1  0
  2  7  1  0
  2  3  1  0
  2 27  1  6
  3  4  1  0
  3 28  1  0
  3 29  1  0
  4  5  1  0
  4 30  1  0
  4 31  1  0
  5 23  1  0
  5  6  1  0
  5 32  1  6
  6 16  1  0
  6  7  1  0
  6 33  1  6
  7  8  1  0
  7 34  1  1
  8  9  1  0
  8 35  1  0
  8 36  1  0
  9 10  1  0
  9 37  1  0
  9 38  1  0
 10 16  1  0
 10 11  1  1
 10 12  1  0
 11 39  1  0
 11 40  1  0
 11 41  1  0
 12 13  1  0
 14 13  1  1
 14 23  1  0
 14 15  1  0
 14 17  1  0
 15 16  1  0
 16 42  1  1
 17 18  1  0
 18 19  1  0
 18 20  1  0
 18 21  1  0
 19 43  1  0
 19 44  1  0
 19 45  1  0
 20 46  1  0
 20 47  1  0
 20 48  1  0
 21 22  1  0
 21 49  1  0
 22 23  1  0
 22 50  1  0
 22 51  1  0
 23 52  1  6
M  END
>  <i_m_ct_stereo_status>  (133) 
1

>  <s_m_source_file>  (133) 
/var/tmp/pbs.5076255.sched01/tmpmqqk35eb/391x3533zq.sdf

>  <i_m_source_file_index>  (133) 
14

>  <i_lp_mmshare_version>  (133) 
48012

>  <i_f3d_flags>  (133) 
0

>  <s_epik_input>  (133) 
TzFPW0NAQF0oW0NIM10pKFtDQEhdMk8zKVtDSDJdW0NIMl1bQ0BASF0oW0NASF0oW0NIM10pW0NIMl1bQ0gyXTQpW0NAQEhdMltDQEhdNFtDQEhdKFtDQF0xMzUpW0NIMl1bTkhdQyhPNSkoW0NIM10pW0NIM10=

>  <s_epik_cmdline>  (133) 
J2VwaWtfcHl0aG9uJywgJy1waHQnLCAnMi4wJywgJy1waCcsICc3LjAnLCAnLXRuJywgJzgnLCAnLW1hJywgJzIwMCcsICctaW1hZScsICc8aW5maWxlLm1hZT4nLCAnLW9tYWUnLCAnPG91dGZpbGUubWFlPic=

>  <r_epik_Ionization_Penalty>  (133) 
0.510935

>  <r_epik_Ionization_Penalty_Charging>  (133) 
0

>  <r_epik_Ionization_Penalty_Neutral>  (133) 
0.510935

>  <r_epik_State_Penalty>  (133) 
0.518176

>  <r_epik_Charging_Adjusted_Penalty>  (133) 
0.518176

>  <i_epik_Tot_Q>  (133) 
0

>  <i_epik_Tot_abs_Q>  (133) 
0

>  <s_lp_Force_Field>  (133) 
OPLS3e

>  <r_lp_Energy>  (133) 
42.4235

>  <b_lp_Chiralities_Consistent>  (133) 
1

>  <s_lp_Variant>  (133) 
41:0-2

>  <s_i_glide_gridfile>  (133) 
pfpi4k_grid

>  <i_i_glide_lignum>  (133) 
14

>  <i_i_glide_rotatable_bonds>  (133) 
0

>  <r_i_docking_score>  (133) 
-2.82696

>  <r_i_glide_ligand_efficiency>  (133) 
-0.122911

>  <r_i_glide_ligand_efficiency_sa>  (133) 
-0.349543

>  <r_i_glide_ligand_efficiency_ln>  (133) 
-0.683584

>  <r_i_glide_gscore>  (133) 
-2.82696

>  <r_i_glide_lipo>  (133) 
-0.0239701

>  <r_i_glide_hbond>  (133) 
-0.16633

>  <r_i_glide_metal>  (133) 
-0

>  <r_i_glide_rewards>  (133) 
-1.20391

>  <r_i_glide_evdw>  (133) 
-19.0387

>  <r_i_glide_ecoul>  (133) 
-3.06986

>  <r_i_glide_erotb>  (133) 
0

>  <r_i_glide_esite>  (133) 
-0.0203354

>  <r_i_glide_emodel>  (133) 
-26.1941

>  <r_i_glide_energy>  (133) 
-22.1086

>  <r_i_glide_einternal>  (133) 
0

>  <r_i_glide_intrahb_reward>  (133) 
-0

>  <i_i_glide_confnum>  (133) 
1

>  <i_i_glide_posenum>  (133) 
4

>  <r_i_glide_eff_state_penalty>  (133) 
0

>  <ligand_id>  (133) 
41

>  <original_smiles>  (133) 
CC1CCC2C3C1CCC1(C)OOC4(OC31)OC(C)(C)NCC24

>  <smiles>  (133) 
[H]N1C([H])([H])C2([H])C3(OOC4(C([H])([H])[H])C([H])([H])C([H])([H])C5([H])C([H])(C([H])([H])[H])C([H])([H])C([H])([H])C2([H])C5([H])C4([H])O3)OC1(C([H])([H])[H])C([H])([H])[H]

$$$$
41:1:2
     RDKit          3D

 52 56  0  0  1  0  0  0  0  0999 V2000
    4.2804   -0.9344   -2.2329 C   0  0  0  0  0  0  0  0  0  0  0  0
    4.7767   -1.9456   -1.1854 C   0  0  2  0  0  0  0  0  0  0  0  0
    4.4269   -3.3742   -1.6444 C   0  0  0  0  0  0  0  0  0  0  0  0
    4.9924   -4.4298   -0.6867 C   0  0  0  0  0  0  0  0  0  0  0  0
    4.5507   -4.2091    0.7692 C   0  0  1  0  0  0  0  0  0  0  0  0
    4.8146   -2.7604    1.2202 C   0  0  1  0  0  0  0  0  0  0  0  0
    4.2081   -1.7201    0.2399 C   0  0  1  0  0  0  0  0  0  0  0  0
    4.4920   -0.3351    0.8272 C   0  0  0  0  0  0  0  0  0  0  0  0
    3.7527   -0.1090    2.1557 C   0  0  0  0  0  0  0  0  0  0  0  0
    3.5498   -1.3488    3.0697 C   0  0  1  0  0  0  0  0  0  0  0  0
    3.7354   -0.9181    4.5309 C   0  0  0  0  0  0  0  0  0  0  0  0
    2.1895   -1.7772    3.0736 O   0  0  0  0  0  0  0  0  0  0  0  0
    2.0250   -2.8248    2.0097 O   0  0  0  0  0  0  0  0  0  0  0  0
    2.6260   -4.0144    2.4248 C   0  0  1  0  0  0  0  0  0  0  0  0
    3.7618   -3.7368    3.1993 O   0  0  0  0  0  0  0  0  0  0  0  0
    4.4494   -2.5729    2.7298 C   0  0  1  0  0  0  0  0  0  0  0  0
    1.6600   -4.7753    3.1238 O   0  0  0  0  0  0  0  0  0  0  0  0
    1.8152   -6.1654    3.1618 C   0  0  0  0  0  0  0  0  0  0  0  0
    2.9930   -6.5368    4.1071 C   0  0  0  0  0  0  0  0  0  0  0  0
    0.5275   -6.6607    3.8428 C   0  0  0  0  0  0  0  0  0  0  0  0
    1.8973   -6.6826    1.8262 N   0  0  0  0  0  0  0  0  0  0  0  0
    3.0809   -6.2237    1.1376 C   0  0  0  0  0  0  0  0  0  0  0  0
    3.1079   -4.6861    1.0905 C   0  0  2  0  0  0  0  0  0  0  0  0
    3.1899   -0.8836   -2.2572 H   0  0  0  0  0  0  0  0  0  0  0  0
    4.6260   -1.1966   -3.2342 H   0  0  0  0  0  0  0  0  0  0  0  0
    4.6544    0.0676   -2.0278 H   0  0  0  0  0  0  0  0  0  0  0  0
    5.8638   -1.8671   -1.1522 H   0  0  0  0  0  0  0  0  0  0  0  0
    3.3422   -3.4882   -1.7192 H   0  0  0  0  0  0  0  0  0  0  0  0
    4.8213   -3.5633   -2.6448 H   0  0  0  0  0  0  0  0  0  0  0  0
    4.7105   -5.4270   -1.0269 H   0  0  0  0  0  0  0  0  0  0  0  0
    6.0804   -4.3837   -0.7246 H   0  0  0  0  0  0  0  0  0  0  0  0
    5.2142   -4.8205    1.3811 H   0  0  0  0  0  0  0  0  0  0  0  0
    5.8968   -2.6158    1.1769 H   0  0  0  0  0  0  0  0  0  0  0  0
    3.1275   -1.8320    0.1565 H   0  0  0  0  0  0  0  0  0  0  0  0
    5.5645   -0.2211    0.9806 H   0  0  0  0  0  0  0  0  0  0  0  0
    4.2095    0.4577    0.1377 H   0  0  0  0  0  0  0  0  0  0  0  0
    4.3007    0.6547    2.7047 H   0  0  0  0  0  0  0  0  0  0  0  0
    2.7800    0.3373    1.9443 H   0  0  0  0  0  0  0  0  0  0  0  0
    4.7565   -0.5726    4.7136 H   0  0  0  0  0  0  0  0  0  0  0  0
    3.5253   -1.7475    5.2116 H   0  0  0  0  0  0  0  0  0  0  0  0
    3.0551   -0.0975    4.7869 H   0  0  0  0  0  0  0  0  0  0  0  0
    5.3814   -2.4724    3.2964 H   0  0  0  0  0  0  0  0  0  0  0  0
    3.0614   -7.6202    4.1892 H   0  0  0  0  0  0  0  0  0  0  0  0
    2.8361   -6.1353    5.1100 H   0  0  0  0  0  0  0  0  0  0  0  0
    3.9509   -6.1760    3.7396 H   0  0  0  0  0  0  0  0  0  0  0  0
    0.5364   -7.7457    3.9284 H   0  0  0  0  0  0  0  0  0  0  0  0
   -0.3390   -6.3684    3.2486 H   0  0  0  0  0  0  0  0  0  0  0  0
    0.4272   -6.2343    4.8436 H   0  0  0  0  0  0  0  0  0  0  0  0
    1.9008   -7.6892    1.8378 H   0  0  0  0  0  0  0  0  0  0  0  0
    3.9693   -6.6544    1.5998 H   0  0  0  0  0  0  0  0  0  0  0  0
    3.0469   -6.6099    0.1217 H   0  0  0  0  0  0  0  0  0  0  0  0
    2.4102   -4.3720    0.3053 H   0  0  0  0  0  0  0  0  0  0  0  0
  1  2  1  0
  1 24  1  0
  1 25  1  0
  1 26  1  0
  2  7  1  0
  2  3  1  0
  2 27  1  1
  3  4  1  0
  3 28  1  0
  3 29  1  0
  4  5  1  0
  4 30  1  0
  4 31  1  0
  5 23  1  0
  5  6  1  0
  5 32  1  1
  6 16  1  0
  6  7  1  0
  6 33  1  1
  7  8  1  0
  7 34  1  6
  8  9  1  0
  8 35  1  0
  8 36  1  0
  9 10  1  0
  9 37  1  0
  9 38  1  0
 10 16  1  0
 10 11  1  1
 10 12  1  0
 11 39  1  0
 11 40  1  0
 11 41  1  0
 12 13  1  0
 14 13  1  6
 14 23  1  0
 14 15  1  0
 14 17  1  0
 15 16  1  0
 16 42  1  1
 17 18  1  0
 18 19  1  0
 18 20  1  0
 18 21  1  0
 19 43  1  0
 19 44  1  0
 19 45  1  0
 20 46  1  0
 20 47  1  0
 20 48  1  0
 21 22  1  0
 21 49  1  0
 22 23  1  0
 22 50  1  0
 22 51  1  0
 23 52  1  6
M  END
>  <i_m_ct_stereo_status>  (134) 
1

>  <s_m_source_file>  (134) 
/var/tmp/pbs.5076255.sched01/tmpmqqk35eb/391x3533zq.sdf

>  <i_m_source_file_index>  (134) 
14

>  <i_lp_mmshare_version>  (134) 
48012

>  <i_f3d_flags>  (134) 
0

>  <s_epik_input>  (134) 
TzFPW0NAQF0oW0NIM10pKFtDQEhdMk8zKVtDSDJdW0NIMl1bQ0BASF0oW0NASF0oW0NIM10pW0NIMl1bQ0gyXTQpW0NAQEhdMltDQEhdNFtDQEhdKFtDQF0xMzUpW0NIMl1bTkhdQyhPNSkoW0NIM10pW0NIM10=

>  <s_epik_cmdline>  (134) 
J2VwaWtfcHl0aG9uJywgJy1waHQnLCAnMi4wJywgJy1waCcsICc3LjAnLCAnLXRuJywgJzgnLCAnLW1hJywgJzIwMCcsICctaW1hZScsICc8aW5maWxlLm1hZT4nLCAnLW9tYWUnLCAnPG91dGZpbGUubWFlPic=

>  <r_epik_Ionization_Penalty>  (134) 
0.510935

>  <r_epik_Ionization_Penalty_Charging>  (134) 
0

>  <r_epik_Ionization_Penalty_Neutral>  (134) 
0.510935

>  <r_epik_State_Penalty>  (134) 
0.518176

>  <r_epik_Charging_Adjusted_Penalty>  (134) 
0.518176

>  <i_epik_Tot_Q>  (134) 
0

>  <i_epik_Tot_abs_Q>  (134) 
0

>  <s_lp_Force_Field>  (134) 
OPLS3e

>  <r_lp_Energy>  (134) 
42.4235

>  <b_lp_Chiralities_Consistent>  (134) 
1

>  <s_lp_Variant>  (134) 
41:0-2

>  <s_i_glide_gridfile>  (134) 
pfpi4k_grid

>  <i_i_glide_lignum>  (134) 
14

>  <i_i_glide_rotatable_bonds>  (134) 
0

>  <r_i_docking_score>  (134) 
-2.59115

>  <r_i_glide_ligand_efficiency>  (134) 
-0.112659

>  <r_i_glide_ligand_efficiency_sa>  (134) 
-0.320387

>  <r_i_glide_ligand_efficiency_ln>  (134) 
-0.626564

>  <r_i_glide_gscore>  (134) 
-2.59115

>  <r_i_glide_lipo>  (134) 
-0.297053

>  <r_i_glide_hbond>  (134) 
0

>  <r_i_glide_metal>  (134) 
-0

>  <r_i_glide_rewards>  (134) 
-1.20391

>  <r_i_glide_evdw>  (134) 
-23.0871

>  <r_i_glide_ecoul>  (134) 
0.530774

>  <r_i_glide_erotb>  (134) 
0

>  <r_i_glide_esite>  (134) 
-0.0154569

>  <r_i_glide_emodel>  (134) 
-26.3853

>  <r_i_glide_energy>  (134) 
-22.5563

>  <r_i_glide_einternal>  (134) 
0

>  <r_i_glide_intrahb_reward>  (134) 
-0

>  <i_i_glide_confnum>  (134) 
1

>  <i_i_glide_posenum>  (134) 
1

>  <r_i_glide_eff_state_penalty>  (134) 
0

>  <ligand_id>  (134) 
41

>  <original_smiles>  (134) 
CC1CCC2C3C1CCC1(C)OOC4(OC31)OC(C)(C)NCC24

>  <smiles>  (134) 
[H]N1C([H])([H])C2([H])C3(OOC4(C([H])([H])[H])C([H])([H])C([H])([H])C5([H])C([H])(C([H])([H])[H])C([H])([H])C([H])([H])C2([H])C5([H])C4([H])O3)OC1(C([H])([H])[H])C([H])([H])[H]

$$$$
42:0:0
     RDKit          3D

 36 39  0  0  1  0  0  0  0  0999 V2000
    6.0058   -6.3525    1.5222 F   0  0  0  0  0  0  0  0  0  0  0  0
    5.2979   -5.2217    1.5432 C   0  0  1  0  0  0  0  0  0  0  0  0
    3.9687   -5.4528    0.7869 C   0  0  0  0  0  0  0  0  0  0  0  0
    3.1386   -4.1574    0.8516 C   0  0  1  0  0  0  0  0  0  0  0  0
    2.8339   -3.7335    2.2966 C   0  0  0  0  0  0  0  0  0  0  0  0
    4.1845   -3.5015    3.0236 C   0  0  1  0  0  0  0  0  0  0  0  0
    5.0038   -4.8103    3.0040 C   0  0  0  0  0  0  0  0  0  0  0  0
    5.0117   -2.3862    2.3202 C   0  0  0  0  0  0  0  0  0  0  0  0
    5.3066   -2.7917    0.8431 C   0  0  2  0  0  0  0  0  0  0  0  0
    6.0872   -1.6646    0.1050 C   0  0  0  0  0  0  0  0  0  0  0  0
    6.4310   -1.8833   -1.2685 O   0  0  0  0  0  0  0  0  0  0  0  0
    5.4187   -2.0195   -2.1726 C   0  0  0  0  0  0  0  0  0  0  0  0
    5.3891   -2.9963   -3.1309 C   0  0  0  0  0  0  0  0  0  0  0  0
    3.7982   -3.1193   -3.8352 S   0  0  0  0  0  0  0  0  0  0  0  0
    3.2960   -1.7641   -2.8570 C   0  0  0  0  0  0  0  0  0  0  0  0
    4.2639   -1.2435   -2.1005 N   0  0  0  0  0  0  0  0  0  0  0  0
    3.9342   -3.0680    0.1791 C   0  0  0  0  0  0  0  0  0  0  0  0
    6.1222   -4.1065    0.8575 C   0  0  0  0  0  0  0  0  0  0  0  0
    4.1875   -5.6946   -0.2572 H   0  0  0  0  0  0  0  0  0  0  0  0
    3.4103   -6.2996    1.1876 H   0  0  0  0  0  0  0  0  0  0  0  0
    2.2115   -4.2790    0.2943 H   0  0  0  0  0  0  0  0  0  0  0  0
    2.2580   -2.8075    2.2753 H   0  0  0  0  0  0  0  0  0  0  0  0
    2.2236   -4.4927    2.7903 H   0  0  0  0  0  0  0  0  0  0  0  0
    3.9763   -3.2073    4.0579 H   0  0  0  0  0  0  0  0  0  0  0  0
    4.4572   -5.6075    3.5137 H   0  0  0  0  0  0  0  0  0  0  0  0
    5.9431   -4.6691    3.5397 H   0  0  0  0  0  0  0  0  0  0  0  0
    4.4527   -1.4551    2.3428 H   0  0  0  0  0  0  0  0  0  0  0  0
    5.9331   -2.1953    2.8781 H   0  0  0  0  0  0  0  0  0  0  0  0
    5.5809   -0.7029    0.2047 H   0  0  0  0  0  0  0  0  0  0  0  0
    7.0303   -1.5275    0.6302 H   0  0  0  0  0  0  0  0  0  0  0  0
    6.1549   -3.6994   -3.4197 H   0  0  0  0  0  0  0  0  0  0  0  0
    2.2674   -1.4630   -2.7452 H   0  0  0  0  0  0  0  0  0  0  0  0
    4.0468   -3.4571   -0.8174 H   0  0  0  0  0  0  0  0  0  0  0  0
    3.3309   -2.1516    0.1625 H   0  0  0  0  0  0  0  0  0  0  0  0
    7.0795   -3.9767    1.3754 H   0  0  0  0  0  0  0  0  0  0  0  0
    6.3707   -4.4023   -0.1626 H   0  0  0  0  0  0  0  0  0  0  0  0
  2  1  1  1
  2  7  1  0
  2 18  1  0
  2  3  1  0
  3  4  1  0
  3 19  1  0
  3 20  1  0
  4 17  1  0
  4  5  1  0
  4 21  1  6
  5  6  1  0
  5 22  1  0
  5 23  1  0
  6  7  1  0
  6  8  1  0
  6 24  1  1
  7 25  1  0
  7 26  1  0
  8  9  1  0
  8 27  1  0
  8 28  1  0
  9 10  1  6
  9 17  1  0
  9 18  1  0
 10 11  1  0
 10 29  1  0
 10 30  1  0
 11 12  1  0
 12 16  1  0
 12 13  2  0
 13 14  1  0
 13 31  1  0
 14 15  1  0
 15 16  2  0
 15 32  1  0
 17 33  1  0
 17 34  1  0
 18 35  1  0
 18 36  1  0
M  END
>  <i_m_ct_stereo_status>  (135) 
1

>  <s_m_source_file>  (135) 
/var/tmp/pbs.5076255.sched01/tmpmqqk35eb/391x3533zq.sdf

>  <i_m_source_file_index>  (135) 
15

>  <i_lp_mmshare_version>  (135) 
48012

>  <i_f3d_flags>  (135) 
0

>  <s_epik_input>  (135) 
RltDQEBdMTJbQ0gyXVtDQEhdM1tDSDJdW0NAQEhdKFtDSDJdMSlbQ0gyXVtDQF0oW0NIMl0zKShbQ0gyXTIpW0NIMl1PYzRbY0hdc1tjSF1uNA==

>  <s_epik_cmdline>  (135) 
J2VwaWtfcHl0aG9uJywgJy1waHQnLCAnMi4wJywgJy1waCcsICc3LjAnLCAnLXRuJywgJzgnLCAnLW1hJywgJzIwMCcsICctaW1hZScsICc8aW5maWxlLm1hZT4nLCAnLW9tYWUnLCAnPG91dGZpbGUubWFlPic=

>  <r_epik_Ionization_Penalty>  (135) 
0.000494099

>  <r_epik_Ionization_Penalty_Charging>  (135) 
0

>  <r_epik_Ionization_Penalty_Neutral>  (135) 
0.000494099

>  <r_epik_State_Penalty>  (135) 
0.000307159

>  <r_epik_Charging_Adjusted_Penalty>  (135) 
0.000307159

>  <i_epik_Tot_Q>  (135) 
0

>  <i_epik_Tot_abs_Q>  (135) 
0

>  <s_lp_Force_Field>  (135) 
OPLS3e

>  <r_lp_Energy>  (135) 
-2.48368

>  <b_lp_Chiralities_Consistent>  (135) 
1

>  <s_lp_Variant>  (135) 
42:0-1

>  <s_i_glide_gridfile>  (135) 
pfpi4k_grid

>  <i_i_glide_lignum>  (135) 
15

>  <i_i_glide_rotatable_bonds>  (135) 
3

>  <r_i_docking_score>  (135) 
-3.05394

>  <r_i_glide_ligand_efficiency>  (135) 
-0.169663

>  <r_i_glide_ligand_efficiency_sa>  (135) 
-0.444644

>  <r_i_glide_ligand_efficiency_ln>  (135) 
-0.784999

>  <r_i_glide_gscore>  (135) 
-3.05394

>  <r_i_glide_lipo>  (135) 
-0.555723

>  <r_i_glide_hbond>  (135) 
-0.16

>  <r_i_glide_metal>  (135) 
-0

>  <r_i_glide_rewards>  (135) 
-1.7052

>  <r_i_glide_evdw>  (135) 
-20.7535

>  <r_i_glide_ecoul>  (135) 
-2.29112

>  <r_i_glide_erotb>  (135) 
0.748325

>  <r_i_glide_esite>  (135) 
0

>  <r_i_glide_emodel>  (135) 
-23.4497

>  <r_i_glide_energy>  (135) 
-23.0446

>  <r_i_glide_einternal>  (135) 
1.08377

>  <r_i_glide_intrahb_reward>  (135) 
-0

>  <i_i_glide_confnum>  (135) 
3

>  <i_i_glide_posenum>  (135) 
29

>  <r_i_glide_eff_state_penalty>  (135) 
0

>  <ligand_id>  (135) 
42

>  <original_smiles>  (135) 
FC12CC3CC(C1)CC(COc1cscn1)(C3)C2

>  <smiles>  (135) 
[H]c1nc(OC([H])([H])C23C([H])([H])C4([H])C([H])([H])C([H])(C([H])([H])C(F)(C4([H])[H])C2([H])[H])C3([H])[H])c([H])s1

$$$$
42:0:1
     RDKit          3D

 36 39  0  0  1  0  0  0  0  0999 V2000
    6.7178   -7.4471    1.4003 F   0  0  0  0  0  0  0  0  0  0  0  0
    5.6705   -6.7011    1.7429 C   0  0  1  0  0  0  0  0  0  0  0  0
    4.3779   -7.5172    1.5396 C   0  0  0  0  0  0  0  0  0  0  0  0
    3.1684   -6.6550    1.9541 C   0  0  1  0  0  0  0  0  0  0  0  0
    3.3068   -6.2357    3.4326 C   0  0  0  0  0  0  0  0  0  0  0  0
    4.6015   -5.4160    3.6142 C   0  0  1  0  0  0  0  0  0  0  0  0
    5.8184   -6.2738    3.2167 C   0  0  0  0  0  0  0  0  0  0  0  0
    4.5486   -4.1587    2.7185 C   0  0  0  0  0  0  0  0  0  0  0  0
    4.4154   -4.5664    1.2279 C   0  0  2  0  0  0  0  0  0  0  0  0
    4.3690   -3.3096    0.3413 C   0  0  0  0  0  0  0  0  0  0  0  0
    4.1984   -3.7069   -1.0130 O   0  0  0  0  0  0  0  0  0  0  0  0
    4.0593   -2.7229   -1.9280 C   0  0  0  0  0  0  0  0  0  0  0  0
    3.5007   -2.9115   -3.1687 C   0  0  0  0  0  0  0  0  0  0  0  0
    3.4423   -1.4245   -4.0810 S   0  0  0  0  0  0  0  0  0  0  0  0
    4.2150   -0.6173   -2.7319 C   0  0  0  0  0  0  0  0  0  0  0  0
    4.4948   -1.4093   -1.7004 N   0  0  0  0  0  0  0  0  0  0  0  0
    3.1139   -5.3958    1.0643 C   0  0  0  0  0  0  0  0  0  0  0  0
    5.6320   -5.4496    0.8460 C   0  0  0  0  0  0  0  0  0  0  0  0
    4.2837   -7.8128    0.4939 H   0  0  0  0  0  0  0  0  0  0  0  0
    4.4094   -8.4386    2.1206 H   0  0  0  0  0  0  0  0  0  0  0  0
    2.2514   -7.2303    1.8228 H   0  0  0  0  0  0  0  0  0  0  0  0
    2.4438   -5.6428    3.7371 H   0  0  0  0  0  0  0  0  0  0  0  0
    3.3216   -7.1150    4.0769 H   0  0  0  0  0  0  0  0  0  0  0  0
    4.6969   -5.1146    4.6577 H   0  0  0  0  0  0  0  0  0  0  0  0
    5.8982   -7.1456    3.8653 H   0  0  0  0  0  0  0  0  0  0  0  0
    6.7382   -5.7031    3.3500 H   0  0  0  0  0  0  0  0  0  0  0  0
    3.7056   -3.5319    3.0144 H   0  0  0  0  0  0  0  0  0  0  0  0
    5.4457   -3.5555    2.8698 H   0  0  0  0  0  0  0  0  0  0  0  0
    3.5386   -2.6650    0.6415 H   0  0  0  0  0  0  0  0  0  0  0  0
    5.2922   -2.7368    0.4566 H   0  0  0  0  0  0  0  0  0  0  0  0
    3.0953   -3.8333   -3.5722 H   0  0  0  0  0  0  0  0  0  0  0  0
    4.4725    0.4312   -2.7110 H   0  0  0  0  0  0  0  0  0  0  0  0
    2.9745   -5.6958    0.0240 H   0  0  0  0  0  0  0  0  0  0  0  0
    2.2460   -4.7892    1.3278 H   0  0  0  0  0  0  0  0  0  0  0  0
    6.5608   -4.8872    0.9522 H   0  0  0  0  0  0  0  0  0  0  0  0
    5.5759   -5.7535   -0.2008 H   0  0  0  0  0  0  0  0  0  0  0  0
  2  1  1  6
  2  7  1  0
  2 18  1  0
  2  3  1  0
  3  4  1  0
  3 19  1  0
  3 20  1  0
  4 17  1  0
  4  5  1  0
  4 21  1  1
  5  6  1  0
  5 22  1  0
  5 23  1  0
  6  7  1  0
  6  8  1  0
  6 24  1  1
  7 25  1  0
  7 26  1  0
  8  9  1  0
  8 27  1  0
  8 28  1  0
  9 10  1  6
  9 17  1  0
  9 18  1  0
 10 11  1  0
 10 29  1  0
 10 30  1  0
 11 12  1  0
 12 16  1  0
 12 13  2  0
 13 14  1  0
 13 31  1  0
 14 15  1  0
 15 16  2  0
 15 32  1  0
 17 33  1  0
 17 34  1  0
 18 35  1  0
 18 36  1  0
M  END
>  <i_m_ct_stereo_status>  (136) 
1

>  <s_m_source_file>  (136) 
/var/tmp/pbs.5076255.sched01/tmpmqqk35eb/391x3533zq.sdf

>  <i_m_source_file_index>  (136) 
15

>  <i_lp_mmshare_version>  (136) 
48012

>  <i_f3d_flags>  (136) 
0

>  <s_epik_input>  (136) 
RltDQEBdMTJbQ0gyXVtDQEhdM1tDSDJdW0NAQEhdKFtDSDJdMSlbQ0gyXVtDQF0oW0NIMl0zKShbQ0gyXTIpW0NIMl1PYzRbY0hdc1tjSF1uNA==

>  <s_epik_cmdline>  (136) 
J2VwaWtfcHl0aG9uJywgJy1waHQnLCAnMi4wJywgJy1waCcsICc3LjAnLCAnLXRuJywgJzgnLCAnLW1hJywgJzIwMCcsICctaW1hZScsICc8aW5maWxlLm1hZT4nLCAnLW9tYWUnLCAnPG91dGZpbGUubWFlPic=

>  <r_epik_Ionization_Penalty>  (136) 
0.000494099

>  <r_epik_Ionization_Penalty_Charging>  (136) 
0

>  <r_epik_Ionization_Penalty_Neutral>  (136) 
0.000494099

>  <r_epik_State_Penalty>  (136) 
0.000307159

>  <r_epik_Charging_Adjusted_Penalty>  (136) 
0.000307159

>  <i_epik_Tot_Q>  (136) 
0

>  <i_epik_Tot_abs_Q>  (136) 
0

>  <s_lp_Force_Field>  (136) 
OPLS3e

>  <r_lp_Energy>  (136) 
-2.48368

>  <b_lp_Chiralities_Consistent>  (136) 
1

>  <s_lp_Variant>  (136) 
42:0-1

>  <s_i_glide_gridfile>  (136) 
pfpi4k_grid

>  <i_i_glide_lignum>  (136) 
15

>  <i_i_glide_rotatable_bonds>  (136) 
3

>  <r_i_docking_score>  (136) 
-2.69043

>  <r_i_glide_ligand_efficiency>  (136) 
-0.149469

>  <r_i_glide_ligand_efficiency_sa>  (136) 
-0.391718

>  <r_i_glide_ligand_efficiency_ln>  (136) 
-0.691562

>  <r_i_glide_gscore>  (136) 
-2.69043

>  <r_i_glide_lipo>  (136) 
-0.534014

>  <r_i_glide_hbond>  (136) 
0

>  <r_i_glide_metal>  (136) 
-0

>  <r_i_glide_rewards>  (136) 
-1.72893

>  <r_i_glide_evdw>  (136) 
-20.7544

>  <r_i_glide_ecoul>  (136) 
-0.920636

>  <r_i_glide_erotb>  (136) 
0.748325

>  <r_i_glide_esite>  (136) 
0

>  <r_i_glide_emodel>  (136) 
-25.1541

>  <r_i_glide_energy>  (136) 
-21.675

>  <r_i_glide_einternal>  (136) 
0.996882

>  <r_i_glide_intrahb_reward>  (136) 
-0

>  <i_i_glide_confnum>  (136) 
3

>  <i_i_glide_posenum>  (136) 
2

>  <r_i_glide_eff_state_penalty>  (136) 
0

>  <ligand_id>  (136) 
42

>  <original_smiles>  (136) 
FC12CC3CC(C1)CC(COc1cscn1)(C3)C2

>  <smiles>  (136) 
[H]c1nc(OC([H])([H])C23C([H])([H])C4([H])C([H])([H])C([H])(C([H])([H])C(F)(C4([H])[H])C2([H])[H])C3([H])[H])c([H])s1

$$$$
43:0:0
     RDKit          3D

 16 18  0  0  1  0  0  0  0  0999 V2000
    3.0325   -1.4015   -3.9182 C   0  0  0  0  0  0  0  0  0  0  0  0
    3.7786   -0.3235   -3.5353 C   0  0  0  0  0  0  0  0  0  0  0  0
    4.7392   -0.6946   -2.6452 O   0  0  0  0  0  0  0  0  0  0  0  0
    4.6158   -2.0442   -2.4815 C   0  0  0  0  0  0  0  0  0  0  0  0
    5.5319   -2.7032   -1.5586 C   0  0  0  0  0  0  0  0  0  0  0  0
    6.7852   -2.2887   -1.3381 N   0  0  0  0  0  0  0  0  0  0  0  0
    7.3032   -3.1443   -0.4285 N   0  0  0  0  0  0  0  0  0  0  0  0
    8.5592   -3.0905    0.0239 N   0  0  0  0  0  0  0  0  0  0  0  0
    8.6125   -4.1015    0.8519 N   0  0  0  0  0  0  0  0  0  0  0  0
    7.3868   -4.7930    0.9333 N   0  0  0  0  0  0  0  0  0  0  0  0
    6.5950   -4.1641    0.1079 C   0  0  0  0  0  0  0  0  0  0  0  0
    4.9891   -4.1193   -0.5988 S   0  0  0  0  0  0  0  0  0  0  0  0
    3.5685   -2.5169   -3.2208 C   0  0  0  0  0  0  0  0  0  0  0  0
    2.1983   -1.3818   -4.5977 H   0  0  0  0  0  0  0  0  0  0  0  0
    3.7476    0.7263   -3.7855 H   0  0  0  0  0  0  0  0  0  0  0  0
    3.2266   -3.5412   -3.2448 H   0  0  0  0  0  0  0  0  0  0  0  0
  1 13  1  0
  1  2  2  0
  1 14  1  0
  2  3  1  0
  2 15  1  0
  3  4  1  0
  4  5  1  0
  4 13  2  0
  5 12  1  0
  5  6  2  0
  6  7  1  0
  7 11  1  0
  7  8  1  0
  8  9  2  0
  9 10  1  0
 10 11  2  0
 11 12  1  0
 13 16  1  0
M  END
>  <i_m_ct_stereo_status>  (137) 
1

>  <s_m_source_file>  (137) 
/var/tmp/pbs.5076255.sched01/tmpmqqk35eb/391x3533zq.sdf

>  <i_m_source_file_index>  (137) 
16

>  <i_lp_mmshare_version>  (137) 
48012

>  <i_f3d_flags>  (137) 
0

>  <s_epik_input>  (137) 
W2NIXTFbY0hdW2NIXW9jMS1jKG4yKXNjKG4yMylubm4z

>  <s_epik_cmdline>  (137) 
J2VwaWtfcHl0aG9uJywgJy1waHQnLCAnMi4wJywgJy1waCcsICc3LjAnLCAnLXRuJywgJzgnLCAnLW1hJywgJzIwMCcsICctaW1hZScsICc8aW5maWxlLm1hZT4nLCAnLW9tYWUnLCAnPG91dGZpbGUubWFlPic=

>  <r_lp_tautomer_probability>  (137) 
1

>  <r_epik_Ionization_Penalty>  (137) 
6.27611e-10

>  <r_epik_Ionization_Penalty_Charging>  (137) 
0

>  <r_epik_Ionization_Penalty_Neutral>  (137) 
6.27611e-10

>  <r_epik_State_Penalty>  (137) 
-0

>  <r_epik_Charging_Adjusted_Penalty>  (137) 
0

>  <i_epik_Tot_Q>  (137) 
0

>  <i_epik_Tot_abs_Q>  (137) 
0

>  <s_lp_Force_Field>  (137) 
OPLS3e

>  <r_lp_Energy>  (137) 
3.28236

>  <b_lp_Chiralities_Consistent>  (137) 
1

>  <s_lp_Variant>  (137) 
43:0-1

>  <s_i_glide_gridfile>  (137) 
pfpi4k_grid

>  <i_i_glide_lignum>  (137) 
16

>  <i_i_glide_rotatable_bonds>  (137) 
1

>  <r_i_docking_score>  (137) 
-4.28308

>  <r_i_glide_ligand_efficiency>  (137) 
-0.329467

>  <r_i_glide_ligand_efficiency_sa>  (137) 
-0.774688

>  <r_i_glide_ligand_efficiency_ln>  (137) 
-1.20144

>  <r_i_glide_gscore>  (137) 
-4.28308

>  <r_i_glide_lipo>  (137) 
-0.547061

>  <r_i_glide_hbond>  (137) 
-0.16

>  <r_i_glide_metal>  (137) 
-0

>  <r_i_glide_rewards>  (137) 
-2.37907

>  <r_i_glide_evdw>  (137) 
-23.921

>  <r_i_glide_ecoul>  (137) 
-2.8897

>  <r_i_glide_erotb>  (137) 
0.432557

>  <r_i_glide_esite>  (137) 
0

>  <r_i_glide_emodel>  (137) 
-33.3126

>  <r_i_glide_energy>  (137) 
-26.8107

>  <r_i_glide_einternal>  (137) 
1.44318

>  <r_i_glide_intrahb_reward>  (137) 
-0

>  <i_i_glide_confnum>  (137) 
2

>  <i_i_glide_posenum>  (137) 
8

>  <r_i_glide_eff_state_penalty>  (137) 
0

>  <ligand_id>  (137) 
43

>  <original_smiles>  (137) 
c1coc(-c2nn3nnnc3s2)c1

>  <smiles>  (137) 
[H]c1oc(-c2nn3nnnc3s2)c([H])c1[H]

$$$$
43:0:1
     RDKit          3D

 16 18  0  0  1  0  0  0  0  0999 V2000
    3.0787   -1.2350   -3.9161 C   0  0  0  0  0  0  0  0  0  0  0  0
    3.9926   -0.6716   -3.0729 C   0  0  0  0  0  0  0  0  0  0  0  0
    4.1299   -1.4226   -1.9488 O   0  0  0  0  0  0  0  0  0  0  0  0
    3.2645   -2.4713   -2.0576 C   0  0  0  0  0  0  0  0  0  0  0  0
    3.2496   -3.4061   -0.9390 C   0  0  0  0  0  0  0  0  0  0  0  0
    2.2249   -4.2281   -0.6758 N   0  0  0  0  0  0  0  0  0  0  0  0
    2.6041   -4.9513    0.3991 N   0  0  0  0  0  0  0  0  0  0  0  0
    1.8275   -5.8698    0.9823 N   0  0  0  0  0  0  0  0  0  0  0  0
    2.5717   -6.2842    1.9722 N   0  0  0  0  0  0  0  0  0  0  0  0
    3.8167   -5.6240    2.0239 N   0  0  0  0  0  0  0  0  0  0  0  0
    3.7950   -4.7920    1.0189 C   0  0  0  0  0  0  0  0  0  0  0  0
    4.6728   -3.5444    0.1546 S   0  0  0  0  0  0  0  0  0  0  0  0
    2.6101   -2.4093   -3.2612 C   0  0  0  0  0  0  0  0  0  0  0  0
    2.7747   -0.8344   -4.8718 H   0  0  0  0  0  0  0  0  0  0  0  0
    4.5977    0.2224   -3.1085 H   0  0  0  0  0  0  0  0  0  0  0  0
    1.8685   -3.1117   -3.6145 H   0  0  0  0  0  0  0  0  0  0  0  0
  1 13  1  0
  1  2  2  0
  1 14  1  0
  2  3  1  0
  2 15  1  0
  3  4  1  0
  4  5  1  0
  4 13  2  0
  5 12  1  0
  5  6  2  0
  6  7  1  0
  7 11  1  0
  7  8  1  0
  8  9  2  0
  9 10  1  0
 10 11  2  0
 11 12  1  0
 13 16  1  0
M  END
>  <i_m_ct_stereo_status>  (138) 
1

>  <s_m_source_file>  (138) 
/var/tmp/pbs.5076255.sched01/tmpmqqk35eb/391x3533zq.sdf

>  <i_m_source_file_index>  (138) 
16

>  <i_lp_mmshare_version>  (138) 
48012

>  <i_f3d_flags>  (138) 
0

>  <s_epik_input>  (138) 
W2NIXTFbY0hdW2NIXW9jMS1jKG4yKXNjKG4yMylubm4z

>  <s_epik_cmdline>  (138) 
J2VwaWtfcHl0aG9uJywgJy1waHQnLCAnMi4wJywgJy1waCcsICc3LjAnLCAnLXRuJywgJzgnLCAnLW1hJywgJzIwMCcsICctaW1hZScsICc8aW5maWxlLm1hZT4nLCAnLW9tYWUnLCAnPG91dGZpbGUubWFlPic=

>  <r_lp_tautomer_probability>  (138) 
1

>  <r_epik_Ionization_Penalty>  (138) 
6.27611e-10

>  <r_epik_Ionization_Penalty_Charging>  (138) 
0

>  <r_epik_Ionization_Penalty_Neutral>  (138) 
6.27611e-10

>  <r_epik_State_Penalty>  (138) 
-0

>  <r_epik_Charging_Adjusted_Penalty>  (138) 
0

>  <i_epik_Tot_Q>  (138) 
0

>  <i_epik_Tot_abs_Q>  (138) 
0

>  <s_lp_Force_Field>  (138) 
OPLS3e

>  <r_lp_Energy>  (138) 
3.28236

>  <b_lp_Chiralities_Consistent>  (138) 
1

>  <s_lp_Variant>  (138) 
43:0-1

>  <s_i_glide_gridfile>  (138) 
pfpi4k_grid

>  <i_i_glide_lignum>  (138) 
16

>  <i_i_glide_rotatable_bonds>  (138) 
1

>  <r_i_docking_score>  (138) 
-3.56671

>  <r_i_glide_ligand_efficiency>  (138) 
-0.274362

>  <r_i_glide_ligand_efficiency_sa>  (138) 
-0.645117

>  <r_i_glide_ligand_efficiency_ln>  (138) 
-1.00049

>  <r_i_glide_gscore>  (138) 
-3.56671

>  <r_i_glide_lipo>  (138) 
-0.513194

>  <r_i_glide_hbond>  (138) 
0

>  <r_i_glide_metal>  (138) 
-0

>  <r_i_glide_rewards>  (138) 
-2.10657

>  <r_i_glide_evdw>  (138) 
-19.5084

>  <r_i_glide_ecoul>  (138) 
-1.93902

>  <r_i_glide_erotb>  (138) 
0.432557

>  <r_i_glide_esite>  (138) 
-0.113228

>  <r_i_glide_emodel>  (138) 
-27.0308

>  <r_i_glide_energy>  (138) 
-21.4474

>  <r_i_glide_einternal>  (138) 
0.682275

>  <r_i_glide_intrahb_reward>  (138) 
-0

>  <i_i_glide_confnum>  (138) 
1

>  <i_i_glide_posenum>  (138) 
6

>  <r_i_glide_eff_state_penalty>  (138) 
0

>  <ligand_id>  (138) 
43

>  <original_smiles>  (138) 
c1coc(-c2nn3nnnc3s2)c1

>  <smiles>  (138) 
[H]c1oc(-c2nn3nnnc3s2)c([H])c1[H]

$$$$
43:0:2
     RDKit          3D

 16 18  0  0  1  0  0  0  0  0999 V2000
    3.0134   -0.7187   -4.3176 C   0  0  0  0  0  0  0  0  0  0  0  0
    3.8246    0.0150   -3.5129 C   0  0  0  0  0  0  0  0  0  0  0  0
    4.1571   -0.6848   -2.3932 O   0  0  0  0  0  0  0  0  0  0  0  0
    3.4923   -1.8722   -2.4582 C   0  0  0  0  0  0  0  0  0  0  0  0
    3.7165   -2.7858   -1.3472 C   0  0  0  0  0  0  0  0  0  0  0  0
    2.7821   -3.6250   -0.8878 N   0  0  0  0  0  0  0  0  0  0  0  0
    3.3720   -4.3287    0.1061 N   0  0  0  0  0  0  0  0  0  0  0  0
    2.7535   -5.2596    0.8368 N   0  0  0  0  0  0  0  0  0  0  0  0
    3.6896   -5.6518    1.6568 N   0  0  0  0  0  0  0  0  0  0  0  0
    4.9072   -4.9650    1.4531 N   0  0  0  0  0  0  0  0  0  0  0  0
    4.6600   -4.1425    0.4709 C   0  0  0  0  0  0  0  0  0  0  0  0
    5.3272   -2.8883   -0.5605 S   0  0  0  0  0  0  0  0  0  0  0  0
    2.7940   -1.9528   -3.6343 C   0  0  0  0  0  0  0  0  0  0  0  0
    2.6134   -0.3845   -5.2646 H   0  0  0  0  0  0  0  0  0  0  0  0
    4.2323    1.0148   -3.5683 H   0  0  0  0  0  0  0  0  0  0  0  0
    2.1988   -2.7892   -3.9624 H   0  0  0  0  0  0  0  0  0  0  0  0
  1 13  1  0
  1  2  2  0
  1 14  1  0
  2  3  1  0
  2 15  1  0
  3  4  1  0
  4  5  1  0
  4 13  2  0
  5 12  1  0
  5  6  2  0
  6  7  1  0
  7 11  1  0
  7  8  1  0
  8  9  2  0
  9 10  1  0
 10 11  2  0
 11 12  1  0
 13 16  1  0
M  END
>  <i_m_ct_stereo_status>  (139) 
1

>  <s_m_source_file>  (139) 
/var/tmp/pbs.5076255.sched01/tmpmqqk35eb/391x3533zq.sdf

>  <i_m_source_file_index>  (139) 
16

>  <i_lp_mmshare_version>  (139) 
48012

>  <i_f3d_flags>  (139) 
0

>  <s_epik_input>  (139) 
W2NIXTFbY0hdW2NIXW9jMS1jKG4yKXNjKG4yMylubm4z

>  <s_epik_cmdline>  (139) 
J2VwaWtfcHl0aG9uJywgJy1waHQnLCAnMi4wJywgJy1waCcsICc3LjAnLCAnLXRuJywgJzgnLCAnLW1hJywgJzIwMCcsICctaW1hZScsICc8aW5maWxlLm1hZT4nLCAnLW9tYWUnLCAnPG91dGZpbGUubWFlPic=

>  <r_lp_tautomer_probability>  (139) 
1

>  <r_epik_Ionization_Penalty>  (139) 
6.27611e-10

>  <r_epik_Ionization_Penalty_Charging>  (139) 
0

>  <r_epik_Ionization_Penalty_Neutral>  (139) 
6.27611e-10

>  <r_epik_State_Penalty>  (139) 
-0

>  <r_epik_Charging_Adjusted_Penalty>  (139) 
0

>  <i_epik_Tot_Q>  (139) 
0

>  <i_epik_Tot_abs_Q>  (139) 
0

>  <s_lp_Force_Field>  (139) 
OPLS3e

>  <r_lp_Energy>  (139) 
3.28236

>  <b_lp_Chiralities_Consistent>  (139) 
1

>  <s_lp_Variant>  (139) 
43:0-1

>  <s_i_glide_gridfile>  (139) 
pfpi4k_grid

>  <i_i_glide_lignum>  (139) 
16

>  <i_i_glide_rotatable_bonds>  (139) 
1

>  <r_i_docking_score>  (139) 
-3.37916

>  <r_i_glide_ligand_efficiency>  (139) 
-0.259935

>  <r_i_glide_ligand_efficiency_sa>  (139) 
-0.611194

>  <r_i_glide_ligand_efficiency_ln>  (139) 
-0.947883

>  <r_i_glide_gscore>  (139) 
-3.37916

>  <r_i_glide_lipo>  (139) 
-0.484603

>  <r_i_glide_hbond>  (139) 
0

>  <r_i_glide_metal>  (139) 
-0

>  <r_i_glide_rewards>  (139) 
-2.14276

>  <r_i_glide_evdw>  (139) 
-20.2921

>  <r_i_glide_ecoul>  (139) 
-0.824053

>  <r_i_glide_erotb>  (139) 
0.432557

>  <r_i_glide_esite>  (139) 
-0.0461399

>  <r_i_glide_emodel>  (139) 
-25.8177

>  <r_i_glide_energy>  (139) 
-21.1161

>  <r_i_glide_einternal>  (139) 
1.59026

>  <r_i_glide_intrahb_reward>  (139) 
-0

>  <i_i_glide_confnum>  (139) 
3

>  <i_i_glide_posenum>  (139) 
30

>  <r_i_glide_eff_state_penalty>  (139) 
0

>  <ligand_id>  (139) 
43

>  <original_smiles>  (139) 
c1coc(-c2nn3nnnc3s2)c1

>  <smiles>  (139) 
[H]c1oc(-c2nn3nnnc3s2)c([H])c1[H]

$$$$
44:1:0
     RDKit          3D

 51 56  0  0  1  0  0  0  0  0999 V2000
    4.7749   -4.1741    4.0092 C   0  0  0  0  0  0  0  0  0  0  0  0
    3.6488   -4.7997    3.2102 C   0  0  0  0  0  0  0  0  0  0  0  0
    2.7874   -5.7630    3.6112 C   0  0  0  0  0  0  0  0  0  0  0  0
    2.8800   -6.4057    5.0887 C   0  0  1  0  0  0  0  0  0  0  0  0
    2.4167   -5.4706    6.0623 O   0  0  0  0  0  0  0  0  0  0  0  0
    3.0864   -5.4976    7.3190 C   0  0  0  0  0  0  0  0  0  0  0  0
    2.2813   -7.8896    5.4037 C   0  0  1  0  0  0  0  0  0  0  0  0
    0.7356   -8.0823    5.4799 C   0  0  1  0  0  0  0  0  0  0  0  0
    0.1098   -7.0688    6.2767 O   0  0  0  0  0  0  0  0  0  0  0  0
    0.2677   -7.1969    7.6852 C   0  0  0  0  0  0  0  0  0  0  0  0
    0.0919   -8.1417    4.0297 C   0  0  1  0  0  0  0  0  0  0  0  0
    0.6115   -6.9404    3.2639 C   0  0  1  0  0  0  0  0  0  0  0  0
   -0.4707   -6.6567    2.5719 O   0  0  0  0  0  0  0  0  0  0  0  0
    1.6643   -6.2244    2.5439 C   0  0  2  0  0  0  0  0  0  0  0  0
    1.6349   -7.3655    1.3495 C   0  0  0  0  0  0  0  0  0  0  0  0
    1.3852   -8.8187    2.0408 C   0  0  1  0  0  0  0  0  0  0  0  0
    2.0233   -8.0657    3.0592 C   0  0  2  0  0  0  0  0  0  0  0  0
    2.6437   -8.8105    4.2615 C   0  0  1  0  0  0  0  0  0  0  0  0
    3.9997   -9.5022    4.5177 C   0  0  0  0  0  0  0  0  0  0  0  0
    3.2358  -10.6399    5.0628 O   0  0  0  0  0  0  0  0  0  0  0  0
    2.2830  -10.2877    4.0562 C   0  0  1  0  0  0  0  0  0  0  0  0
    0.7917  -10.5084    3.8598 C   0  0  0  0  0  0  0  0  0  0  0  0
    0.3083   -9.3104    3.0496 N   0  0  1  0  0  0  0  0  0  0  0  0
   -0.9510   -9.7342    2.3494 C   0  0  0  0  0  0  0  0  0  0  0  0
    4.6775   -3.0897    3.9808 H   0  0  0  0  0  0  0  0  0  0  0  0
    5.7353   -4.4330    3.5634 H   0  0  0  0  0  0  0  0  0  0  0  0
    4.7930   -4.4709    5.0574 H   0  0  0  0  0  0  0  0  0  0  0  0
    3.5425   -4.4139    2.2074 H   0  0  0  0  0  0  0  0  0  0  0  0
    3.9512   -6.5165    5.2436 H   0  0  0  0  0  0  0  0  0  0  0  0
    2.5101   -4.8783    8.0054 H   0  0  0  0  0  0  0  0  0  0  0  0
    4.0982   -5.0852    7.2644 H   0  0  0  0  0  0  0  0  0  0  0  0
    3.1433   -6.4867    7.7551 H   0  0  0  0  0  0  0  0  0  0  0  0
    2.7080   -8.2473    6.3386 H   0  0  0  0  0  0  0  0  0  0  0  0
    0.5294   -9.0079    6.0134 H   0  0  0  0  0  0  0  0  0  0  0  0
   -0.1642   -6.3148    8.1622 H   0  0  0  0  0  0  0  0  0  0  0  0
    1.2866   -7.2781    7.9805 H   0  0  0  0  0  0  0  0  0  0  0  0
   -0.2624   -8.0722    8.0719 H   0  0  0  0  0  0  0  0  0  0  0  0
   -0.9821   -8.0988    4.2302 H   0  0  0  0  0  0  0  0  0  0  0  0
    1.3218   -5.2789    2.1110 H   0  0  0  0  0  0  0  0  0  0  0  0
    0.9074   -7.1725    0.5492 H   0  0  0  0  0  0  0  0  0  0  0  0
    2.5971   -7.3217    0.8401 H   0  0  0  0  0  0  0  0  0  0  0  0
    1.9506   -9.6068    1.5351 H   0  0  0  0  0  0  0  0  0  0  0  0
    3.0869   -7.8813    2.7371 H   0  0  0  0  0  0  0  0  0  0  0  0
    4.5849   -9.7421    3.6220 H   0  0  0  0  0  0  0  0  0  0  0  0
    4.6231   -9.0111    5.2643 H   0  0  0  0  0  0  0  0  0  0  0  0
    2.7115  -10.6984    3.1257 H   0  0  0  0  0  0  0  0  0  0  0  0
    0.6498  -11.4385    3.3090 H   0  0  0  0  0  0  0  0  0  0  0  0
    0.2450  -10.6485    4.7880 H   0  0  0  0  0  0  0  0  0  0  0  0
   -0.7662  -10.5940    1.7013 H   0  0  0  0  0  0  0  0  0  0  0  0
   -1.3651   -8.9416    1.7335 H   0  0  0  0  0  0  0  0  0  0  0  0
   -1.7076  -10.0155    3.0763 H   0  0  0  0  0  0  0  0  0  0  0  0
  1  2  1  0
  1 25  1  0
  1 26  1  0
  1 27  1  0
  2  3  2  3
  2 28  1  0
  3 14  1  0
  3  4  1  0
  4  5  1  0
  4  7  1  0
  4 29  1  1
  5  6  1  0
  6 30  1  0
  6 31  1  0
  6 32  1  0
  7 18  1  0
  7  8  1  0
  7 33  1  1
  8  9  1  0
  8 11  1  0
  8 34  1  1
  9 10  1  0
 10 35  1  0
 10 36  1  0
 10 37  1  0
 11 23  1  0
 11 12  1  0
 11 38  1  1
 12 17  1  0
 12 13  1  6
 12 14  1  0
 14 15  1  0
 14 39  1  6
 15 16  1  0
 15 40  1  0
 15 41  1  0
 16 23  1  0
 16 17  1  0
 16 42  1  6
 17 18  1  0
 17 43  1  6
 18 21  1  0
 18 19  1  6
 19 20  1  0
 19 44  1  0
 19 45  1  0
 20 21  1  0
 21 22  1  0
 21 46  1  6
 22 23  1  0
 22 47  1  0
 22 48  1  0
 23 24  1  6
 24 49  1  0
 24 50  1  0
 24 51  1  0
M  CHG  2  13  -1  23   1
M  END
>  <i_m_ct_stereo_status>  (140) 
1

>  <s_m_source_file>  (140) 
/var/tmp/pbs.5076255.sched01/tmpmqqk35eb/391x3533zq.sdf

>  <i_m_source_file_index>  (140) 
18

>  <i_lp_mmshare_version>  (140) 
48012

>  <i_f3d_flags>  (140) 
0

>  <s_epik_input>  (140) 
W0NIM11PW0NAQEhdKFtDQEBIXTFbQ0BAXTIzNClcQyg9W0NIXVxbQ0gzXSlbQ0BASF01W0NAXTYoW09IXSlbQ0BIXShbQ0BASF0xT1tDSDNdKVtOQEArXShbQ0gzXSkoW0NIXShbQ0gyXTUpW0NIXTI2KVtDSDJdW0NAQEhdNE9bQ0gyXTM=

>  <s_epik_cmdline>  (140) 
J2VwaWtfcHl0aG9uJywgJy1waHQnLCAnMi4wJywgJy1waCcsICc3LjAnLCAnLXRuJywgJzgnLCAnLW1hJywgJzIwMCcsICctaW1hZScsICc8aW5maWxlLm1hZT4nLCAnLW9tYWUnLCAnPG91dGZpbGUubWFlPic=

>  <r_epik_Ionization_Penalty>  (140) 
2.48013

>  <r_epik_Ionization_Penalty_Charging>  (140) 
2.48013

>  <r_epik_Ionization_Penalty_Neutral>  (140) 
6.26612e-13

>  <r_epik_State_Penalty>  (140) 
2.64369

>  <r_epik_Charging_Adjusted_Penalty>  (140) 
5.12382

>  <i_epik_Tot_Q>  (140) 
0

>  <i_epik_Tot_abs_Q>  (140) 
2

>  <s_lp_Force_Field>  (140) 
OPLS3e

>  <r_lp_Energy>  (140) 
362.809

>  <b_lp_Chiralities_Consistent>  (140) 
1

>  <s_lp_Variant>  (140) 
44:0-2

>  <s_i_glide_gridfile>  (140) 
pfpi4k_grid

>  <i_i_glide_lignum>  (140) 
18

>  <i_i_glide_rotatable_bonds>  (140) 
2

>  <r_i_docking_score>  (140) 
-3.2772

>  <r_i_glide_ligand_efficiency>  (140) 
-0.13655

>  <r_i_glide_ligand_efficiency_sa>  (140) 
-0.393878

>  <r_i_glide_ligand_efficiency_ln>  (140) 
-0.784384

>  <r_i_glide_gscore>  (140) 
-3.2772

>  <r_i_glide_lipo>  (140) 
-0.169219

>  <r_i_glide_hbond>  (140) 
-0.2

>  <r_i_glide_metal>  (140) 
-0

>  <r_i_glide_rewards>  (140) 
-1.43576

>  <r_i_glide_evdw>  (140) 
-16.4449

>  <r_i_glide_ecoul>  (140) 
-4.15115

>  <r_i_glide_erotb>  (140) 
0

>  <r_i_glide_esite>  (140) 
-0.0272996

>  <r_i_glide_emodel>  (140) 
-28.402

>  <r_i_glide_energy>  (140) 
-20.5961

>  <r_i_glide_einternal>  (140) 
0.705367

>  <r_i_glide_intrahb_reward>  (140) 
-0

>  <i_i_glide_confnum>  (140) 
2

>  <i_i_glide_posenum>  (140) 
8

>  <r_i_glide_eff_state_penalty>  (140) 
0

>  <ligand_id>  (140) 
44

>  <original_smiles>  (140) 
CC=C1C(OC)C2C(OC)C3C4(O)C1CC1C4C24COC4C[N+]13C

>  <smiles>  (140) 
[H]C(=C1C([H])(OC([H])([H])[H])C2([H])C([H])(OC([H])([H])[H])C3([H])C4([O-])C1([H])C([H])([H])C1([H])C4([H])C24C([H])([H])OC4([H])C([H])([H])[N+]13C([H])([H])[H])C([H])([H])[H]

$$$$
44:1:1
     RDKit          3D

 51 56  0  0  1  0  0  0  0  0999 V2000
    4.0743   -1.9753   -3.7714 C   0  0  0  0  0  0  0  0  0  0  0  0
    3.7317   -1.6359   -2.3306 C   0  0  0  0  0  0  0  0  0  0  0  0
    4.3205   -2.0866   -1.2030 C   0  0  0  0  0  0  0  0  0  0  0  0
    5.5524   -3.1194   -1.2762 C   0  0  1  0  0  0  0  0  0  0  0  0
    6.7298   -2.4342   -1.7278 O   0  0  0  0  0  0  0  0  0  0  0  0
    7.9083   -3.2193   -1.9055 C   0  0  0  0  0  0  0  0  0  0  0  0
    5.8825   -4.0648   -0.0046 C   0  0  1  0  0  0  0  0  0  0  0  0
    6.5636   -3.3887    1.2148 C   0  0  1  0  0  0  0  0  0  0  0  0
    7.7185   -2.5987    0.8872 O   0  0  0  0  0  0  0  0  0  0  0  0
    7.6691   -1.1646    0.7679 C   0  0  0  0  0  0  0  0  0  0  0  0
    5.4879   -2.6893    2.1438 C   0  0  1  0  0  0  0  0  0  0  0  0
    4.6320   -1.7707    1.2788 C   0  0  1  0  0  0  0  0  0  0  0  0
    4.5198   -0.7855    2.1586 O   0  0  0  0  0  0  0  0  0  0  0  0
    3.7295   -1.5296    0.2040 C   0  0  2  0  0  0  0  0  0  0  0  0
    2.5028   -2.0280    1.2130 C   0  0  0  0  0  0  0  0  0  0  0  0
    3.0611   -3.2805    2.1168 C   0  0  1  0  0  0  0  0  0  0  0  0
    3.8049   -3.3343    0.8986 C   0  0  2  0  0  0  0  0  0  0  0  0
    4.5947   -4.6290    0.5670 C   0  0  1  0  0  0  0  0  0  0  0  0
    4.2437   -5.9657   -0.1163 C   0  0  0  0  0  0  0  0  0  0  0  0
    4.9318   -6.6470    0.9961 O   0  0  0  0  0  0  0  0  0  0  0  0
    4.4271   -5.5615    1.7796 C   0  0  1  0  0  0  0  0  0  0  0  0
    4.8363   -4.8947    3.0863 C   0  0  0  0  0  0  0  0  0  0  0  0
    4.3968   -3.4280    2.9512 N   0  0  1  0  0  0  0  0  0  0  0  0
    4.2579   -2.8970    4.3522 C   0  0  0  0  0  0  0  0  0  0  0  0
    4.2072   -1.0551   -4.3414 H   0  0  0  0  0  0  0  0  0  0  0  0
    3.2457   -2.5230   -4.2200 H   0  0  0  0  0  0  0  0  0  0  0  0
    4.9813   -2.5694   -3.8802 H   0  0  0  0  0  0  0  0  0  0  0  0
    2.9121   -0.9456   -2.2216 H   0  0  0  0  0  0  0  0  0  0  0  0
    5.2752   -3.8389   -2.0488 H   0  0  0  0  0  0  0  0  0  0  0  0
    8.7294   -2.5598   -2.1958 H   0  0  0  0  0  0  0  0  0  0  0  0
    7.7706   -3.9375   -2.7080 H   0  0  0  0  0  0  0  0  0  0  0  0
    8.2387   -3.8017   -1.0521 H   0  0  0  0  0  0  0  0  0  0  0  0
    6.5446   -4.9003   -0.2918 H   0  0  0  0  0  0  0  0  0  0  0  0
    7.0193   -4.2127    1.7714 H   0  0  0  0  0  0  0  0  0  0  0  0
    8.6238   -0.7348    0.5330 H   0  0  0  0  0  0  0  0  0  0  0  0
    7.2179   -0.7404    1.6910 H   0  0  0  0  0  0  0  0  0  0  0  0
    6.9822   -0.8737   -0.0396 H   0  0  0  0  0  0  0  0  0  0  0  0
    6.1108   -2.1694    2.8872 H   0  0  0  0  0  0  0  0  0  0  0  0
    3.6321   -0.4592    0.0280 H   0  0  0  0  0  0  0  0  0  0  0  0
    2.0941   -1.2226    1.8430 H   0  0  0  0  0  0  0  0  0  0  0  0
    1.6307   -2.3074    0.6252 H   0  0  0  0  0  0  0  0  0  0  0  0
    2.2944   -4.0434    2.3187 H   0  0  0  0  0  0  0  0  0  0  0  0
    3.0882   -3.6520    0.0617 H   0  0  0  0  0  0  0  0  0  0  0  0
    3.1721   -6.1758   -0.1653 H   0  0  0  0  0  0  0  0  0  0  0  0
    4.7325   -6.1286   -1.0874 H   0  0  0  0  0  0  0  0  0  0  0  0
    3.3611   -5.8021    1.9633 H   0  0  0  0  0  0  0  0  0  0  0  0
    4.2947   -5.3845    3.9095 H   0  0  0  0  0  0  0  0  0  0  0  0
    5.9043   -5.0112    3.3169 H   0  0  0  0  0  0  0  0  0  0  0  0
    3.4873   -3.4478    4.8993 H   0  0  0  0  0  0  0  0  0  0  0  0
    3.9769   -1.8442    4.3465 H   0  0  0  0  0  0  0  0  0  0  0  0
    5.2139   -2.9793    4.8916 H   0  0  0  0  0  0  0  0  0  0  0  0
  1  2  1  0
  1 25  1  0
  1 26  1  0
  1 27  1  0
  2  3  2  3
  2 28  1  0
  3 14  1  0
  3  4  1  0
  4  5  1  0
  4  7  1  0
  4 29  1  6
  5  6  1  0
  6 30  1  0
  6 31  1  0
  6 32  1  0
  7 18  1  0
  7  8  1  0
  7 33  1  6
  8  9  1  0
  8 11  1  0
  8 34  1  1
  9 10  1  0
 10 35  1  0
 10 36  1  0
 10 37  1  0
 11 23  1  0
 11 12  1  0
 11 38  1  1
 12 17  1  0
 12 13  1  1
 12 14  1  0
 14 15  1  0
 14 39  1  6
 15 16  1  0
 15 40  1  0
 15 41  1  0
 16 23  1  0
 16 17  1  0
 16 42  1  6
 17 18  1  0
 17 43  1  6
 18 21  1  0
 18 19  1  6
 19 20  1  0
 19 44  1  0
 19 45  1  0
 20 21  1  0
 21 22  1  0
 21 46  1  1
 22 23  1  0
 22 47  1  0
 22 48  1  0
 23 24  1  1
 24 49  1  0
 24 50  1  0
 24 51  1  0
M  CHG  2  13  -1  23   1
M  END
>  <i_m_ct_stereo_status>  (141) 
1

>  <s_m_source_file>  (141) 
/var/tmp/pbs.5076255.sched01/tmpmqqk35eb/391x3533zq.sdf

>  <i_m_source_file_index>  (141) 
18

>  <i_lp_mmshare_version>  (141) 
48012

>  <i_f3d_flags>  (141) 
0

>  <s_epik_input>  (141) 
W0NIM11PW0NAQEhdKFtDQEBIXTFbQ0BAXTIzNClcQyg9W0NIXVxbQ0gzXSlbQ0BASF01W0NAXTYoW09IXSlbQ0BIXShbQ0BASF0xT1tDSDNdKVtOQEArXShbQ0gzXSkoW0NIXShbQ0gyXTUpW0NIXTI2KVtDSDJdW0NAQEhdNE9bQ0gyXTM=

>  <s_epik_cmdline>  (141) 
J2VwaWtfcHl0aG9uJywgJy1waHQnLCAnMi4wJywgJy1waCcsICc3LjAnLCAnLXRuJywgJzgnLCAnLW1hJywgJzIwMCcsICctaW1hZScsICc8aW5maWxlLm1hZT4nLCAnLW9tYWUnLCAnPG91dGZpbGUubWFlPic=

>  <r_epik_Ionization_Penalty>  (141) 
2.48013

>  <r_epik_Ionization_Penalty_Charging>  (141) 
2.48013

>  <r_epik_Ionization_Penalty_Neutral>  (141) 
6.26612e-13

>  <r_epik_State_Penalty>  (141) 
2.64369

>  <r_epik_Charging_Adjusted_Penalty>  (141) 
5.12382

>  <i_epik_Tot_Q>  (141) 
0

>  <i_epik_Tot_abs_Q>  (141) 
2

>  <s_lp_Force_Field>  (141) 
OPLS3e

>  <r_lp_Energy>  (141) 
362.809

>  <b_lp_Chiralities_Consistent>  (141) 
1

>  <s_lp_Variant>  (141) 
44:0-2

>  <s_i_glide_gridfile>  (141) 
pfpi4k_grid

>  <i_i_glide_lignum>  (141) 
18

>  <i_i_glide_rotatable_bonds>  (141) 
2

>  <r_i_docking_score>  (141) 
-3.18809

>  <r_i_glide_ligand_efficiency>  (141) 
-0.132837

>  <r_i_glide_ligand_efficiency_sa>  (141) 
-0.383168

>  <r_i_glide_ligand_efficiency_ln>  (141) 
-0.763056

>  <r_i_glide_gscore>  (141) 
-3.18809

>  <r_i_glide_lipo>  (141) 
-0.48594

>  <r_i_glide_hbond>  (141) 
-0.137498

>  <r_i_glide_metal>  (141) 
-0

>  <r_i_glide_rewards>  (141) 
-1.13576

>  <r_i_glide_evdw>  (141) 
-17.7323

>  <r_i_glide_ecoul>  (141) 
-3.61518

>  <r_i_glide_erotb>  (141) 
0

>  <r_i_glide_esite>  (141) 
0

>  <r_i_glide_emodel>  (141) 
-10.2755

>  <r_i_glide_energy>  (141) 
-21.3475

>  <r_i_glide_einternal>  (141) 
31.3921

>  <r_i_glide_intrahb_reward>  (141) 
-0

>  <i_i_glide_confnum>  (141) 
1

>  <i_i_glide_posenum>  (141) 
1

>  <r_i_glide_eff_state_penalty>  (141) 
0

>  <ligand_id>  (141) 
44

>  <original_smiles>  (141) 
CC=C1C(OC)C2C(OC)C3C4(O)C1CC1C4C24COC4C[N+]13C

>  <smiles>  (141) 
[H]C(=C1C([H])(OC([H])([H])[H])C2([H])C([H])(OC([H])([H])[H])C3([H])C4([O-])C1([H])C([H])([H])C1([H])C4([H])C24C([H])([H])OC4([H])C([H])([H])[N+]13C([H])([H])[H])C([H])([H])[H]

$$$$
44:1:2
     RDKit          3D

 51 56  0  0  1  0  0  0  0  0999 V2000
    4.1046   -2.1543   -2.8722 C   0  0  0  0  0  0  0  0  0  0  0  0
    3.5870   -3.2094   -1.9098 C   0  0  0  0  0  0  0  0  0  0  0  0
    3.9587   -3.4196   -0.6290 C   0  0  0  0  0  0  0  0  0  0  0  0
    5.0653   -2.4845    0.0860 C   0  0  1  0  0  0  0  0  0  0  0  0
    4.4952   -1.2084    0.3593 O   0  0  0  0  0  0  0  0  0  0  0  0
    5.4221   -0.1575    0.5772 C   0  0  0  0  0  0  0  0  0  0  0  0
    5.9152   -3.0080    1.3751 C   0  0  1  0  0  0  0  0  0  0  0  0
    5.1961   -3.1199    2.7528 C   0  0  1  0  0  0  0  0  0  0  0  0
    4.5060   -1.9043    3.0515 O   0  0  0  0  0  0  0  0  0  0  0  0
    4.2984   -1.6608    4.4365 C   0  0  0  0  0  0  0  0  0  0  0  0
    4.2959   -4.4322    2.8401 C   0  0  1  0  0  0  0  0  0  0  0  0
    3.4447   -4.4099    1.5897 C   0  0  1  0  0  0  0  0  0  0  0  0
    2.3254   -4.9081    2.1188 O   0  0  0  0  0  0  0  0  0  0  0  0
    3.2184   -4.6299    0.1659 C   0  0  2  0  0  0  0  0  0  0  0  0
    3.5506   -6.2378    0.3439 C   0  0  0  0  0  0  0  0  0  0  0  0
    4.7305   -6.4036    1.4458 C   0  0  1  0  0  0  0  0  0  0  0  0
    4.9481   -5.1026    0.9016 C   0  0  2  0  0  0  0  0  0  0  0  0
    6.3318   -4.4362    1.1241 C   0  0  1  0  0  0  0  0  0  0  0  0
    7.6979   -4.5016    0.4091 C   0  0  0  0  0  0  0  0  0  0  0  0
    8.3071   -4.6696    1.7334 O   0  0  0  0  0  0  0  0  0  0  0  0
    7.1053   -5.3869    2.0374 C   0  0  1  0  0  0  0  0  0  0  0  0
    6.3352   -5.7374    3.2990 C   0  0  0  0  0  0  0  0  0  0  0  0
    4.8716   -5.8409    2.8868 N   0  0  1  0  0  0  0  0  0  0  0  0
    4.1886   -6.7106    3.8891 C   0  0  0  0  0  0  0  0  0  0  0  0
    3.2531   -1.6294   -3.3058 H   0  0  0  0  0  0  0  0  0  0  0  0
    4.6521   -2.6331   -3.6833 H   0  0  0  0  0  0  0  0  0  0  0  0
    4.7477   -1.4102   -2.4047 H   0  0  0  0  0  0  0  0  0  0  0  0
    2.8368   -3.8578   -2.3319 H   0  0  0  0  0  0  0  0  0  0  0  0
    5.8181   -2.3337   -0.6913 H   0  0  0  0  0  0  0  0  0  0  0  0
    4.8533    0.7289    0.8475 H   0  0  0  0  0  0  0  0  0  0  0  0
    6.0074    0.0565   -0.3162 H   0  0  0  0  0  0  0  0  0  0  0  0
    6.1127   -0.3364    1.3996 H   0  0  0  0  0  0  0  0  0  0  0  0
    6.7982   -2.3793    1.5057 H   0  0  0  0  0  0  0  0  0  0  0  0
    5.9780   -3.1581    3.4988 H   0  0  0  0  0  0  0  0  0  0  0  0
    3.7822   -0.7078    4.5705 H   0  0  0  0  0  0  0  0  0  0  0  0
    5.2491   -1.5950    4.9719 H   0  0  0  0  0  0  0  0  0  0  0  0
    3.6853   -2.4271    4.9128 H   0  0  0  0  0  0  0  0  0  0  0  0
    3.7330   -4.2926    3.7642 H   0  0  0  0  0  0  0  0  0  0  0  0
    2.1719   -4.5223   -0.1361 H   0  0  0  0  0  0  0  0  0  0  0  0
    2.6726   -6.8334    0.6086 H   0  0  0  0  0  0  0  0  0  0  0  0
    3.8566   -6.6648   -0.6170 H   0  0  0  0  0  0  0  0  0  0  0  0
    5.4093   -7.2088    1.1795 H   0  0  0  0  0  0  0  0  0  0  0  0
    5.2868   -5.2420   -0.1698 H   0  0  0  0  0  0  0  0  0  0  0  0
    7.8625   -5.3626   -0.2390 H   0  0  0  0  0  0  0  0  0  0  0  0
    7.9946   -3.5754   -0.0868 H   0  0  0  0  0  0  0  0  0  0  0  0
    7.2620   -6.3713    1.5797 H   0  0  0  0  0  0  0  0  0  0  0  0
    6.6994   -6.6945    3.6775 H   0  0  0  0  0  0  0  0  0  0  0  0
    6.4953   -5.0474    4.1264 H   0  0  0  0  0  0  0  0  0  0  0  0
    4.6400   -7.6996    3.9247 H   0  0  0  0  0  0  0  0  0  0  0  0
    3.1312   -6.8403    3.6739 H   0  0  0  0  0  0  0  0  0  0  0  0
    4.2698   -6.2796    4.8869 H   0  0  0  0  0  0  0  0  0  0  0  0
  1  2  1  0
  1 25  1  0
  1 26  1  0
  1 27  1  0
  2  3  2  3
  2 28  1  0
  3 14  1  0
  3  4  1  0
  4  5  1  0
  4  7  1  0
  4 29  1  6
  5  6  1  0
  6 30  1  0
  6 31  1  0
  6 32  1  0
  7 18  1  0
  7  8  1  0
  7 33  1  1
  8  9  1  0
  8 11  1  0
  8 34  1  1
  9 10  1  0
 10 35  1  0
 10 36  1  0
 10 37  1  0
 11 23  1  0
 11 12  1  0
 11 38  1  1
 12 17  1  0
 12 13  1  1
 12 14  1  0
 14 15  1  0
 14 39  1  1
 15 16  1  0
 15 40  1  0
 15 41  1  0
 16 23  1  0
 16 17  1  0
 16 42  1  6
 17 18  1  0
 17 43  1  6
 18 21  1  0
 18 19  1  6
 19 20  1  0
 19 44  1  0
 19 45  1  0
 20 21  1  0
 21 22  1  0
 21 46  1  6
 22 23  1  0
 22 47  1  0
 22 48  1  0
 23 24  1  1
 24 49  1  0
 24 50  1  0
 24 51  1  0
M  CHG  2  13  -1  23   1
M  END
>  <i_m_ct_stereo_status>  (142) 
1

>  <s_m_source_file>  (142) 
/var/tmp/pbs.5076255.sched01/tmpmqqk35eb/391x3533zq.sdf

>  <i_m_source_file_index>  (142) 
18

>  <i_lp_mmshare_version>  (142) 
48012

>  <i_f3d_flags>  (142) 
0

>  <s_epik_input>  (142) 
W0NIM11PW0NAQEhdKFtDQEBIXTFbQ0BAXTIzNClcQyg9W0NIXVxbQ0gzXSlbQ0BASF01W0NAXTYoW09IXSlbQ0BIXShbQ0BASF0xT1tDSDNdKVtOQEArXShbQ0gzXSkoW0NIXShbQ0gyXTUpW0NIXTI2KVtDSDJdW0NAQEhdNE9bQ0gyXTM=

>  <s_epik_cmdline>  (142) 
J2VwaWtfcHl0aG9uJywgJy1waHQnLCAnMi4wJywgJy1waCcsICc3LjAnLCAnLXRuJywgJzgnLCAnLW1hJywgJzIwMCcsICctaW1hZScsICc8aW5maWxlLm1hZT4nLCAnLW9tYWUnLCAnPG91dGZpbGUubWFlPic=

>  <r_epik_Ionization_Penalty>  (142) 
2.48013

>  <r_epik_Ionization_Penalty_Charging>  (142) 
2.48013

>  <r_epik_Ionization_Penalty_Neutral>  (142) 
6.26612e-13

>  <r_epik_State_Penalty>  (142) 
2.64369

>  <r_epik_Charging_Adjusted_Penalty>  (142) 
5.12382

>  <i_epik_Tot_Q>  (142) 
0

>  <i_epik_Tot_abs_Q>  (142) 
2

>  <s_lp_Force_Field>  (142) 
OPLS3e

>  <r_lp_Energy>  (142) 
362.809

>  <b_lp_Chiralities_Consistent>  (142) 
1

>  <s_lp_Variant>  (142) 
44:0-2

>  <s_i_glide_gridfile>  (142) 
pfpi4k_grid

>  <i_i_glide_lignum>  (142) 
18

>  <i_i_glide_rotatable_bonds>  (142) 
2

>  <r_i_docking_score>  (142) 
-2.60354

>  <r_i_glide_ligand_efficiency>  (142) 
-0.108481

>  <r_i_glide_ligand_efficiency_sa>  (142) 
-0.312913

>  <r_i_glide_ligand_efficiency_ln>  (142) 
-0.623147

>  <r_i_glide_gscore>  (142) 
-2.60354

>  <r_i_glide_lipo>  (142) 
-0.907199

>  <r_i_glide_hbond>  (142) 
0

>  <r_i_glide_metal>  (142) 
-0

>  <r_i_glide_rewards>  (142) 
-1.13576

>  <r_i_glide_evdw>  (142) 
-15.064

>  <r_i_glide_ecoul>  (142) 
1.28412

>  <r_i_glide_erotb>  (142) 
0

>  <r_i_glide_esite>  (142) 
0

>  <r_i_glide_emodel>  (142) 
-19.1473

>  <r_i_glide_energy>  (142) 
-13.7799

>  <r_i_glide_einternal>  (142) 
2.07093

>  <r_i_glide_intrahb_reward>  (142) 
-0

>  <i_i_glide_confnum>  (142) 
2

>  <i_i_glide_posenum>  (142) 
2

>  <r_i_glide_eff_state_penalty>  (142) 
0

>  <ligand_id>  (142) 
44

>  <original_smiles>  (142) 
CC=C1C(OC)C2C(OC)C3C4(O)C1CC1C4C24COC4C[N+]13C

>  <smiles>  (142) 
[H]C(=C1C([H])(OC([H])([H])[H])C2([H])C([H])(OC([H])([H])[H])C3([H])C4([O-])C1([H])C([H])([H])C1([H])C4([H])C24C([H])([H])OC4([H])C([H])([H])[N+]13C([H])([H])[H])C([H])([H])[H]

$$$$
45:0:0
     RDKit          3D

 90 97  0  0  1  0  0  0  0  0999 V2000
    3.7398   -2.5792   10.6238 C   0  0  0  0  0  0  0  0  0  0  0  0
    4.4143   -1.9234    9.4254 C   0  0  0  0  0  0  0  0  0  0  0  0
    5.1963   -0.9806    9.5658 O   0  0  0  0  0  0  0  0  0  0  0  0
    4.0220   -2.4987    8.2570 O   0  0  0  0  0  0  0  0  0  0  0  0
    4.4907   -2.0066    7.0165 C   0  0  1  0  0  0  0  0  0  0  0  0
    5.8977   -1.8079    6.9987 O   0  0  0  0  0  0  0  0  0  0  0  0
    4.2180   -3.1922    6.0639 C   0  0  0  0  0  0  0  0  0  0  0  0
    4.6339   -4.3204    6.3522 O   0  0  0  0  0  0  0  0  0  0  0  0
    3.4953   -2.9169    4.7401 C   0  0  1  0  0  0  0  0  0  0  0  0
    4.5402   -2.1775    3.8673 C   0  0  0  0  0  0  0  0  0  0  0  0
    3.1586   -4.2622    4.0157 C   0  0  0  0  0  0  0  0  0  0  0  0
    3.8368   -4.8664    3.0261 C   0  0  0  0  0  0  0  0  0  0  0  0
    3.1340   -6.0809    2.4746 C   0  0  0  0  0  0  0  0  0  0  0  0
    1.6925   -5.8778    2.9839 C   0  0  1  0  0  0  0  0  0  0  0  0
    0.8449   -7.1373    3.0857 C   0  0  0  0  0  0  0  0  0  0  0  0
   -0.3989   -7.2806    3.7715 C   0  0  0  0  0  0  0  0  0  0  0  0
   -0.8248   -8.5639    3.5725 C   0  0  0  0  0  0  0  0  0  0  0  0
    0.0459   -9.2319    2.7810 O   0  0  0  0  0  0  0  0  0  0  0  0
    1.0467   -8.3563    2.4873 C   0  0  0  0  0  0  0  0  0  0  0  0
    1.8714   -5.0365    4.2921 C   0  0  1  0  0  0  0  0  0  0  0  0
    2.0713   -5.9560    5.5323 C   0  0  0  0  0  0  0  0  0  0  0  0
    0.7081   -4.0593    4.4815 C   0  0  0  0  0  0  0  0  0  0  0  0
    1.0322   -2.9793    5.4962 C   0  0  0  0  0  0  0  0  0  0  0  0
    2.1970   -2.0516    5.0398 C   0  0  1  0  0  0  0  0  0  0  0  0
    2.3390   -0.7621    5.9960 C   0  0  1  0  0  0  0  0  0  0  0  0
    1.4722   -0.9028    7.3031 C   0  0  0  0  0  0  0  0  0  0  0  0
    3.7469   -0.6890    6.6238 C   0  0  0  0  0  0  0  0  0  0  0  0
    4.2798    0.5126    6.9305 C   0  0  0  0  0  0  0  0  0  0  0  0
    3.6046    1.8566    6.8112 C   0  0  0  0  0  0  0  0  0  0  0  0
    2.2184    1.9010    6.1149 C   0  0  1  0  0  0  0  0  0  0  0  0
    2.0944    3.2920    5.3914 C   0  0  1  0  0  0  0  0  0  0  0  0
    3.0122    3.4031    4.1838 C   0  0  2  0  0  0  0  0  0  0  0  0
    3.0980    4.8553    3.6368 C   0  0  0  0  0  0  0  0  0  0  0  0
    1.7380    5.4843    3.2791 C   0  0  0  0  0  0  0  0  0  0  0  0
    0.6264    5.0897    4.2713 C   0  0  1  0  0  0  0  0  0  0  0  0
    0.6012    6.0529    5.4745 C   0  0  0  0  0  0  0  0  0  0  0  0
   -0.6235    5.2769    3.6402 O   0  0  0  0  0  0  0  0  0  0  0  0
    0.7624    3.5875    4.6647 C   0  0  1  0  0  0  0  0  0  0  0  0
    0.9180    2.8583    3.4349 O   0  0  0  0  0  0  0  0  0  0  0  0
    2.2662    2.4051    3.2968 C   0  0  2  0  0  0  0  0  0  0  0  0
    2.4466    0.9254    3.7983 C   0  0  1  0  0  0  0  0  0  0  0  0
    3.8316    0.6992    3.7157 O   0  0  0  0  0  0  0  0  0  0  0  0
    1.8821    0.6219    5.2461 C   0  0  1  0  0  0  0  0  0  0  0  0
    0.3297    0.5000    5.0714 C   0  0  0  0  0  0  0  0  0  0  0  0
    3.9749   -3.6432   10.6462 H   0  0  0  0  0  0  0  0  0  0  0  0
    2.6569   -2.4734   10.5455 H   0  0  0  0  0  0  0  0  0  0  0  0
    4.0680   -2.1263   11.5591 H   0  0  0  0  0  0  0  0  0  0  0  0
    6.0968   -1.1103    7.6117 H   0  0  0  0  0  0  0  0  0  0  0  0
    5.4043   -2.8060    3.6452 H   0  0  0  0  0  0  0  0  0  0  0  0
    4.9792   -1.3217    4.3691 H   0  0  0  0  0  0  0  0  0  0  0  0
    4.1161   -1.8475    2.9191 H   0  0  0  0  0  0  0  0  0  0  0  0
    4.7760   -4.5509    2.6030 H   0  0  0  0  0  0  0  0  0  0  0  0
    3.1943   -6.1545    1.3866 H   0  0  0  0  0  0  0  0  0  0  0  0
    3.5956   -6.9717    2.9047 H   0  0  0  0  0  0  0  0  0  0  0  0
    1.2060   -5.2548    2.2339 H   0  0  0  0  0  0  0  0  0  0  0  0
   -0.9325   -6.5571    4.3651 H   0  0  0  0  0  0  0  0  0  0  0  0
   -1.6887   -9.1084    3.9136 H   0  0  0  0  0  0  0  0  0  0  0  0
    1.8080   -8.7647    1.8395 H   0  0  0  0  0  0  0  0  0  0  0  0
    1.2011   -6.5773    5.7471 H   0  0  0  0  0  0  0  0  0  0  0  0
    2.2789   -5.3878    6.4409 H   0  0  0  0  0  0  0  0  0  0  0  0
    2.9226   -6.6259    5.3797 H   0  0  0  0  0  0  0  0  0  0  0  0
    0.4559   -3.5829    3.5352 H   0  0  0  0  0  0  0  0  0  0  0  0
   -0.1769   -4.5893    4.8239 H   0  0  0  0  0  0  0  0  0  0  0  0
    0.1032   -2.4383    5.6402 H   0  0  0  0  0  0  0  0  0  0  0  0
    1.2473   -3.4474    6.4535 H   0  0  0  0  0  0  0  0  0  0  0  0
    1.8845   -1.6914    4.0618 H   0  0  0  0  0  0  0  0  0  0  0  0
    0.3958   -0.9238    7.1503 H   0  0  0  0  0  0  0  0  0  0  0  0
    1.6619   -0.0790    7.9924 H   0  0  0  0  0  0  0  0  0  0  0  0
    1.7029   -1.8057    7.8638 H   0  0  0  0  0  0  0  0  0  0  0  0
    5.2466    0.5641    7.4100 H   0  0  0  0  0  0  0  0  0  0  0  0
    3.4862    2.2368    7.8253 H   0  0  0  0  0  0  0  0  0  0  0  0
    4.3358    2.5115    6.3491 H   0  0  0  0  0  0  0  0  0  0  0  0
    1.4894    1.9272    6.9266 H   0  0  0  0  0  0  0  0  0  0  0  0
    2.3219    4.0654    6.1229 H   0  0  0  0  0  0  0  0  0  0  0  0
    4.0308    3.0782    4.3759 H   0  0  0  0  0  0  0  0  0  0  0  0
    3.5932    5.4726    4.3884 H   0  0  0  0  0  0  0  0  0  0  0  0
    3.7375    4.8735    2.7530 H   0  0  0  0  0  0  0  0  0  0  0  0
    1.8227    6.5706    3.1976 H   0  0  0  0  0  0  0  0  0  0  0  0
    1.4710    5.1492    2.2765 H   0  0  0  0  0  0  0  0  0  0  0  0
    1.5677    6.1214    5.9747 H   0  0  0  0  0  0  0  0  0  0  0  0
   -0.1420    5.7540    6.2128 H   0  0  0  0  0  0  0  0  0  0  0  0
    0.3561    7.0640    5.1479 H   0  0  0  0  0  0  0  0  0  0  0  0
   -0.5257    4.9611    2.7424 H   0  0  0  0  0  0  0  0  0  0  0  0
   -0.1074    3.2585    5.2346 H   0  0  0  0  0  0  0  0  0  0  0  0
    2.5780    2.4937    2.2548 H   0  0  0  0  0  0  0  0  0  0  0  0
    1.9727    0.2697    3.0693 H   0  0  0  0  0  0  0  0  0  0  0  0
    4.1504    1.1249    2.9319 H   0  0  0  0  0  0  0  0  0  0  0  0
   -0.0962    1.0508    4.2468 H   0  0  0  0  0  0  0  0  0  0  0  0
   -0.2137    0.8119    5.9611 H   0  0  0  0  0  0  0  0  0  0  0  0
    0.0208   -0.5117    4.8368 H   0  0  0  0  0  0  0  0  0  0  0  0
  1  2  1  0
  1 45  1  0
  1 46  1  0
  1 47  1  0
  2  3  2  0
  2  4  1  0
  5  4  1  1
  5 27  1  0
  5  6  1  0
  5  7  1  0
  6 48  1  0
  7  8  2  0
  7  9  1  0
  9 24  1  0
  9 10  1  6
  9 11  1  0
 10 49  1  0
 10 50  1  0
 10 51  1  0
 11 20  1  0
 11 12  2  0
 12 13  1  0
 12 52  1  0
 13 14  1  0
 13 53  1  0
 13 54  1  0
 14 15  1  0
 14 20  1  0
 14 55  1  6
 15 19  2  0
 15 16  1  0
 16 17  2  0
 16 56  1  0
 17 18  1  0
 17 57  1  0
 18 19  1  0
 19 58  1  0
 20 21  1  1
 20 22  1  0
 21 59  1  0
 21 60  1  0
 21 61  1  0
 22 23  1  0
 22 62  1  0
 22 63  1  0
 23 24  1  0
 23 64  1  0
 23 65  1  0
 24 25  1  0
 24 66  1  6
 25 43  1  0
 25 26  1  1
 25 27  1  0
 26 67  1  0
 26 68  1  0
 26 69  1  0
 27 28  2  0
 28 29  1  0
 28 70  1  0
 29 30  1  0
 29 71  1  0
 29 72  1  0
 30 43  1  0
 30 31  1  0
 30 73  1  1
 31 38  1  0
 31 32  1  0
 31 74  1  1
 32 40  1  0
 32 33  1  0
 32 75  1  1
 33 34  1  0
 33 76  1  0
 33 77  1  0
 34 35  1  0
 34 78  1  0
 34 79  1  0
 35 36  1  0
 35 37  1  6
 35 38  1  0
 36 80  1  0
 36 81  1  0
 36 82  1  0
 37 83  1  0
 38 39  1  0
 38 84  1  1
 39 40  1  0
 40 41  1  0
 40 85  1  6
 41 42  1  0
 41 43  1  0
 41 86  1  6
 42 87  1  0
 43 44  1  6
 44 88  1  0
 44 89  1  0
 44 90  1  0
M  END
>  <i_m_ct_stereo_status>  (143) 
1

>  <s_m_source_file>  (143) 
/var/tmp/pbs.5076255.sched01/tmpmqqk35eb/391x3533zq.sdf

>  <i_m_source_file_index>  (143) 
19

>  <i_lp_mmshare_version>  (143) 
48012

>  <i_f3d_flags>  (143) 
0

>  <s_epik_input>  (143) 
W0NIMl0xW0NIMl1bQ0BAXShbQ0gzXSkoW09IXSlbQ0BIXTJPW0NASF0oW0NAQEhdKFtPSF0pW0NAQF0zNFtDSDNdKVtDQEBIXTFbQ0BASF0yW0NAQEhdNFtDSDJdW0NIXT1DKFtDQF0oW09IXSkoQzU9TylPQyg9TylbQ0gzXSlbQ0BdMyhbQ0gzXSlbQ0BASF02W0NIMl1bQ0gyXVtDQF0oW0NIM10pKEM9N1tDQF01NltDSDNdKVtDQEBIXShbQ0gyXVtDSF03KWM4W2NIXVtjSF1vW2NIXTg=

>  <s_epik_cmdline>  (143) 
J2VwaWtfcHl0aG9uJywgJy1waHQnLCAnMi4wJywgJy1waCcsICc3LjAnLCAnLXRuJywgJzgnLCAnLW1hJywgJzIwMCcsICctaW1hZScsICc8aW5maWxlLm1hZT4nLCAnLW9tYWUnLCAnPG91dGZpbGUubWFlPic=

>  <r_lp_tautomer_probability>  (143) 
1

>  <r_epik_Ionization_Penalty>  (143) 
9.37585e-07

>  <r_epik_Ionization_Penalty_Charging>  (143) 
0

>  <r_epik_Ionization_Penalty_Neutral>  (143) 
9.37585e-07

>  <r_epik_State_Penalty>  (143) 
-0

>  <r_epik_Charging_Adjusted_Penalty>  (143) 
0

>  <i_epik_Tot_Q>  (143) 
0

>  <i_epik_Tot_abs_Q>  (143) 
0

>  <s_epik_Chemistry_Notes>  (143) 
This compound has an ester and may undergo hydrolysis at high or low pH.

>  <s_lp_Force_Field>  (143) 
OPLS3e

>  <r_lp_Energy>  (143) 
106.242

>  <b_lp_Chiralities_Consistent>  (143) 
1

>  <s_lp_Variant>  (143) 
45:0-1

>  <s_i_glide_gridfile>  (143) 
pfpi4k_grid

>  <i_i_glide_lignum>  (143) 
19

>  <i_i_glide_rotatable_bonds>  (143) 
6

>  <r_i_docking_score>  (143) 
-3.00541

>  <r_i_glide_ligand_efficiency>  (143) 
-0.0683047

>  <r_i_glide_ligand_efficiency_sa>  (143) 
-0.24114

>  <r_i_glide_ligand_efficiency_ln>  (143) 
-0.628196

>  <r_i_glide_gscore>  (143) 
-3.00541

>  <r_i_glide_lipo>  (143) 
-0.111205

>  <r_i_glide_hbond>  (143) 
-0.16649

>  <r_i_glide_metal>  (143) 
-0

>  <r_i_glide_rewards>  (143) 
-0.500788

>  <r_i_glide_evdw>  (143) 
-30.1826

>  <r_i_glide_ecoul>  (143) 
-5.54711

>  <r_i_glide_erotb>  (143) 
0.114268

>  <r_i_glide_esite>  (143) 
0

>  <r_i_glide_emodel>  (143) 
-47.6756

>  <r_i_glide_energy>  (143) 
-35.7297

>  <r_i_glide_einternal>  (143) 
1.2247

>  <r_i_glide_intrahb_reward>  (143) 
-0.5

>  <i_i_glide_confnum>  (143) 
2

>  <i_i_glide_posenum>  (143) 
10

>  <r_i_glide_eff_state_penalty>  (143) 
0

>  <ligand_id>  (143) 
45

>  <original_smiles>  (143) 
CC(=O)OC1(O)C(=O)C2(C)C3=CCC(c4ccoc4)C3(C)CCC2C2(C)C1=CCC1C3C4CCC(C)(O)C3OC4C(O)C12C

>  <smiles>  (143) 
[H]OC1(OC(=O)C([H])([H])[H])C(=O)C2(C([H])([H])[H])C3=C([H])C([H])([H])C([H])(c4c([H])oc([H])c4[H])C3(C([H])([H])[H])C([H])([H])C([H])([H])C2([H])C2(C([H])([H])[H])C1=C([H])C([H])([H])C1([H])C3([H])C4([H])OC([H])(C([H])(O[H])C12C([H])([H])[H])C3([H])C([H])([H])C([H])([H])C4(O[H])C([H])([H])[H]

$$$$
45:0:1
     RDKit          3D

 90 97  0  0  1  0  0  0  0  0999 V2000
    3.6749   -2.7509   10.8508 C   0  0  0  0  0  0  0  0  0  0  0  0
    2.4958   -3.4212   10.1555 C   0  0  0  0  0  0  0  0  0  0  0  0
    2.0145   -4.4750   10.5743 O   0  0  0  0  0  0  0  0  0  0  0  0
    2.1026   -2.7169    9.0603 O   0  0  0  0  0  0  0  0  0  0  0  0
    1.0564   -3.1912    8.2382 C   0  0  1  0  0  0  0  0  0  0  0  0
   -0.0907   -3.5913    8.9779 O   0  0  0  0  0  0  0  0  0  0  0  0
    0.6289   -1.9187    7.4766 C   0  0  0  0  0  0  0  0  0  0  0  0
    0.2971   -0.9059    8.1038 O   0  0  0  0  0  0  0  0  0  0  0  0
    0.4888   -1.9925    5.9546 C   0  0  1  0  0  0  0  0  0  0  0  0
   -0.7954   -2.8167    5.7378 C   0  0  0  0  0  0  0  0  0  0  0  0
    0.2217   -0.5728    5.3584 C   0  0  0  0  0  0  0  0  0  0  0  0
   -0.9547   -0.0208    5.0123 C   0  0  0  0  0  0  0  0  0  0  0  0
   -0.8126    1.3185    4.3390 C   0  0  0  0  0  0  0  0  0  0  0  0
    0.6671    1.3015    3.9214 C   0  0  1  0  0  0  0  0  0  0  0  0
    1.3070    2.6568    3.7126 C   0  0  0  0  0  0  0  0  0  0  0  0
    2.4419    2.9062    2.8900 C   0  0  0  0  0  0  0  0  0  0  0  0
    2.6847    4.2515    2.9388 C   0  0  0  0  0  0  0  0  0  0  0  0
    1.7814    4.8649    3.7428 O   0  0  0  0  0  0  0  0  0  0  0  0
    0.9504    3.8878    4.1958 C   0  0  0  0  0  0  0  0  0  0  0  0
    1.3534    0.3660    4.9673 C   0  0  1  0  0  0  0  0  0  0  0  0
    1.8316    1.1669    6.2091 C   0  0  0  0  0  0  0  0  0  0  0  0
    2.5001   -0.4186    4.3280 C   0  0  0  0  0  0  0  0  0  0  0  0
    2.9170   -1.6088    5.1859 C   0  0  0  0  0  0  0  0  0  0  0  0
    1.7871   -2.6730    5.3443 C   0  0  1  0  0  0  0  0  0  0  0  0
    2.3272   -4.0342    6.0238 C   0  0  1  0  0  0  0  0  0  0  0  0
    3.7697   -3.8518    6.6251 C   0  0  0  0  0  0  0  0  0  0  0  0
    1.5482   -4.3585    7.3188 C   0  0  0  0  0  0  0  0  0  0  0  0
    1.3884   -5.6431    7.7007 C   0  0  0  0  0  0  0  0  0  0  0  0
    1.9830   -6.8624    7.0363 C   0  0  0  0  0  0  0  0  0  0  0  0
    2.7188   -6.6540    5.6837 C   0  0  1  0  0  0  0  0  0  0  0  0
    2.5173   -7.9613    4.8278 C   0  0  1  0  0  0  0  0  0  0  0  0
    1.0824   -8.1248    4.3498 C   0  0  2  0  0  0  0  0  0  0  0  0
    0.8154   -9.5310    3.7515 C   0  0  0  0  0  0  0  0  0  0  0  0
    1.7691   -9.9246    2.6055 C   0  0  0  0  0  0  0  0  0  0  0  0
    3.2180   -9.4523    2.8364 C   0  0  1  0  0  0  0  0  0  0  0  0
    4.0106  -10.4726    3.6782 C   0  0  0  0  0  0  0  0  0  0  0  0
    3.9002   -9.4505    1.5898 O   0  0  0  0  0  0  0  0  0  0  0  0
    3.2055   -8.0115    3.4404 C   0  0  1  0  0  0  0  0  0  0  0  0
    2.3063   -7.2268    2.6338 O   0  0  0  0  0  0  0  0  0  0  0  0
    1.0948   -6.9722    3.3472 C   0  0  2  0  0  0  0  0  0  0  0  0
    1.1163   -5.5751    4.0668 C   0  0  1  0  0  0  0  0  0  0  0  0
   -0.0750   -5.5480    4.8124 O   0  0  0  0  0  0  0  0  0  0  0  0
    2.3850   -5.2860    4.9666 C   0  0  1  0  0  0  0  0  0  0  0  0
    3.5353   -4.9217    3.9691 C   0  0  0  0  0  0  0  0  0  0  0  0
    3.4050   -1.7362   11.1420 H   0  0  0  0  0  0  0  0  0  0  0  0
    4.5247   -2.6923   10.1702 H   0  0  0  0  0  0  0  0  0  0  0  0
    3.9772   -3.3035   11.7400 H   0  0  0  0  0  0  0  0  0  0  0  0
    0.1692   -4.3180    9.5318 H   0  0  0  0  0  0  0  0  0  0  0  0
   -1.6850   -2.3057    6.1063 H   0  0  0  0  0  0  0  0  0  0  0  0
   -0.8077   -3.7539    6.2861 H   0  0  0  0  0  0  0  0  0  0  0  0
   -0.9524   -3.0113    4.6786 H   0  0  0  0  0  0  0  0  0  0  0  0
   -1.9376   -0.4440    5.1429 H   0  0  0  0  0  0  0  0  0  0  0  0
   -1.4836    1.4523    3.4898 H   0  0  0  0  0  0  0  0  0  0  0  0
   -1.0244    2.0946    5.0757 H   0  0  0  0  0  0  0  0  0  0  0  0
    0.6945    0.8122    2.9464 H   0  0  0  0  0  0  0  0  0  0  0  0
    3.0107    2.1922    2.3191 H   0  0  0  0  0  0  0  0  0  0  0  0
    3.4245    4.8857    2.4754 H   0  0  0  0  0  0  0  0  0  0  0  0
    0.1618    4.2450    4.8369 H   0  0  0  0  0  0  0  0  0  0  0  0
    2.6033    1.8952    5.9533 H   0  0  0  0  0  0  0  0  0  0  0  0
    2.2404    0.5210    6.9878 H   0  0  0  0  0  0  0  0  0  0  0  0
    0.9973    1.7080    6.6608 H   0  0  0  0  0  0  0  0  0  0  0  0
    2.2113   -0.7841    3.3430 H   0  0  0  0  0  0  0  0  0  0  0  0
    3.3493    0.2474    4.1769 H   0  0  0  0  0  0  0  0  0  0  0  0
    3.8020   -2.0168    4.7070 H   0  0  0  0  0  0  0  0  0  0  0  0
    3.2526   -1.2463    6.1562 H   0  0  0  0  0  0  0  0  0  0  0  0
    1.5080   -2.9174    4.3220 H   0  0  0  0  0  0  0  0  0  0  0  0
    4.5567   -3.6606    5.9009 H   0  0  0  0  0  0  0  0  0  0  0  0
    4.0796   -4.7393    7.1788 H   0  0  0  0  0  0  0  0  0  0  0  0
    3.8263   -3.0323    7.3378 H   0  0  0  0  0  0  0  0  0  0  0  0
    0.8835   -5.8719    8.6280 H   0  0  0  0  0  0  0  0  0  0  0  0
    2.6923   -7.2898    7.7440 H   0  0  0  0  0  0  0  0  0  0  0  0
    1.1789   -7.5919    6.9776 H   0  0  0  0  0  0  0  0  0  0  0  0
    3.7787   -6.6259    5.9336 H   0  0  0  0  0  0  0  0  0  0  0  0
    2.8187   -8.8063    5.4431 H   0  0  0  0  0  0  0  0  0  0  0  0
    0.3364   -7.9733    5.1239 H   0  0  0  0  0  0  0  0  0  0  0  0
    0.9090  -10.2669    4.5507 H   0  0  0  0  0  0  0  0  0  0  0  0
   -0.2146   -9.5988    3.3991 H   0  0  0  0  0  0  0  0  0  0  0  0
    1.7380  -11.0074    2.4798 H   0  0  0  0  0  0  0  0  0  0  0  0
    1.3979   -9.4917    1.6752 H   0  0  0  0  0  0  0  0  0  0  0  0
    3.5211  -10.7176    4.6216 H   0  0  0  0  0  0  0  0  0  0  0  0
    5.0139  -10.1103    3.9019 H   0  0  0  0  0  0  0  0  0  0  0  0
    4.1207  -11.4161    3.1399 H   0  0  0  0  0  0  0  0  0  0  0  0
    3.9455  -10.3446    1.2629 H   0  0  0  0  0  0  0  0  0  0  0  0
    4.2125   -7.5939    3.4618 H   0  0  0  0  0  0  0  0  0  0  0  0
    0.2443   -7.0347    2.6675 H   0  0  0  0  0  0  0  0  0  0  0  0
    1.0319   -4.8027    3.3050 H   0  0  0  0  0  0  0  0  0  0  0  0
   -0.0965   -4.7350    5.2940 H   0  0  0  0  0  0  0  0  0  0  0  0
    3.4554   -5.3522    2.9825 H   0  0  0  0  0  0  0  0  0  0  0  0
    4.5178   -5.2030    4.3468 H   0  0  0  0  0  0  0  0  0  0  0  0
    3.5642   -3.8617    3.7435 H   0  0  0  0  0  0  0  0  0  0  0  0
  1  2  1  0
  1 45  1  0
  1 46  1  0
  1 47  1  0
  2  3  2  0
  2  4  1  0
  5  4  1  1
  5 27  1  0
  5  6  1  0
  5  7  1  0
  6 48  1  0
  7  8  2  0
  7  9  1  0
  9 24  1  0
  9 10  1  1
  9 11  1  0
 10 49  1  0
 10 50  1  0
 10 51  1  0
 11 20  1  0
 11 12  2  0
 12 13  1  0
 12 52  1  0
 13 14  1  0
 13 53  1  0
 13 54  1  0
 14 15  1  0
 14 20  1  0
 14 55  1  6
 15 19  2  0
 15 16  1  0
 16 17  2  0
 16 56  1  0
 17 18  1  0
 17 57  1  0
 18 19  1  0
 19 58  1  0
 20 21  1  1
 20 22  1  0
 21 59  1  0
 21 60  1  0
 21 61  1  0
 22 23  1  0
 22 62  1  0
 22 63  1  0
 23 24  1  0
 23 64  1  0
 23 65  1  0
 24 25  1  0
 24 66  1  6
 25 43  1  0
 25 26  1  1
 25 27  1  0
 26 67  1  0
 26 68  1  0
 26 69  1  0
 27 28  2  0
 28 29  1  0
 28 70  1  0
 29 30  1  0
 29 71  1  0
 29 72  1  0
 30 43  1  0
 30 31  1  0
 30 73  1  1
 31 38  1  0
 31 32  1  0
 31 74  1  1
 32 40  1  0
 32 33  1  0
 32 75  1  1
 33 34  1  0
 33 76  1  0
 33 77  1  0
 34 35  1  0
 34 78  1  0
 34 79  1  0
 35 36  1  0
 35 37  1  6
 35 38  1  0
 36 80  1  0
 36 81  1  0
 36 82  1  0
 37 83  1  0
 38 39  1  0
 38 84  1  1
 39 40  1  0
 40 41  1  0
 40 85  1  6
 41 42  1  0
 41 43  1  0
 41 86  1  6
 42 87  1  0
 43 44  1  6
 44 88  1  0
 44 89  1  0
 44 90  1  0
M  END
>  <i_m_ct_stereo_status>  (144) 
1

>  <s_m_source_file>  (144) 
/var/tmp/pbs.5076255.sched01/tmpmqqk35eb/391x3533zq.sdf

>  <i_m_source_file_index>  (144) 
19

>  <i_lp_mmshare_version>  (144) 
48012

>  <i_f3d_flags>  (144) 
0

>  <s_epik_input>  (144) 
W0NIMl0xW0NIMl1bQ0BAXShbQ0gzXSkoW09IXSlbQ0BIXTJPW0NASF0oW0NAQEhdKFtPSF0pW0NAQF0zNFtDSDNdKVtDQEBIXTFbQ0BASF0yW0NAQEhdNFtDSDJdW0NIXT1DKFtDQF0oW09IXSkoQzU9TylPQyg9TylbQ0gzXSlbQ0BdMyhbQ0gzXSlbQ0BASF02W0NIMl1bQ0gyXVtDQF0oW0NIM10pKEM9N1tDQF01NltDSDNdKVtDQEBIXShbQ0gyXVtDSF03KWM4W2NIXVtjSF1vW2NIXTg=

>  <s_epik_cmdline>  (144) 
J2VwaWtfcHl0aG9uJywgJy1waHQnLCAnMi4wJywgJy1waCcsICc3LjAnLCAnLXRuJywgJzgnLCAnLW1hJywgJzIwMCcsICctaW1hZScsICc8aW5maWxlLm1hZT4nLCAnLW9tYWUnLCAnPG91dGZpbGUubWFlPic=

>  <r_lp_tautomer_probability>  (144) 
1

>  <r_epik_Ionization_Penalty>  (144) 
9.37585e-07

>  <r_epik_Ionization_Penalty_Charging>  (144) 
0

>  <r_epik_Ionization_Penalty_Neutral>  (144) 
9.37585e-07

>  <r_epik_State_Penalty>  (144) 
-0

>  <r_epik_Charging_Adjusted_Penalty>  (144) 
0

>  <i_epik_Tot_Q>  (144) 
0

>  <i_epik_Tot_abs_Q>  (144) 
0

>  <s_epik_Chemistry_Notes>  (144) 
This compound has an ester and may undergo hydrolysis at high or low pH.

>  <s_lp_Force_Field>  (144) 
OPLS3e

>  <r_lp_Energy>  (144) 
106.242

>  <b_lp_Chiralities_Consistent>  (144) 
1

>  <s_lp_Variant>  (144) 
45:0-1

>  <s_i_glide_gridfile>  (144) 
pfpi4k_grid

>  <i_i_glide_lignum>  (144) 
19

>  <i_i_glide_rotatable_bonds>  (144) 
6

>  <r_i_docking_score>  (144) 
-2.74956

>  <r_i_glide_ligand_efficiency>  (144) 
-0.06249

>  <r_i_glide_ligand_efficiency_sa>  (144) 
-0.220611

>  <r_i_glide_ligand_efficiency_ln>  (144) 
-0.574718

>  <r_i_glide_gscore>  (144) 
-2.74956

>  <r_i_glide_lipo>  (144) 
-0.087755

>  <r_i_glide_hbond>  (144) 
0

>  <r_i_glide_metal>  (144) 
-0

>  <r_i_glide_rewards>  (144) 
-0.5

>  <r_i_glide_evdw>  (144) 
-30.244

>  <r_i_glide_ecoul>  (144) 
-4.8654

>  <r_i_glide_erotb>  (144) 
0.114268

>  <r_i_glide_esite>  (144) 
-0.034063

>  <r_i_glide_emodel>  (144) 
-46.9616

>  <r_i_glide_energy>  (144) 
-35.1094

>  <r_i_glide_einternal>  (144) 
0.441007

>  <r_i_glide_intrahb_reward>  (144) 
-0.5

>  <i_i_glide_confnum>  (144) 
1

>  <i_i_glide_posenum>  (144) 
27

>  <r_i_glide_eff_state_penalty>  (144) 
0

>  <ligand_id>  (144) 
45

>  <original_smiles>  (144) 
CC(=O)OC1(O)C(=O)C2(C)C3=CCC(c4ccoc4)C3(C)CCC2C2(C)C1=CCC1C3C4CCC(C)(O)C3OC4C(O)C12C

>  <smiles>  (144) 
[H]OC1(OC(=O)C([H])([H])[H])C(=O)C2(C([H])([H])[H])C3=C([H])C([H])([H])C([H])(c4c([H])oc([H])c4[H])C3(C([H])([H])[H])C([H])([H])C([H])([H])C2([H])C2(C([H])([H])[H])C1=C([H])C([H])([H])C1([H])C3([H])C4([H])OC([H])(C([H])(O[H])C12C([H])([H])[H])C3([H])C([H])([H])C([H])([H])C4(O[H])C([H])([H])[H]

$$$$
45:0:2
     RDKit          3D

 90 97  0  0  1  0  0  0  0  0999 V2000
    6.6787   -2.7042    7.6131 C   0  0  0  0  0  0  0  0  0  0  0  0
    6.0278   -1.9306    6.4790 C   0  0  0  0  0  0  0  0  0  0  0  0
    6.2030   -0.7206    6.3507 O   0  0  0  0  0  0  0  0  0  0  0  0
    5.2994   -2.7518    5.6669 O   0  0  0  0  0  0  0  0  0  0  0  0
    4.5758   -2.2375    4.5632 C   0  0  1  0  0  0  0  0  0  0  0  0
    5.4107   -1.5533    3.6417 O   0  0  0  0  0  0  0  0  0  0  0  0
    4.1118   -3.5161    3.8324 C   0  0  0  0  0  0  0  0  0  0  0  0
    4.9289   -4.3958    3.5476 O   0  0  0  0  0  0  0  0  0  0  0  0
    2.6392   -3.6304    3.4163 C   0  0  1  0  0  0  0  0  0  0  0  0
    2.4962   -2.6525    2.2253 C   0  0  0  0  0  0  0  0  0  0  0  0
    2.3369   -5.0665    2.8756 C   0  0  0  0  0  0  0  0  0  0  0  0
    2.2750   -5.4769    1.5975 C   0  0  0  0  0  0  0  0  0  0  0  0
    1.7993   -6.8999    1.4462 C   0  0  0  0  0  0  0  0  0  0  0  0
    1.1543   -7.1733    2.8178 C   0  0  1  0  0  0  0  0  0  0  0  0
    1.0803   -8.6323    3.2341 C   0  0  0  0  0  0  0  0  0  0  0  0
    0.5780   -9.1292    4.4739 C   0  0  0  0  0  0  0  0  0  0  0  0
    0.6404  -10.4889    4.4153 C   0  0  0  0  0  0  0  0  0  0  0  0
    1.1097  -10.8870    3.2068 O   0  0  0  0  0  0  0  0  0  0  0  0
    1.3704   -9.7521    2.5037 C   0  0  0  0  0  0  0  0  0  0  0  0
    1.9166   -6.2124    3.7891 C   0  0  1  0  0  0  0  0  0  0  0  0
    3.1826   -6.9040    4.3731 C   0  0  0  0  0  0  0  0  0  0  0  0
    0.9915   -5.6973    4.8923 C   0  0  0  0  0  0  0  0  0  0  0  0
    1.5739   -4.4851    5.5992 C   0  0  0  0  0  0  0  0  0  0  0  0
    1.7296   -3.2504    4.6609 C   0  0  1  0  0  0  0  0  0  0  0  0
    2.0881   -1.9151    5.4896 C   0  0  1  0  0  0  0  0  0  0  0  0
    2.4746   -2.2381    6.9821 C   0  0  0  0  0  0  0  0  0  0  0  0
    3.4145   -1.3015    5.0060 C   0  0  0  0  0  0  0  0  0  0  0  0
    3.5967    0.0321    5.0704 C   0  0  0  0  0  0  0  0  0  0  0  0
    2.6725    1.0424    5.6967 C   0  0  0  0  0  0  0  0  0  0  0  0
    1.2773    0.5392    6.1486 C   0  0  1  0  0  0  0  0  0  0  0  0
    0.2758    1.7337    5.9659 C   0  0  1  0  0  0  0  0  0  0  0  0
    0.0059    2.0462    4.5018 C   0  0  2  0  0  0  0  0  0  0  0  0
   -0.7591    3.3824    4.3120 C   0  0  0  0  0  0  0  0  0  0  0  0
   -2.0920    3.4518    5.0830 C   0  0  0  0  0  0  0  0  0  0  0  0
   -1.9891    2.8174    6.4870 C   0  0  1  0  0  0  0  0  0  0  0  0
   -1.4613    3.8029    7.5420 C   0  0  0  0  0  0  0  0  0  0  0  0
   -3.2883    2.5460    6.9590 O   0  0  0  0  0  0  0  0  0  0  0  0
   -1.1838    1.4863    6.4028 C   0  0  1  0  0  0  0  0  0  0  0  0
   -1.7205    0.7520    5.2860 O   0  0  0  0  0  0  0  0  0  0  0  0
   -0.7970    0.7841    4.1907 C   0  0  2  0  0  0  0  0  0  0  0  0
    0.1250   -0.4894    4.1526 C   0  0  1  0  0  0  0  0  0  0  0  0
    1.0488   -0.2372    3.1201 O   0  0  0  0  0  0  0  0  0  0  0  0
    0.8527   -0.8434    5.5150 C   0  0  1  0  0  0  0  0  0  0  0  0
   -0.2378   -1.5130    6.4119 C   0  0  0  0  0  0  0  0  0  0  0  0
    7.3375   -3.4724    7.2046 H   0  0  0  0  0  0  0  0  0  0  0  0
    5.9141   -3.1880    8.2227 H   0  0  0  0  0  0  0  0  0  0  0  0
    7.2667   -2.0342    8.2468 H   0  0  0  0  0  0  0  0  0  0  0  0
    5.7105   -0.7549    4.0516 H   0  0  0  0  0  0  0  0  0  0  0  0
    3.0916   -2.9600    1.3642 H   0  0  0  0  0  0  0  0  0  0  0  0
    2.8734   -1.6604    2.4450 H   0  0  0  0  0  0  0  0  0  0  0  0
    1.4603   -2.5607    1.8983 H   0  0  0  0  0  0  0  0  0  0  0  0
    2.5085   -4.8943    0.7193 H   0  0  0  0  0  0  0  0  0  0  0  0
    1.1046   -7.0461    0.6155 H   0  0  0  0  0  0  0  0  0  0  0  0
    2.6745   -7.5314    1.2777 H   0  0  0  0  0  0  0  0  0  0  0  0
    0.1194   -6.8380    2.7353 H   0  0  0  0  0  0  0  0  0  0  0  0
    0.2013   -8.5789    5.3206 H   0  0  0  0  0  0  0  0  0  0  0  0
    0.3676  -11.2680    5.1126 H   0  0  0  0  0  0  0  0  0  0  0  0
    1.7264   -9.9280    1.5024 H   0  0  0  0  0  0  0  0  0  0  0  0
    2.9407   -7.7709    4.9912 H   0  0  0  0  0  0  0  0  0  0  0  0
    3.7785   -6.2296    4.9932 H   0  0  0  0  0  0  0  0  0  0  0  0
    3.8412   -7.2465    3.5686 H   0  0  0  0  0  0  0  0  0  0  0  0
    0.0191   -5.4334    4.4811 H   0  0  0  0  0  0  0  0  0  0  0  0
    0.8310   -6.4776    5.6308 H   0  0  0  0  0  0  0  0  0  0  0  0
    0.9063   -4.2922    6.4327 H   0  0  0  0  0  0  0  0  0  0  0  0
    2.5250   -4.7668    6.0483 H   0  0  0  0  0  0  0  0  0  0  0  0
    0.7372   -3.1090    4.2337 H   0  0  0  0  0  0  0  0  0  0  0  0
    1.6787   -2.6461    7.6027 H   0  0  0  0  0  0  0  0  0  0  0  0
    2.8305   -1.3434    7.4954 H   0  0  0  0  0  0  0  0  0  0  0  0
    3.2899   -2.9541    7.0552 H   0  0  0  0  0  0  0  0  0  0  0  0
    4.5344    0.4671    4.7618 H   0  0  0  0  0  0  0  0  0  0  0  0
    3.1962    1.4335    6.5692 H   0  0  0  0  0  0  0  0  0  0  0  0
    2.6341    1.8757    4.9976 H   0  0  0  0  0  0  0  0  0  0  0  0
    1.3670    0.3823    7.2225 H   0  0  0  0  0  0  0  0  0  0  0  0
    0.6969    2.5961    6.4787 H   0  0  0  0  0  0  0  0  0  0  0  0
    0.9029    2.1131    3.8931 H   0  0  0  0  0  0  0  0  0  0  0  0
   -0.1105    4.1936    4.6464 H   0  0  0  0  0  0  0  0  0  0  0  0
   -0.9384    3.5571    3.2497 H   0  0  0  0  0  0  0  0  0  0  0  0
   -2.4111    4.4890    5.1505 H   0  0  0  0  0  0  0  0  0  0  0  0
   -2.8675    2.9507    4.4971 H   0  0  0  0  0  0  0  0  0  0  0  0
   -0.5090    4.2513    7.2678 H   0  0  0  0  0  0  0  0  0  0  0  0
   -1.3508    3.3192    8.5116 H   0  0  0  0  0  0  0  0  0  0  0  0
   -2.1659    4.6231    7.6800 H   0  0  0  0  0  0  0  0  0  0  0  0
   -3.7606    2.1224    6.2612 H   0  0  0  0  0  0  0  0  0  0  0  0
   -1.2548    0.9331    7.3404 H   0  0  0  0  0  0  0  0  0  0  0  0
   -1.3386    0.8897    3.2487 H   0  0  0  0  0  0  0  0  0  0  0  0
   -0.4857   -1.3355    3.8394 H   0  0  0  0  0  0  0  0  0  0  0  0
    0.5827   -0.0164    2.3244 H   0  0  0  0  0  0  0  0  0  0  0  0
   -1.2543   -1.2159    6.2044 H   0  0  0  0  0  0  0  0  0  0  0  0
   -0.0622   -1.3357    7.4736 H   0  0  0  0  0  0  0  0  0  0  0  0
   -0.2869   -2.5861    6.2626 H   0  0  0  0  0  0  0  0  0  0  0  0
  1  2  1  0
  1 45  1  0
  1 46  1  0
  1 47  1  0
  2  3  2  0
  2  4  1  0
  5  4  1  1
  5 27  1  0
  5  6  1  0
  5  7  1  0
  6 48  1  0
  7  8  2  0
  7  9  1  0
  9 24  1  0
  9 10  1  6
  9 11  1  0
 10 49  1  0
 10 50  1  0
 10 51  1  0
 11 20  1  0
 11 12  2  0
 12 13  1  0
 12 52  1  0
 13 14  1  0
 13 53  1  0
 13 54  1  0
 14 15  1  0
 14 20  1  0
 14 55  1  6
 15 19  2  0
 15 16  1  0
 16 17  2  0
 16 56  1  0
 17 18  1  0
 17 57  1  0
 18 19  1  0
 19 58  1  0
 20 21  1  1
 20 22  1  0
 21 59  1  0
 21 60  1  0
 21 61  1  0
 22 23  1  0
 22 62  1  0
 22 63  1  0
 23 24  1  0
 23 64  1  0
 23 65  1  0
 24 25  1  0
 24 66  1  6
 25 43  1  0
 25 26  1  1
 25 27  1  0
 26 67  1  0
 26 68  1  0
 26 69  1  0
 27 28  2  0
 28 29  1  0
 28 70  1  0
 29 30  1  0
 29 71  1  0
 29 72  1  0
 30 43  1  0
 30 31  1  0
 30 73  1  1
 31 38  1  0
 31 32  1  0
 31 74  1  1
 32 40  1  0
 32 33  1  0
 32 75  1  6
 33 34  1  0
 33 76  1  0
 33 77  1  0
 34 35  1  0
 34 78  1  0
 34 79  1  0
 35 36  1  0
 35 37  1  1
 35 38  1  0
 36 80  1  0
 36 81  1  0
 36 82  1  0
 37 83  1  0
 38 39  1  0
 38 84  1  1
 39 40  1  0
 40 41  1  0
 40 85  1  6
 41 42  1  0
 41 43  1  0
 41 86  1  6
 42 87  1  0
 43 44  1  1
 44 88  1  0
 44 89  1  0
 44 90  1  0
M  END
>  <i_m_ct_stereo_status>  (145) 
1

>  <s_m_source_file>  (145) 
/var/tmp/pbs.5076255.sched01/tmpmqqk35eb/391x3533zq.sdf

>  <i_m_source_file_index>  (145) 
19

>  <i_lp_mmshare_version>  (145) 
48012

>  <i_f3d_flags>  (145) 
0

>  <s_epik_input>  (145) 
W0NIMl0xW0NIMl1bQ0BAXShbQ0gzXSkoW09IXSlbQ0BIXTJPW0NASF0oW0NAQEhdKFtPSF0pW0NAQF0zNFtDSDNdKVtDQEBIXTFbQ0BASF0yW0NAQEhdNFtDSDJdW0NIXT1DKFtDQF0oW09IXSkoQzU9TylPQyg9TylbQ0gzXSlbQ0BdMyhbQ0gzXSlbQ0BASF02W0NIMl1bQ0gyXVtDQF0oW0NIM10pKEM9N1tDQF01NltDSDNdKVtDQEBIXShbQ0gyXVtDSF03KWM4W2NIXVtjSF1vW2NIXTg=

>  <s_epik_cmdline>  (145) 
J2VwaWtfcHl0aG9uJywgJy1waHQnLCAnMi4wJywgJy1waCcsICc3LjAnLCAnLXRuJywgJzgnLCAnLW1hJywgJzIwMCcsICctaW1hZScsICc8aW5maWxlLm1hZT4nLCAnLW9tYWUnLCAnPG91dGZpbGUubWFlPic=

>  <r_lp_tautomer_probability>  (145) 
1

>  <r_epik_Ionization_Penalty>  (145) 
9.37585e-07

>  <r_epik_Ionization_Penalty_Charging>  (145) 
0

>  <r_epik_Ionization_Penalty_Neutral>  (145) 
9.37585e-07

>  <r_epik_State_Penalty>  (145) 
-0

>  <r_epik_Charging_Adjusted_Penalty>  (145) 
0

>  <i_epik_Tot_Q>  (145) 
0

>  <i_epik_Tot_abs_Q>  (145) 
0

>  <s_epik_Chemistry_Notes>  (145) 
This compound has an ester and may undergo hydrolysis at high or low pH.

>  <s_lp_Force_Field>  (145) 
OPLS3e

>  <r_lp_Energy>  (145) 
106.242

>  <b_lp_Chiralities_Consistent>  (145) 
1

>  <s_lp_Variant>  (145) 
45:0-1

>  <s_i_glide_gridfile>  (145) 
pfpi4k_grid

>  <i_i_glide_lignum>  (145) 
19

>  <i_i_glide_rotatable_bonds>  (145) 
6

>  <r_i_docking_score>  (145) 
-2.58889

>  <r_i_glide_ligand_efficiency>  (145) 
-0.0588385

>  <r_i_glide_ligand_efficiency_sa>  (145) 
-0.20772

>  <r_i_glide_ligand_efficiency_ln>  (145) 
-0.541135

>  <r_i_glide_gscore>  (145) 
-2.58889

>  <r_i_glide_lipo>  (145) 
-0.24107

>  <r_i_glide_hbond>  (145) 
0

>  <r_i_glide_metal>  (145) 
-0

>  <r_i_glide_rewards>  (145) 
-0.574556

>  <r_i_glide_evdw>  (145) 
-34.8825

>  <r_i_glide_ecoul>  (145) 
-0.956062

>  <r_i_glide_erotb>  (145) 
0.114268

>  <r_i_glide_esite>  (145) 
0

>  <r_i_glide_emodel>  (145) 
-46.7783

>  <r_i_glide_energy>  (145) 
-35.8386

>  <r_i_glide_einternal>  (145) 
1.12417

>  <r_i_glide_intrahb_reward>  (145) 
-0.5

>  <i_i_glide_confnum>  (145) 
1

>  <i_i_glide_posenum>  (145) 
22

>  <r_i_glide_eff_state_penalty>  (145) 
0

>  <ligand_id>  (145) 
45

>  <original_smiles>  (145) 
CC(=O)OC1(O)C(=O)C2(C)C3=CCC(c4ccoc4)C3(C)CCC2C2(C)C1=CCC1C3C4CCC(C)(O)C3OC4C(O)C12C

>  <smiles>  (145) 
[H]OC1(OC(=O)C([H])([H])[H])C(=O)C2(C([H])([H])[H])C3=C([H])C([H])([H])C([H])(c4c([H])oc([H])c4[H])C3(C([H])([H])[H])C([H])([H])C([H])([H])C2([H])C2(C([H])([H])[H])C1=C([H])C([H])([H])C1([H])C3([H])C4([H])OC([H])(C([H])(O[H])C12C([H])([H])[H])C3([H])C([H])([H])C([H])([H])C4(O[H])C([H])([H])[H]

$$$$
46:0:0
     RDKit          3D

 35 37  0  0  1  0  0  0  0  0999 V2000
    0.0233   -9.5702    3.2703 C   0  0  0  0  0  0  0  0  0  0  0  0
    0.4156   -8.2586    2.7987 N   0  0  0  0  0  0  0  0  0  0  0  0
   -0.2170   -7.5044    1.8923 C   0  0  0  0  0  0  0  0  0  0  0  0
    0.3523   -6.3287    1.6531 N   0  0  0  0  0  0  0  0  0  0  0  0
    1.4726   -6.3398    2.4833 C   0  0  0  0  0  0  0  0  0  0  0  0
    2.6305   -5.0041    2.5125 S   0  0  0  0  0  0  0  0  0  0  0  0
    1.8392   -3.7721    2.6626 O   0  0  0  0  0  0  0  0  0  0  0  0
    3.7002   -5.3336    3.4661 O   0  0  0  0  0  0  0  0  0  0  0  0
    3.2983   -5.0433    0.9164 N   0  0  0  0  0  0  0  0  0  0  0  0
    4.2000   -6.1388    0.5751 C   0  0  0  0  0  0  0  0  0  0  0  0
    5.5600   -5.4805    0.3935 C   0  0  0  0  0  0  0  0  0  0  0  0
    5.2186   -4.1385   -0.2184 C   0  0  0  0  0  0  0  0  0  0  0  0
    3.8047   -3.8053    0.2986 C   0  0  1  0  0  0  0  0  0  0  0  0
    2.8397   -3.3467   -0.8224 C   0  0  0  0  0  0  0  0  0  0  0  0
    3.3828   -2.3257   -1.7078 N   0  0  0  0  0  0  0  0  0  0  0  0
    3.1110   -2.0659   -2.9894 C   0  0  0  0  0  0  0  0  0  0  0  0
    3.8404   -1.0626   -3.4511 N   0  0  0  0  0  0  0  0  0  0  0  0
    4.5753   -0.6732   -2.3462 N   0  0  0  0  0  0  0  0  0  0  0  0
    4.2930   -1.3990   -1.3048 N   0  0  0  0  0  0  0  0  0  0  0  0
    1.5292   -7.5200    3.1893 C   0  0  0  0  0  0  0  0  0  0  0  0
   -1.0475   -9.7113    3.1228 H   0  0  0  0  0  0  0  0  0  0  0  0
    0.2389   -9.6648    4.3344 H   0  0  0  0  0  0  0  0  0  0  0  0
    0.5643  -10.3389    2.7182 H   0  0  0  0  0  0  0  0  0  0  0  0
   -1.1211   -7.8312    1.3975 H   0  0  0  0  0  0  0  0  0  0  0  0
    4.2056   -6.9279    1.3288 H   0  0  0  0  0  0  0  0  0  0  0  0
    3.8537   -6.5629   -0.3655 H   0  0  0  0  0  0  0  0  0  0  0  0
    6.0450   -5.3450    1.3590 H   0  0  0  0  0  0  0  0  0  0  0  0
    6.2174   -6.0574   -0.2499 H   0  0  0  0  0  0  0  0  0  0  0  0
    5.9483   -3.3723    0.0448 H   0  0  0  0  0  0  0  0  0  0  0  0
    5.2339   -4.2409   -1.3048 H   0  0  0  0  0  0  0  0  0  0  0  0
    3.8801   -3.0310    1.0622 H   0  0  0  0  0  0  0  0  0  0  0  0
    2.5939   -4.2122   -1.4395 H   0  0  0  0  0  0  0  0  0  0  0  0
    1.8954   -3.0034   -0.3981 H   0  0  0  0  0  0  0  0  0  0  0  0
    2.4034   -2.6194   -3.5913 H   0  0  0  0  0  0  0  0  0  0  0  0
    2.2632   -7.8776    3.9014 H   0  0  0  0  0  0  0  0  0  0  0  0
  1  2  1  0
  1 21  1  0
  1 22  1  0
  1 23  1  0
  2 20  1  0
  2  3  1  0
  3  4  2  0
  3 24  1  0
  4  5  1  0
  5  6  1  0
  5 20  2  0
  6  7  2  0
  6  8  2  0
  6  9  1  0
  9 13  1  0
  9 10  1  0
 10 11  1  0
 10 25  1  0
 10 26  1  0
 11 12  1  0
 11 27  1  0
 11 28  1  0
 12 13  1  0
 12 29  1  0
 12 30  1  0
 13 14  1  0
 13 31  1  1
 14 15  1  0
 14 32  1  0
 14 33  1  0
 15 19  1  0
 15 16  1  0
 16 17  2  0
 16 34  1  0
 17 18  1  0
 18 19  2  0
 20 35  1  0
M  END
>  <i_m_ct_stereo_status>  (146) 
1

>  <s_m_source_file>  (146) 
/var/tmp/pbs.5076255.sched01/tmpmqqk35eb/391x3533zq.sdf

>  <i_m_source_file_index>  (146) 
20

>  <i_lp_mmshare_version>  (146) 
48012

>  <i_f3d_flags>  (146) 
0

>  <s_epik_input>  (146) 
W0NIM11uMVtjSF1uYyhbY0hdMSlTKD1PKSg9TylOMltDSDJdW0NIMl1bQ0gyXVtDQEhdMltDSDJdbjNbY0hdbm5uMw==

>  <s_epik_cmdline>  (146) 
J2VwaWtfcHl0aG9uJywgJy1waHQnLCAnMi4wJywgJy1waCcsICc3LjAnLCAnLXRuJywgJzgnLCAnLW1hJywgJzIwMCcsICctaW1hZScsICc8aW5maWxlLm1hZT4nLCAnLW9tYWUnLCAnPG91dGZpbGUubWFlPic=

>  <r_lp_tautomer_probability>  (146) 
1

>  <r_epik_Ionization_Penalty>  (146) 
8.57296e-06

>  <r_epik_Ionization_Penalty_Charging>  (146) 
8.57248e-06

>  <r_epik_Ionization_Penalty_Neutral>  (146) 
4.71728e-10

>  <r_epik_State_Penalty>  (146) 
-0

>  <r_epik_Charging_Adjusted_Penalty>  (146) 
8.57248e-06

>  <i_epik_Tot_Q>  (146) 
0

>  <i_epik_Tot_abs_Q>  (146) 
0

>  <s_lp_Force_Field>  (146) 
OPLS3e

>  <r_lp_Energy>  (146) 
-1.18569

>  <b_lp_Chiralities_Consistent>  (146) 
1

>  <s_lp_Variant>  (146) 
46:0-1

>  <s_i_glide_gridfile>  (146) 
pfpi4k_grid

>  <i_i_glide_lignum>  (146) 
20

>  <i_i_glide_rotatable_bonds>  (146) 
4

>  <r_i_docking_score>  (146) 
-3.37203

>  <r_i_glide_ligand_efficiency>  (146) 
-0.168601

>  <r_i_glide_ligand_efficiency_sa>  (146) 
-0.457655

>  <r_i_glide_ligand_efficiency_ln>  (146) 
-0.843907

>  <r_i_glide_gscore>  (146) 
-3.37203

>  <r_i_glide_lipo>  (146) 
-0.312761

>  <r_i_glide_hbond>  (146) 
-0.217863

>  <r_i_glide_metal>  (146) 
-0

>  <r_i_glide_rewards>  (146) 
-1.38179

>  <r_i_glide_evdw>  (146) 
-25.8924

>  <r_i_glide_ecoul>  (146) 
-4.96112

>  <r_i_glide_erotb>  (146) 
0.829499

>  <r_i_glide_esite>  (146) 
-0.250328

>  <r_i_glide_emodel>  (146) 
-34.6951

>  <r_i_glide_energy>  (146) 
-30.8535

>  <r_i_glide_einternal>  (146) 
7.1185

>  <r_i_glide_intrahb_reward>  (146) 
-0

>  <i_i_glide_confnum>  (146) 
5

>  <i_i_glide_posenum>  (146) 
35

>  <r_i_glide_eff_state_penalty>  (146) 
0

>  <ligand_id>  (146) 
46

>  <original_smiles>  (146) 
Cn1cnc(S(=O)(=O)N2CCCC2Cn2cnnn2)c1

>  <smiles>  (146) 
[H]c1nnnn1C([H])([H])C1([H])N(S(=O)(=O)c2nc([H])n(C([H])([H])[H])c2[H])C([H])([H])C([H])([H])C1([H])[H]

$$$$
46:0:1
     RDKit          3D

 35 37  0  0  1  0  0  0  0  0999 V2000
   -0.1800   -9.8334    3.2746 C   0  0  0  0  0  0  0  0  0  0  0  0
    0.2242   -8.5000    2.8894 N   0  0  0  0  0  0  0  0  0  0  0  0
   -0.4327   -7.6624    2.0800 C   0  0  0  0  0  0  0  0  0  0  0  0
    0.1695   -6.4944    1.8851 N   0  0  0  0  0  0  0  0  0  0  0  0
    1.3197   -6.5899    2.6676 C   0  0  0  0  0  0  0  0  0  0  0  0
    2.5123   -5.2864    2.7467 S   0  0  0  0  0  0  0  0  0  0  0  0
    1.7534   -4.0332    2.8861 O   0  0  0  0  0  0  0  0  0  0  0  0
    3.5438   -5.6552    3.7282 O   0  0  0  0  0  0  0  0  0  0  0  0
    3.2260   -5.3188    1.1732 N   0  0  0  0  0  0  0  0  0  0  0  0
    4.1627   -6.3926    0.8588 C   0  0  0  0  0  0  0  0  0  0  0  0
    5.5116   -5.6968    0.7101 C   0  0  0  0  0  0  0  0  0  0  0  0
    5.1450   -4.3689    0.0767 C   0  0  0  0  0  0  0  0  0  0  0  0
    3.7039   -4.0736    0.5504 C   0  0  1  0  0  0  0  0  0  0  0  0
    2.7497   -3.6566   -0.5925 C   0  0  0  0  0  0  0  0  0  0  0  0
    3.3599   -2.6958   -1.4971 N   0  0  0  0  0  0  0  0  0  0  0  0
    3.7988   -1.4585   -1.2707 C   0  0  0  0  0  0  0  0  0  0  0  0
    4.3759   -0.9401   -2.3423 N   0  0  0  0  0  0  0  0  0  0  0  0
    4.2332   -1.9379   -3.2903 N   0  0  0  0  0  0  0  0  0  0  0  0
    3.6369   -2.9841   -2.7964 N   0  0  0  0  0  0  0  0  0  0  0  0
    1.3743   -7.8194    3.2807 C   0  0  0  0  0  0  0  0  0  0  0  0
   -1.2603   -9.9256    3.1683 H   0  0  0  0  0  0  0  0  0  0  0  0
    0.0839  -10.0188    4.3154 H   0  0  0  0  0  0  0  0  0  0  0  0
    0.3111  -10.5675    2.6346 H   0  0  0  0  0  0  0  0  0  0  0  0
   -1.3747   -7.9200    1.6146 H   0  0  0  0  0  0  0  0  0  0  0  0
    4.1682   -7.1754    1.6208 H   0  0  0  0  0  0  0  0  0  0  0  0
    3.8525   -6.8269   -0.0915 H   0  0  0  0  0  0  0  0  0  0  0  0
    5.9607   -5.5397    1.6917 H   0  0  0  0  0  0  0  0  0  0  0  0
    6.2093   -6.2560    0.0908 H   0  0  0  0  0  0  0  0  0  0  0  0
    5.8424   -3.5750    0.3474 H   0  0  0  0  0  0  0  0  0  0  0  0
    5.2053   -4.4998   -1.0044 H   0  0  0  0  0  0  0  0  0  0  0  0
    3.7448   -3.2866    1.3054 H   0  0  0  0  0  0  0  0  0  0  0  0
    2.4755   -4.5579   -1.1409 H   0  0  0  0  0  0  0  0  0  0  0  0
    1.8150   -3.2450   -0.2087 H   0  0  0  0  0  0  0  0  0  0  0  0
    3.7157   -0.9627   -0.3137 H   0  0  0  0  0  0  0  0  0  0  0  0
    2.1309   -8.2478    3.9279 H   0  0  0  0  0  0  0  0  0  0  0  0
  1  2  1  0
  1 21  1  0
  1 22  1  0
  1 23  1  0
  2 20  1  0
  2  3  1  0
  3  4  2  0
  3 24  1  0
  4  5  1  0
  5  6  1  0
  5 20  2  0
  6  7  2  0
  6  8  2  0
  6  9  1  0
  9 13  1  0
  9 10  1  0
 10 11  1  0
 10 25  1  0
 10 26  1  0
 11 12  1  0
 11 27  1  0
 11 28  1  0
 12 13  1  0
 12 29  1  0
 12 30  1  0
 13 14  1  0
 13 31  1  1
 14 15  1  0
 14 32  1  0
 14 33  1  0
 15 19  1  0
 15 16  1  0
 16 17  2  0
 16 34  1  0
 17 18  1  0
 18 19  2  0
 20 35  1  0
M  END
>  <i_m_ct_stereo_status>  (147) 
1

>  <s_m_source_file>  (147) 
/var/tmp/pbs.5076255.sched01/tmpmqqk35eb/391x3533zq.sdf

>  <i_m_source_file_index>  (147) 
20

>  <i_lp_mmshare_version>  (147) 
48012

>  <i_f3d_flags>  (147) 
0

>  <s_epik_input>  (147) 
W0NIM11uMVtjSF1uYyhbY0hdMSlTKD1PKSg9TylOMltDSDJdW0NIMl1bQ0gyXVtDQEhdMltDSDJdbjNbY0hdbm5uMw==

>  <s_epik_cmdline>  (147) 
J2VwaWtfcHl0aG9uJywgJy1waHQnLCAnMi4wJywgJy1waCcsICc3LjAnLCAnLXRuJywgJzgnLCAnLW1hJywgJzIwMCcsICctaW1hZScsICc8aW5maWxlLm1hZT4nLCAnLW9tYWUnLCAnPG91dGZpbGUubWFlPic=

>  <r_lp_tautomer_probability>  (147) 
1

>  <r_epik_Ionization_Penalty>  (147) 
8.57296e-06

>  <r_epik_Ionization_Penalty_Charging>  (147) 
8.57248e-06

>  <r_epik_Ionization_Penalty_Neutral>  (147) 
4.71728e-10

>  <r_epik_State_Penalty>  (147) 
-0

>  <r_epik_Charging_Adjusted_Penalty>  (147) 
8.57248e-06

>  <i_epik_Tot_Q>  (147) 
0

>  <i_epik_Tot_abs_Q>  (147) 
0

>  <s_lp_Force_Field>  (147) 
OPLS3e

>  <r_lp_Energy>  (147) 
-1.18569

>  <b_lp_Chiralities_Consistent>  (147) 
1

>  <s_lp_Variant>  (147) 
46:0-1

>  <s_i_glide_gridfile>  (147) 
pfpi4k_grid

>  <i_i_glide_lignum>  (147) 
20

>  <i_i_glide_rotatable_bonds>  (147) 
4

>  <r_i_docking_score>  (147) 
-3.20519

>  <r_i_glide_ligand_efficiency>  (147) 
-0.16026

>  <r_i_glide_ligand_efficiency_sa>  (147) 
-0.435012

>  <r_i_glide_ligand_efficiency_ln>  (147) 
-0.802154

>  <r_i_glide_gscore>  (147) 
-3.20519

>  <r_i_glide_lipo>  (147) 
-0.267607

>  <r_i_glide_hbond>  (147) 
-0.202841

>  <r_i_glide_metal>  (147) 
-0

>  <r_i_glide_rewards>  (147) 
-1.38179

>  <r_i_glide_evdw>  (147) 
-26.219

>  <r_i_glide_ecoul>  (147) 
-4.09579

>  <r_i_glide_erotb>  (147) 
0.829499

>  <r_i_glide_esite>  (147) 
-0.257139

>  <r_i_glide_emodel>  (147) 
-33.7153

>  <r_i_glide_energy>  (147) 
-30.3148

>  <r_i_glide_einternal>  (147) 
7.27643

>  <r_i_glide_intrahb_reward>  (147) 
-0

>  <i_i_glide_confnum>  (147) 
5

>  <i_i_glide_posenum>  (147) 
32

>  <r_i_glide_eff_state_penalty>  (147) 
0

>  <ligand_id>  (147) 
46

>  <original_smiles>  (147) 
Cn1cnc(S(=O)(=O)N2CCCC2Cn2cnnn2)c1

>  <smiles>  (147) 
[H]c1nnnn1C([H])([H])C1([H])N(S(=O)(=O)c2nc([H])n(C([H])([H])[H])c2[H])C([H])([H])C([H])([H])C1([H])[H]

$$$$
46:0:2
     RDKit          3D

 35 37  0  0  1  0  0  0  0  0999 V2000
   -0.7858   -8.5035    2.7392 C   0  0  0  0  0  0  0  0  0  0  0  0
   -0.0712   -7.3150    3.1461 N   0  0  0  0  0  0  0  0  0  0  0  0
   -0.1618   -6.6413    4.3009 C   0  0  0  0  0  0  0  0  0  0  0  0
    0.6334   -5.5785    4.3872 N   0  0  0  0  0  0  0  0  0  0  0  0
    1.3285   -5.5945    3.1758 C   0  0  0  0  0  0  0  0  0  0  0  0
    2.5863   -4.4202    2.7350 S   0  0  0  0  0  0  0  0  0  0  0  0
    1.9444   -3.0969    2.7211 O   0  0  0  0  0  0  0  0  0  0  0  0
    3.7671   -4.6810    3.5711 O   0  0  0  0  0  0  0  0  0  0  0  0
    2.9859   -4.8461    1.1087 N   0  0  0  0  0  0  0  0  0  0  0  0
    3.6123   -6.1393    0.8720 C   0  0  0  0  0  0  0  0  0  0  0  0
    5.0172   -5.8321    0.4072 C   0  0  0  0  0  0  0  0  0  0  0  0
    4.8431   -4.5592   -0.3970 C   0  0  0  0  0  0  0  0  0  0  0  0
    3.6205   -3.8558    0.2249 C   0  0  1  0  0  0  0  0  0  0  0  0
    2.5913   -3.3904   -0.8253 C   0  0  0  0  0  0  0  0  0  0  0  0
    3.1665   -2.6336   -1.9217 N   0  0  0  0  0  0  0  0  0  0  0  0
    3.1696   -2.8711   -3.2360 C   0  0  0  0  0  0  0  0  0  0  0  0
    3.8240   -1.9316   -3.8986 N   0  0  0  0  0  0  0  0  0  0  0  0
    4.2182   -1.0600   -2.8961 N   0  0  0  0  0  0  0  0  0  0  0  0
    3.8365   -1.4702   -1.7219 N   0  0  0  0  0  0  0  0  0  0  0  0
    0.8798   -6.6394    2.3992 C   0  0  0  0  0  0  0  0  0  0  0  0
   -1.1481   -9.0298    3.6209 H   0  0  0  0  0  0  0  0  0  0  0  0
   -0.1230   -9.1691    2.1817 H   0  0  0  0  0  0  0  0  0  0  0  0
   -1.6266   -8.2253    2.1039 H   0  0  0  0  0  0  0  0  0  0  0  0
   -0.8387   -6.9325    5.0894 H   0  0  0  0  0  0  0  0  0  0  0  0
    3.6003   -6.7809    1.7549 H   0  0  0  0  0  0  0  0  0  0  0  0
    3.0582   -6.6205    0.0706 H   0  0  0  0  0  0  0  0  0  0  0  0
    5.6597   -5.6770    1.2730 H   0  0  0  0  0  0  0  0  0  0  0  0
    5.4117   -6.6497   -0.1921 H   0  0  0  0  0  0  0  0  0  0  0  0
    5.7416   -3.9432   -0.3732 H   0  0  0  0  0  0  0  0  0  0  0  0
    4.6577   -4.8370   -1.4364 H   0  0  0  0  0  0  0  0  0  0  0  0
    3.9647   -3.0095    0.8209 H   0  0  0  0  0  0  0  0  0  0  0  0
    2.0995   -4.2635   -1.2581 H   0  0  0  0  0  0  0  0  0  0  0  0
    1.8183   -2.8005   -0.3369 H   0  0  0  0  0  0  0  0  0  0  0  0
    2.7332   -3.7446   -3.7036 H   0  0  0  0  0  0  0  0  0  0  0  0
    1.1649   -6.9667    1.4083 H   0  0  0  0  0  0  0  0  0  0  0  0
  1  2  1  0
  1 21  1  0
  1 22  1  0
  1 23  1  0
  2 20  1  0
  2  3  1  0
  3  4  2  0
  3 24  1  0
  4  5  1  0
  5  6  1  0
  5 20  2  0
  6  7  2  0
  6  8  2  0
  6  9  1  0
  9 13  1  0
  9 10  1  0
 10 11  1  0
 10 25  1  0
 10 26  1  0
 11 12  1  0
 11 27  1  0
 11 28  1  0
 12 13  1  0
 12 29  1  0
 12 30  1  0
 13 14  1  0
 13 31  1  1
 14 15  1  0
 14 32  1  0
 14 33  1  0
 15 19  1  0
 15 16  1  0
 16 17  2  0
 16 34  1  0
 17 18  1  0
 18 19  2  0
 20 35  1  0
M  END
>  <i_m_ct_stereo_status>  (148) 
1

>  <s_m_source_file>  (148) 
/var/tmp/pbs.5076255.sched01/tmpmqqk35eb/391x3533zq.sdf

>  <i_m_source_file_index>  (148) 
20

>  <i_lp_mmshare_version>  (148) 
48012

>  <i_f3d_flags>  (148) 
0

>  <s_epik_input>  (148) 
W0NIM11uMVtjSF1uYyhbY0hdMSlTKD1PKSg9TylOMltDSDJdW0NIMl1bQ0gyXVtDQEhdMltDSDJdbjNbY0hdbm5uMw==

>  <s_epik_cmdline>  (148) 
J2VwaWtfcHl0aG9uJywgJy1waHQnLCAnMi4wJywgJy1waCcsICc3LjAnLCAnLXRuJywgJzgnLCAnLW1hJywgJzIwMCcsICctaW1hZScsICc8aW5maWxlLm1hZT4nLCAnLW9tYWUnLCAnPG91dGZpbGUubWFlPic=

>  <r_lp_tautomer_probability>  (148) 
1

>  <r_epik_Ionization_Penalty>  (148) 
8.57296e-06

>  <r_epik_Ionization_Penalty_Charging>  (148) 
8.57248e-06

>  <r_epik_Ionization_Penalty_Neutral>  (148) 
4.71728e-10

>  <r_epik_State_Penalty>  (148) 
-0

>  <r_epik_Charging_Adjusted_Penalty>  (148) 
8.57248e-06

>  <i_epik_Tot_Q>  (148) 
0

>  <i_epik_Tot_abs_Q>  (148) 
0

>  <s_lp_Force_Field>  (148) 
OPLS3e

>  <r_lp_Energy>  (148) 
-1.18569

>  <b_lp_Chiralities_Consistent>  (148) 
1

>  <s_lp_Variant>  (148) 
46:0-1

>  <s_i_glide_gridfile>  (148) 
pfpi4k_grid

>  <i_i_glide_lignum>  (148) 
20

>  <i_i_glide_rotatable_bonds>  (148) 
4

>  <r_i_docking_score>  (148) 
-2.82653

>  <r_i_glide_ligand_efficiency>  (148) 
-0.141326

>  <r_i_glide_ligand_efficiency_sa>  (148) 
-0.383619

>  <r_i_glide_ligand_efficiency_ln>  (148) 
-0.707386

>  <r_i_glide_gscore>  (148) 
-2.82653

>  <r_i_glide_lipo>  (148) 
-0.173334

>  <r_i_glide_hbond>  (148) 
0

>  <r_i_glide_metal>  (148) 
-0

>  <r_i_glide_rewards>  (148) 
-1.51578

>  <r_i_glide_evdw>  (148) 
-27.0887

>  <r_i_glide_ecoul>  (148) 
-2.69632

>  <r_i_glide_erotb>  (148) 
0.829499

>  <r_i_glide_esite>  (148) 
-0.208028

>  <r_i_glide_emodel>  (148) 
-33.1071

>  <r_i_glide_energy>  (148) 
-29.785

>  <r_i_glide_einternal>  (148) 
5.38227

>  <r_i_glide_intrahb_reward>  (148) 
-0

>  <i_i_glide_confnum>  (148) 
4

>  <i_i_glide_posenum>  (148) 
38

>  <r_i_glide_eff_state_penalty>  (148) 
0

>  <ligand_id>  (148) 
46

>  <original_smiles>  (148) 
Cn1cnc(S(=O)(=O)N2CCCC2Cn2cnnn2)c1

>  <smiles>  (148) 
[H]c1nnnn1C([H])([H])C1([H])N(S(=O)(=O)c2nc([H])n(C([H])([H])[H])c2[H])C([H])([H])C([H])([H])C1([H])[H]

$$$$
47:0:0
     RDKit          3D

 53 58  0  0  1  0  0  0  0  0999 V2000
    7.7794   -3.0561   -1.1475 C   0  0  0  0  0  0  0  0  0  0  0  0
    6.4116   -2.8938   -0.4522 C   0  0  1  0  0  0  0  0  0  0  0  0
    6.4370   -3.1285    1.0598 C   0  0  0  0  0  0  0  0  0  0  0  0
    5.2074   -2.3185    1.3962 C   0  0  2  0  0  0  0  0  0  0  0  0
    5.3448   -1.0804    0.7662 O   0  0  0  0  0  0  0  0  0  0  0  0
    5.7674   -1.4600   -0.5527 C   0  0  2  0  0  0  0  0  0  0  0  0
    4.5187   -1.2989   -1.4721 C   0  0  1  0  0  0  0  0  0  0  0  0
    4.8135   -0.2659   -2.3706 O   0  0  0  0  0  0  0  0  0  0  0  0
    4.0585   -2.5283   -2.2521 C   0  0  2  0  0  0  0  0  0  0  0  0
    3.7294   -2.2547   -3.7284 C   0  0  0  0  0  0  0  0  0  0  0  0
    3.2311   -3.6307   -1.5882 C   0  0  2  0  0  0  0  0  0  0  0  0
    2.5465   -3.4997   -0.2194 C   0  0  0  0  0  0  0  0  0  0  0  0
    3.0024   -4.4637    0.9239 C   0  0  0  0  0  0  0  0  0  0  0  0
    3.2924   -3.8492    2.3438 C   0  0  1  0  0  0  0  0  0  0  0  0
    4.1841   -2.6132    2.4660 C   0  0  0  0  0  0  0  0  0  0  0  0
    3.7801   -1.8084    3.4506 C   0  0  0  0  0  0  0  0  0  0  0  0
    2.5310   -2.3374    4.1344 C   0  0  2  0  0  0  0  0  0  0  0  0
    1.4885   -1.2479    4.4264 C   0  0  0  0  0  0  0  0  0  0  0  0
    2.8403   -3.1336    5.4036 C   0  0  0  0  0  0  0  0  0  0  0  0
    3.4626   -2.6903    6.3667 O   0  0  0  0  0  0  0  0  0  0  0  0
    2.2613   -4.5407    5.3484 C   0  0  0  0  0  0  0  0  0  0  0  0
    1.4688   -4.5660    4.0319 C   0  0  0  0  0  0  0  0  0  0  0  0
    2.0408   -3.4372    3.1597 C   0  0  2  0  0  0  0  0  0  0  0  0
    4.7041   -3.8441   -1.9476 C   0  0  2  0  0  0  0  0  0  0  0  0
    5.5558   -3.9730   -0.8291 O   0  0  0  0  0  0  0  0  0  0  0  0
    8.5104   -2.3143   -0.8241 H   0  0  0  0  0  0  0  0  0  0  0  0
    7.6915   -2.9827   -2.2330 H   0  0  0  0  0  0  0  0  0  0  0  0
    8.2115   -4.0317   -0.9268 H   0  0  0  0  0  0  0  0  0  0  0  0
    6.3662   -4.1796    1.3425 H   0  0  0  0  0  0  0  0  0  0  0  0
    7.3152   -2.6764    1.5119 H   0  0  0  0  0  0  0  0  0  0  0  0
    4.4648   -2.6560    0.7342 H   0  0  0  0  0  0  0  0  0  0  0  0
    6.5412   -0.7415   -0.7851 H   0  0  0  0  0  0  0  0  0  0  0  0
    3.6623   -0.9506   -0.8861 H   0  0  0  0  0  0  0  0  0  0  0  0
    4.9038    0.5355   -1.8602 H   0  0  0  0  0  0  0  0  0  0  0  0
    3.3861   -3.1678   -4.2130 H   0  0  0  0  0  0  0  0  0  0  0  0
    4.6139   -1.9157   -4.2707 H   0  0  0  0  0  0  0  0  0  0  0  0
    2.9447   -1.4984   -3.8293 H   0  0  0  0  0  0  0  0  0  0  0  0
    2.5320   -4.0911   -2.2687 H   0  0  0  0  0  0  0  0  0  0  0  0
    2.4783   -2.4583    0.1096 H   0  0  0  0  0  0  0  0  0  0  0  0
    1.5176   -3.7483   -0.4439 H   0  0  0  0  0  0  0  0  0  0  0  0
    2.2636   -5.2507    1.0388 H   0  0  0  0  0  0  0  0  0  0  0  0
    3.8917   -4.9987    0.6017 H   0  0  0  0  0  0  0  0  0  0  0  0
    3.8368   -4.6144    2.8948 H   0  0  0  0  0  0  0  0  0  0  0  0
    4.2005   -0.8355    3.6639 H   0  0  0  0  0  0  0  0  0  0  0  0
    1.8747   -0.4939    5.1134 H   0  0  0  0  0  0  0  0  0  0  0  0
    0.6009   -1.6724    4.8922 H   0  0  0  0  0  0  0  0  0  0  0  0
    1.1687   -0.7370    3.5208 H   0  0  0  0  0  0  0  0  0  0  0  0
    3.0736   -5.2686    5.3362 H   0  0  0  0  0  0  0  0  0  0  0  0
    1.6317   -4.7432    6.2139 H   0  0  0  0  0  0  0  0  0  0  0  0
    1.5142   -5.5395    3.5394 H   0  0  0  0  0  0  0  0  0  0  0  0
    0.4182   -4.3608    4.2510 H   0  0  0  0  0  0  0  0  0  0  0  0
    1.2766   -3.0299    2.4958 H   0  0  0  0  0  0  0  0  0  0  0  0
    4.9795   -4.4900   -2.7769 H   0  0  0  0  0  0  0  0  0  0  0  0
  2  1  1  6
  1 26  1  0
  1 27  1  0
  1 28  1  0
  2  6  1  0
  2 25  1  0
  2  3  1  0
  3  4  1  0
  3 29  1  0
  3 30  1  0
  4 15  1  0
  4  5  1  0
  4 31  1  6
  5  6  1  0
  6  7  1  0
  6 32  1  6
  7  8  1  0
  7  9  1  0
  7 33  1  1
  8 34  1  0
  9 24  1  0
  9 10  1  6
  9 11  1  0
 10 35  1  0
 10 36  1  0
 10 37  1  0
 11 12  1  0
 11 24  1  0
 11 38  1  6
 12 13  1  0
 12 39  1  0
 12 40  1  0
 13 14  1  0
 13 41  1  0
 13 42  1  0
 14 23  1  0
 14 15  1  0
 14 43  1  1
 15 16  2  0
 16 17  1  0
 16 44  1  0
 17 23  1  0
 17 18  1  1
 17 19  1  0
 18 45  1  0
 18 46  1  0
 18 47  1  0
 19 20  2  0
 19 21  1  0
 21 22  1  0
 21 48  1  0
 21 49  1  0
 22 23  1  0
 22 50  1  0
 22 51  1  0
 23 52  1  6
 24 25  1  0
 24 53  1  6
M  END
>  <i_m_ct_stereo_status>  (149) 
1

>  <s_m_source_file>  (149) 
/var/tmp/pbs.5076255.sched01/tmpmqqk35eb/391x3533zq.sdf

>  <i_m_source_file_index>  (149) 
21

>  <i_lp_mmshare_version>  (149) 
48012

>  <i_f3d_flags>  (149) 
0

>  <s_epik_input>  (149) 
W0NIM11bQ0BdMTJbQ0BASF0zT1tDQEBIXShbQ0gyXTEpQz00W0NAQEhdKFtDQEBIXTVbQ0BAXShbQ0hdNCkoW0NIM10pQyg9TylbQ0gyXVtDSDJdNSlbQ0gyXVtDSDJdW0NASF02W0NAXShbQ0gzXSkoW0NASF02TzIpW0NAQEhdM1tPSF0=

>  <s_epik_cmdline>  (149) 
J2VwaWtfcHl0aG9uJywgJy1waHQnLCAnMi4wJywgJy1waCcsICc3LjAnLCAnLXRuJywgJzgnLCAnLW1hJywgJzIwMCcsICctaW1hZScsICc8aW5maWxlLm1hZT4nLCAnLW9tYWUnLCAnPG91dGZpbGUubWFlPic=

>  <r_lp_tautomer_probability>  (149) 
1

>  <r_epik_Ionization_Penalty>  (149) 
4.2603e-08

>  <r_epik_Ionization_Penalty_Charging>  (149) 
0

>  <r_epik_Ionization_Penalty_Neutral>  (149) 
4.2603e-08

>  <r_epik_State_Penalty>  (149) 
-0

>  <r_epik_Charging_Adjusted_Penalty>  (149) 
0

>  <i_epik_Tot_Q>  (149) 
0

>  <i_epik_Tot_abs_Q>  (149) 
0

>  <s_lp_Force_Field>  (149) 
OPLS3e

>  <r_lp_Energy>  (149) 
79.7966

>  <b_lp_Chiralities_Consistent>  (149) 
1

>  <s_lp_Variant>  (149) 
47:0-1

>  <s_i_glide_gridfile>  (149) 
pfpi4k_grid

>  <i_i_glide_lignum>  (149) 
21

>  <i_i_glide_rotatable_bonds>  (149) 
1

>  <r_i_docking_score>  (149) 
-2.97913

>  <r_i_glide_ligand_efficiency>  (149) 
-0.119165

>  <r_i_glide_ligand_efficiency_sa>  (149) 
-0.348441

>  <r_i_glide_ligand_efficiency_ln>  (149) 
-0.706143

>  <r_i_glide_gscore>  (149) 
-2.97913

>  <r_i_glide_lipo>  (149) 
-0.391165

>  <r_i_glide_hbond>  (149) 
0

>  <r_i_glide_metal>  (149) 
-0

>  <r_i_glide_rewards>  (149) 
-1.0606

>  <r_i_glide_evdw>  (149) 
-19.3473

>  <r_i_glide_ecoul>  (149) 
-3.7333

>  <r_i_glide_erotb>  (149) 
0

>  <r_i_glide_esite>  (149) 
0

>  <r_i_glide_emodel>  (149) 
-26.6173

>  <r_i_glide_energy>  (149) 
-23.0806

>  <r_i_glide_einternal>  (149) 
0.333901

>  <r_i_glide_intrahb_reward>  (149) 
-0

>  <i_i_glide_confnum>  (149) 
1

>  <i_i_glide_posenum>  (149) 
13

>  <r_i_glide_eff_state_penalty>  (149) 
0

>  <ligand_id>  (149) 
47

>  <original_smiles>  (149) 
CC12CC3OC1C(O)C1(C)C(CCC4C3=CC3(C)C(=O)CCC43)C1O2

>  <smiles>  (149) 
[H]OC1([H])C2([H])OC3([H])C4=C([H])C5(C([H])([H])[H])C(=O)C([H])([H])C([H])([H])C5([H])C4([H])C([H])([H])C([H])([H])C4([H])C([H])(OC2(C([H])([H])[H])C3([H])[H])C14C([H])([H])[H]

$$$$
47:0:1
     RDKit          3D

 53 58  0  0  1  0  0  0  0  0999 V2000
    7.6045   -2.8318   -1.5195 C   0  0  0  0  0  0  0  0  0  0  0  0
    6.4270   -2.5630   -0.5714 C   0  0  1  0  0  0  0  0  0  0  0  0
    6.8579   -2.3597    0.8841 C   0  0  0  0  0  0  0  0  0  0  0  0
    5.6388   -1.5853    1.3241 C   0  0  2  0  0  0  0  0  0  0  0  0
    5.4488   -0.5654    0.3798 O   0  0  0  0  0  0  0  0  0  0  0  0
    5.5743   -1.2714   -0.8754 C   0  0  2  0  0  0  0  0  0  0  0  0
    4.1372   -1.4419   -1.4480 C   0  0  1  0  0  0  0  0  0  0  0  0
    4.0258   -0.6263   -2.6027 O   0  0  0  0  0  0  0  0  0  0  0  0
    3.6731   -2.8785   -1.7159 C   0  0  2  0  0  0  0  0  0  0  0  0
    2.9839   -3.0139   -3.0761 C   0  0  0  0  0  0  0  0  0  0  0  0
    3.2240   -3.8627   -0.6112 C   0  0  2  0  0  0  0  0  0  0  0  0
    2.8527   -3.3948    0.8281 C   0  0  0  0  0  0  0  0  0  0  0  0
    3.7165   -3.9490    2.0061 C   0  0  0  0  0  0  0  0  0  0  0  0
    4.2451   -2.9510    3.1022 C   0  0  1  0  0  0  0  0  0  0  0  0
    4.9525   -1.6599    2.6756 C   0  0  0  0  0  0  0  0  0  0  0  0
    4.6891   -0.6533    3.5148 C   0  0  0  0  0  0  0  0  0  0  0  0
    3.7250   -1.0686    4.6116 C   0  0  2  0  0  0  0  0  0  0  0  0
    2.6389   -0.0225    4.9002 C   0  0  0  0  0  0  0  0  0  0  0  0
    4.4465   -1.4685    5.8988 C   0  0  0  0  0  0  0  0  0  0  0  0
    5.2159   -0.7445    6.5229 O   0  0  0  0  0  0  0  0  0  0  0  0
    4.0731   -2.8753    6.3495 C   0  0  0  0  0  0  0  0  0  0  0  0
    2.9993   -3.3193    5.3425 C   0  0  0  0  0  0  0  0  0  0  0  0
    3.1765   -2.4262    4.1004 C   0  0  2  0  0  0  0  0  0  0  0  0
    4.5877   -3.9899   -1.2896 C   0  0  2  0  0  0  0  0  0  0  0  0
    5.6670   -3.7551   -0.4255 O   0  0  0  0  0  0  0  0  0  0  0  0
    8.2990   -1.9960   -1.5907 H   0  0  0  0  0  0  0  0  0  0  0  0
    7.2368   -3.0402   -2.5246 H   0  0  0  0  0  0  0  0  0  0  0  0
    8.1933   -3.6923   -1.1977 H   0  0  0  0  0  0  0  0  0  0  0  0
    7.0153   -3.2918    1.4282 H   0  0  0  0  0  0  0  0  0  0  0  0
    7.7443   -1.7284    0.9548 H   0  0  0  0  0  0  0  0  0  0  0  0
    4.8128   -2.1482    0.9929 H   0  0  0  0  0  0  0  0  0  0  0  0
    6.1419   -0.6557   -1.5619 H   0  0  0  0  0  0  0  0  0  0  0  0
    3.4299   -1.0064   -0.7423 H   0  0  0  0  0  0  0  0  0  0  0  0
    3.1093   -0.3975   -2.6994 H   0  0  0  0  0  0  0  0  0  0  0  0
    2.6485   -4.0325   -3.2447 H   0  0  0  0  0  0  0  0  0  0  0  0
    3.6779   -2.7719   -3.8852 H   0  0  0  0  0  0  0  0  0  0  0  0
    2.1082   -2.3657   -3.1430 H   0  0  0  0  0  0  0  0  0  0  0  0
    2.5236   -4.6232   -0.9299 H   0  0  0  0  0  0  0  0  0  0  0  0
    2.7355   -2.3100    0.8767 H   0  0  0  0  0  0  0  0  0  0  0  0
    1.8397   -3.7492    1.0092 H   0  0  0  0  0  0  0  0  0  0  0  0
    3.1484   -4.7253    2.5114 H   0  0  0  0  0  0  0  0  0  0  0  0
    4.5743   -4.4800    1.6065 H   0  0  0  0  0  0  0  0  0  0  0  0
    5.0091   -3.4940    3.6626 H   0  0  0  0  0  0  0  0  0  0  0  0
    5.0030    0.3684    3.3670 H   0  0  0  0  0  0  0  0  0  0  0  0
    3.0686    0.9125    5.2545 H   0  0  0  0  0  0  0  0  0  0  0  0
    1.9586   -0.3723    5.6746 H   0  0  0  0  0  0  0  0  0  0  0  0
    2.0448    0.1983    4.0183 H   0  0  0  0  0  0  0  0  0  0  0  0
    4.9495   -3.5206    6.2968 H   0  0  0  0  0  0  0  0  0  0  0  0
    3.6985   -2.8867    7.3732 H   0  0  0  0  0  0  0  0  0  0  0  0
    3.0607   -4.3838    5.1016 H   0  0  0  0  0  0  0  0  0  0  0  0
    2.0109   -3.1432    5.7757 H   0  0  0  0  0  0  0  0  0  0  0  0
    2.2243   -2.2814    3.5876 H   0  0  0  0  0  0  0  0  0  0  0  0
    4.7724   -4.8025   -1.9850 H   0  0  0  0  0  0  0  0  0  0  0  0
  2  1  1  6
  1 26  1  0
  1 27  1  0
  1 28  1  0
  2  6  1  0
  2 25  1  0
  2  3  1  0
  3  4  1  0
  3 29  1  0
  3 30  1  0
  4 15  1  0
  4  5  1  0
  4 31  1  6
  5  6  1  0
  6  7  1  0
  6 32  1  6
  7  8  1  0
  7  9  1  0
  7 33  1  1
  8 34  1  0
  9 24  1  0
  9 10  1  6
  9 11  1  0
 10 35  1  0
 10 36  1  0
 10 37  1  0
 11 12  1  0
 11 24  1  0
 11 38  1  6
 12 13  1  0
 12 39  1  0
 12 40  1  0
 13 14  1  0
 13 41  1  0
 13 42  1  0
 14 23  1  0
 14 15  1  0
 14 43  1  1
 15 16  2  0
 16 17  1  0
 16 44  1  0
 17 23  1  0
 17 18  1  1
 17 19  1  0
 18 45  1  0
 18 46  1  0
 18 47  1  0
 19 20  2  0
 19 21  1  0
 21 22  1  0
 21 48  1  0
 21 49  1  0
 22 23  1  0
 22 50  1  0
 22 51  1  0
 23 52  1  6
 24 25  1  0
 24 53  1  6
M  END
>  <i_m_ct_stereo_status>  (150) 
1

>  <s_m_source_file>  (150) 
/var/tmp/pbs.5076255.sched01/tmpmqqk35eb/391x3533zq.sdf

>  <i_m_source_file_index>  (150) 
21

>  <i_lp_mmshare_version>  (150) 
48012

>  <i_f3d_flags>  (150) 
0

>  <s_epik_input>  (150) 
W0NIM11bQ0BdMTJbQ0BASF0zT1tDQEBIXShbQ0gyXTEpQz00W0NAQEhdKFtDQEBIXTVbQ0BAXShbQ0hdNCkoW0NIM10pQyg9TylbQ0gyXVtDSDJdNSlbQ0gyXVtDSDJdW0NASF02W0NAXShbQ0gzXSkoW0NASF02TzIpW0NAQEhdM1tPSF0=

>  <s_epik_cmdline>  (150) 
J2VwaWtfcHl0aG9uJywgJy1waHQnLCAnMi4wJywgJy1waCcsICc3LjAnLCAnLXRuJywgJzgnLCAnLW1hJywgJzIwMCcsICctaW1hZScsICc8aW5maWxlLm1hZT4nLCAnLW9tYWUnLCAnPG91dGZpbGUubWFlPic=

>  <r_lp_tautomer_probability>  (150) 
1

>  <r_epik_Ionization_Penalty>  (150) 
4.2603e-08

>  <r_epik_Ionization_Penalty_Charging>  (150) 
0

>  <r_epik_Ionization_Penalty_Neutral>  (150) 
4.2603e-08

>  <r_epik_State_Penalty>  (150) 
-0

>  <r_epik_Charging_Adjusted_Penalty>  (150) 
0

>  <i_epik_Tot_Q>  (150) 
0

>  <i_epik_Tot_abs_Q>  (150) 
0

>  <s_lp_Force_Field>  (150) 
OPLS3e

>  <r_lp_Energy>  (150) 
79.7966

>  <b_lp_Chiralities_Consistent>  (150) 
1

>  <s_lp_Variant>  (150) 
47:0-1

>  <s_i_glide_gridfile>  (150) 
pfpi4k_grid

>  <i_i_glide_lignum>  (150) 
21

>  <i_i_glide_rotatable_bonds>  (150) 
1

>  <r_i_docking_score>  (150) 
-2.94055

>  <r_i_glide_ligand_efficiency>  (150) 
-0.117622

>  <r_i_glide_ligand_efficiency_sa>  (150) 
-0.343929

>  <r_i_glide_ligand_efficiency_ln>  (150) 
-0.696999

>  <r_i_glide_gscore>  (150) 
-2.94055

>  <r_i_glide_lipo>  (150) 
-0.427874

>  <r_i_glide_hbond>  (150) 
0

>  <r_i_glide_metal>  (150) 
-0

>  <r_i_glide_rewards>  (150) 
-1.06751

>  <r_i_glide_evdw>  (150) 
-24.0791

>  <r_i_glide_ecoul>  (150) 
-1.60808

>  <r_i_glide_erotb>  (150) 
0

>  <r_i_glide_esite>  (150) 
0

>  <r_i_glide_emodel>  (150) 
-29.1742

>  <r_i_glide_energy>  (150) 
-25.6872

>  <r_i_glide_einternal>  (150) 
0.448683

>  <r_i_glide_intrahb_reward>  (150) 
-0

>  <i_i_glide_confnum>  (150) 
1

>  <i_i_glide_posenum>  (150) 
15

>  <r_i_glide_eff_state_penalty>  (150) 
0

>  <ligand_id>  (150) 
47

>  <original_smiles>  (150) 
CC12CC3OC1C(O)C1(C)C(CCC4C3=CC3(C)C(=O)CCC43)C1O2

>  <smiles>  (150) 
[H]OC1([H])C2([H])OC3([H])C4=C([H])C5(C([H])([H])[H])C(=O)C([H])([H])C([H])([H])C5([H])C4([H])C([H])([H])C([H])([H])C4([H])C([H])(OC2(C([H])([H])[H])C3([H])[H])C14C([H])([H])[H]

$$$$
47:0:2
     RDKit          3D

 53 58  0  0  1  0  0  0  0  0999 V2000
    7.5028   -2.6596   -1.5372 C   0  0  0  0  0  0  0  0  0  0  0  0
    6.1408   -2.5330   -0.8409 C   0  0  1  0  0  0  0  0  0  0  0  0
    6.2122   -2.7713    0.6688 C   0  0  0  0  0  0  0  0  0  0  0  0
    4.9416   -2.0368    1.0215 C   0  0  2  0  0  0  0  0  0  0  0  0
    4.9758   -0.7886    0.3673 O   0  0  0  0  0  0  0  0  0  0  0  0
    5.4063   -1.1370   -0.9593 C   0  0  2  0  0  0  0  0  0  0  0  0
    4.1537   -1.0211   -1.8910 C   0  0  1  0  0  0  0  0  0  0  0  0
    4.2787    0.0638   -2.7977 O   0  0  0  0  0  0  0  0  0  0  0  0
    3.7600   -2.2824   -2.6344 C   0  0  2  0  0  0  0  0  0  0  0  0
    3.4090   -2.0345   -4.0975 C   0  0  0  0  0  0  0  0  0  0  0  0
    3.0256   -3.4479   -1.9762 C   0  0  2  0  0  0  0  0  0  0  0  0
    2.3567   -3.4135   -0.5825 C   0  0  0  0  0  0  0  0  0  0  0  0
    2.8733   -4.3428    0.5463 C   0  0  0  0  0  0  0  0  0  0  0  0
    3.1361   -3.7082    1.9745 C   0  0  1  0  0  0  0  0  0  0  0  0
    3.9560   -2.4180    2.0980 C   0  0  0  0  0  0  0  0  0  0  0  0
    3.5189   -1.6500    3.1123 C   0  0  0  0  0  0  0  0  0  0  0  0
    2.3112   -2.2479    3.8022 C   0  0  2  0  0  0  0  0  0  0  0  0
    1.2005   -1.2288    4.1087 C   0  0  0  0  0  0  0  0  0  0  0  0
    2.6892   -3.0404    5.0537 C   0  0  0  0  0  0  0  0  0  0  0  0
    3.2823   -2.5772    6.0123 O   0  0  0  0  0  0  0  0  0  0  0  0
    2.1853   -4.4824    4.9956 C   0  0  0  0  0  0  0  0  0  0  0  0
    1.3820   -4.5470    3.6905 C   0  0  0  0  0  0  0  0  0  0  0  0
    1.8810   -3.3692    2.8309 C   0  0  2  0  0  0  0  0  0  0  0  0
    4.5060   -3.5489   -2.3483 C   0  0  2  0  0  0  0  0  0  0  0  0
    5.3330   -3.6461   -1.2244 O   0  0  0  0  0  0  0  0  0  0  0  0
    8.2131   -1.9041   -1.2104 H   0  0  0  0  0  0  0  0  0  0  0  0
    7.3820   -2.5737   -2.6155 H   0  0  0  0  0  0  0  0  0  0  0  0
    7.9760   -3.6237   -1.3483 H   0  0  0  0  0  0  0  0  0  0  0  0
    6.2047   -3.8294    0.9402 H   0  0  0  0  0  0  0  0  0  0  0  0
    7.0621   -2.2738    1.1285 H   0  0  0  0  0  0  0  0  0  0  0  0
    4.2285   -2.4294    0.3582 H   0  0  0  0  0  0  0  0  0  0  0  0
    6.1342   -0.3704   -1.2203 H   0  0  0  0  0  0  0  0  0  0  0  0
    3.2991   -0.7546   -1.2675 H   0  0  0  0  0  0  0  0  0  0  0  0
    3.4215    0.4747   -2.8890 H   0  0  0  0  0  0  0  0  0  0  0  0
    3.1091   -2.9622   -4.5807 H   0  0  0  0  0  0  0  0  0  0  0  0
    4.2738   -1.6411   -4.6363 H   0  0  0  0  0  0  0  0  0  0  0  0
    2.5799   -1.3267   -4.1880 H   0  0  0  0  0  0  0  0  0  0  0  0
    2.3498   -3.9511   -2.6709 H   0  0  0  0  0  0  0  0  0  0  0  0
    2.2870   -2.3911   -0.2323 H   0  0  0  0  0  0  0  0  0  0  0  0
    1.3304   -3.6847   -0.7953 H   0  0  0  0  0  0  0  0  0  0  0  0
    2.1795   -5.1740    0.6716 H   0  0  0  0  0  0  0  0  0  0  0  0
    3.7912   -4.8208    0.2175 H   0  0  0  0  0  0  0  0  0  0  0  0
    3.7355   -4.4413    2.5158 H   0  0  0  0  0  0  0  0  0  0  0  0
    3.8765   -0.6532    3.3110 H   0  0  0  0  0  0  0  0  0  0  0  0
    1.5470   -0.4625    4.7957 H   0  0  0  0  0  0  0  0  0  0  0  0
    0.3475   -1.7151    4.5771 H   0  0  0  0  0  0  0  0  0  0  0  0
    0.8430   -0.7364    3.2094 H   0  0  0  0  0  0  0  0  0  0  0  0
    3.0356   -5.1616    4.9617 H   0  0  0  0  0  0  0  0  0  0  0  0
    1.5715   -4.7325    5.8630 H   0  0  0  0  0  0  0  0  0  0  0  0
    1.4747   -5.5073    3.1779 H   0  0  0  0  0  0  0  0  0  0  0  0
    0.3251   -4.3992    3.9192 H   0  0  0  0  0  0  0  0  0  0  0  0
    1.0964   -2.9616    2.2003 H   0  0  0  0  0  0  0  0  0  0  0  0
    4.7941   -4.1940   -3.1780 H   0  0  0  0  0  0  0  0  0  0  0  0
  2  1  1  6
  1 26  1  0
  1 27  1  0
  1 28  1  0
  2  6  1  0
  2 25  1  0
  2  3  1  0
  3  4  1  0
  3 29  1  0
  3 30  1  0
  4 15  1  0
  4  5  1  0
  4 31  1  6
  5  6  1  0
  6  7  1  0
  6 32  1  6
  7  8  1  0
  7  9  1  0
  7 33  1  1
  8 34  1  0
  9 24  1  0
  9 10  1  6
  9 11  1  0
 10 35  1  0
 10 36  1  0
 10 37  1  0
 11 12  1  0
 11 24  1  0
 11 38  1  6
 12 13  1  0
 12 39  1  0
 12 40  1  0
 13 14  1  0
 13 41  1  0
 13 42  1  0
 14 23  1  0
 14 15  1  0
 14 43  1  1
 15 16  2  0
 16 17  1  0
 16 44  1  0
 17 23  1  0
 17 18  1  1
 17 19  1  0
 18 45  1  0
 18 46  1  0
 18 47  1  0
 19 20  2  0
 19 21  1  0
 21 22  1  0
 21 48  1  0
 21 49  1  0
 22 23  1  0
 22 50  1  0
 22 51  1  0
 23 52  1  6
 24 25  1  0
 24 53  1  6
M  END
>  <i_m_ct_stereo_status>  (151) 
1

>  <s_m_source_file>  (151) 
/var/tmp/pbs.5076255.sched01/tmpmqqk35eb/391x3533zq.sdf

>  <i_m_source_file_index>  (151) 
21

>  <i_lp_mmshare_version>  (151) 
48012

>  <i_f3d_flags>  (151) 
0

>  <s_epik_input>  (151) 
W0NIM11bQ0BdMTJbQ0BASF0zT1tDQEBIXShbQ0gyXTEpQz00W0NAQEhdKFtDQEBIXTVbQ0BAXShbQ0hdNCkoW0NIM10pQyg9TylbQ0gyXVtDSDJdNSlbQ0gyXVtDSDJdW0NASF02W0NAXShbQ0gzXSkoW0NASF02TzIpW0NAQEhdM1tPSF0=

>  <s_epik_cmdline>  (151) 
J2VwaWtfcHl0aG9uJywgJy1waHQnLCAnMi4wJywgJy1waCcsICc3LjAnLCAnLXRuJywgJzgnLCAnLW1hJywgJzIwMCcsICctaW1hZScsICc8aW5maWxlLm1hZT4nLCAnLW9tYWUnLCAnPG91dGZpbGUubWFlPic=

>  <r_lp_tautomer_probability>  (151) 
1

>  <r_epik_Ionization_Penalty>  (151) 
4.2603e-08

>  <r_epik_Ionization_Penalty_Charging>  (151) 
0

>  <r_epik_Ionization_Penalty_Neutral>  (151) 
4.2603e-08

>  <r_epik_State_Penalty>  (151) 
-0

>  <r_epik_Charging_Adjusted_Penalty>  (151) 
0

>  <i_epik_Tot_Q>  (151) 
0

>  <i_epik_Tot_abs_Q>  (151) 
0

>  <s_lp_Force_Field>  (151) 
OPLS3e

>  <r_lp_Energy>  (151) 
79.7966

>  <b_lp_Chiralities_Consistent>  (151) 
1

>  <s_lp_Variant>  (151) 
47:0-1

>  <s_i_glide_gridfile>  (151) 
pfpi4k_grid

>  <i_i_glide_lignum>  (151) 
21

>  <i_i_glide_rotatable_bonds>  (151) 
1

>  <r_i_docking_score>  (151) 
-2.52024

>  <r_i_glide_ligand_efficiency>  (151) 
-0.100809

>  <r_i_glide_ligand_efficiency_sa>  (151) 
-0.294769

>  <r_i_glide_ligand_efficiency_ln>  (151) 
-0.597371

>  <r_i_glide_gscore>  (151) 
-2.52024

>  <r_i_glide_lipo>  (151) 
-0.17513

>  <r_i_glide_hbond>  (151) 
0

>  <r_i_glide_metal>  (151) 
-0

>  <r_i_glide_rewards>  (151) 
-1.0606

>  <r_i_glide_evdw>  (151) 
-20.5807

>  <r_i_glide_ecoul>  (151) 
-1.70311

>  <r_i_glide_erotb>  (151) 
0

>  <r_i_glide_esite>  (151) 
0

>  <r_i_glide_emodel>  (151) 
-24.8002

>  <r_i_glide_energy>  (151) 
-22.2838

>  <r_i_glide_einternal>  (151) 
0.661709

>  <r_i_glide_intrahb_reward>  (151) 
-0

>  <i_i_glide_confnum>  (151) 
1

>  <i_i_glide_posenum>  (151) 
6

>  <r_i_glide_eff_state_penalty>  (151) 
0

>  <ligand_id>  (151) 
47

>  <original_smiles>  (151) 
CC12CC3OC1C(O)C1(C)C(CCC4C3=CC3(C)C(=O)CCC43)C1O2

>  <smiles>  (151) 
[H]OC1([H])C2([H])OC3([H])C4=C([H])C5(C([H])([H])[H])C(=O)C([H])([H])C([H])([H])C5([H])C4([H])C([H])([H])C([H])([H])C4([H])C([H])(OC2(C([H])([H])[H])C3([H])[H])C14C([H])([H])[H]

$$$$
48:0:0
     RDKit          3D

 64 70  0  0  1  0  0  0  0  0999 V2000
    5.3537   -3.7829   -0.8938 C   0  0  0  0  0  0  0  0  0  0  0  0
    4.2231   -2.8599   -0.4012 C   0  0  2  0  0  0  0  0  0  0  0  0
    4.6012   -1.3757   -0.5203 C   0  0  0  0  0  0  0  0  0  0  0  0
    5.4790   -0.8771    0.6463 C   0  0  0  0  0  0  0  0  0  0  0  0
    4.9491   -1.2442    2.0535 C   0  0  1  0  0  0  0  0  0  0  0  0
    3.8450   -0.3028    2.6457 C   0  0  1  0  0  0  0  0  0  0  0  0
    2.8542    0.3719    1.6872 C   0  0  0  0  0  0  0  0  0  0  0  0
    2.1023    1.5258    2.3725 C   0  0  0  0  0  0  0  0  0  0  0  0
    1.5252    1.2160    3.7778 C   0  0  1  0  0  0  0  0  0  0  0  0
    2.1655    2.1098    4.8728 C   0  0  0  0  0  0  0  0  0  0  0  0
    0.0104    1.2782    3.6866 C   0  0  0  0  0  0  0  0  0  0  0  0
   -0.7605    2.4872    3.6368 N   0  0  0  0  0  0  0  0  0  0  0  0
   -0.4372    3.7892    3.7336 C   0  0  0  0  0  0  0  0  0  0  0  0
   -1.4947    4.5971    3.6645 N   0  0  0  0  0  0  0  0  0  0  0  0
   -2.4779    3.6798    3.4019 C   0  0  0  0  0  0  0  0  0  0  0  0
   -2.1079    2.4196    3.4572 N   0  0  0  0  0  0  0  0  0  0  0  0
   -0.5604    0.0592    3.6813 C   0  0  0  0  0  0  0  0  0  0  0  0
    0.4702   -1.0446    3.7433 C   0  0  0  0  0  0  0  0  0  0  0  0
    1.7354   -0.2761    4.1991 C   0  0  1  0  0  0  0  0  0  0  0  0
    3.1141   -0.9089    3.8730 C   0  0  1  0  0  0  0  0  0  0  0  0
    2.9064   -2.3050    3.7270 O   0  0  0  0  0  0  0  0  0  0  0  0
    4.0761   -3.0259    3.5594 C   0  0  1  0  0  0  0  0  0  0  0  0
    3.8240   -4.3796    3.7891 O   0  0  0  0  0  0  0  0  0  0  0  0
    4.6041   -5.2729    3.0120 C   0  0  1  0  0  0  0  0  0  0  0  0
    4.8610   -6.5033    3.8918 C   0  0  0  0  0  0  0  0  0  0  0  0
    3.8133   -5.6679    1.7472 C   0  0  0  0  0  0  0  0  0  0  0  0
    2.9706   -4.5339    1.1482 C   0  0  0  0  0  0  0  0  0  0  0  0
    3.6463   -3.1572    1.0097 C   0  0  1  0  0  0  0  0  0  0  0  0
    4.6254   -2.7556    2.1390 C   0  0  1  0  0  0  0  0  0  0  0  0
    5.8509   -3.4588    1.9646 O   0  0  0  0  0  0  0  0  0  0  0  0
    5.9029   -4.7523    2.7498 O   0  0  0  0  0  0  0  0  0  0  0  0
    6.2928   -3.6127   -0.3694 H   0  0  0  0  0  0  0  0  0  0  0  0
    5.5453   -3.6121   -1.9533 H   0  0  0  0  0  0  0  0  0  0  0  0
    5.0860   -4.8325   -0.7890 H   0  0  0  0  0  0  0  0  0  0  0  0
    3.4111   -3.0154   -1.1046 H   0  0  0  0  0  0  0  0  0  0  0  0
    5.1187   -1.1999   -1.4601 H   0  0  0  0  0  0  0  0  0  0  0  0
    3.6870   -0.7903   -0.5935 H   0  0  0  0  0  0  0  0  0  0  0  0
    6.4772   -1.3054    0.5284 H   0  0  0  0  0  0  0  0  0  0  0  0
    5.6181    0.1991    0.5652 H   0  0  0  0  0  0  0  0  0  0  0  0
    5.7920   -1.0918    2.7245 H   0  0  0  0  0  0  0  0  0  0  0  0
    4.4034    0.5418    3.0407 H   0  0  0  0  0  0  0  0  0  0  0  0
    3.4014    0.8173    0.8575 H   0  0  0  0  0  0  0  0  0  0  0  0
    2.1376   -0.3503    1.2890 H   0  0  0  0  0  0  0  0  0  0  0  0
    2.7786    2.3740    2.4573 H   0  0  0  0  0  0  0  0  0  0  0  0
    1.3142    1.8667    1.6950 H   0  0  0  0  0  0  0  0  0  0  0  0
    3.1853    1.7639    5.0803 H   0  0  0  0  0  0  0  0  0  0  0  0
    1.6036    2.0231    5.8050 H   0  0  0  0  0  0  0  0  0  0  0  0
    2.2477    3.1619    4.6071 H   0  0  0  0  0  0  0  0  0  0  0  0
    0.5519    4.2064    3.8564 H   0  0  0  0  0  0  0  0  0  0  0  0
   -3.4944    4.0115    3.2086 H   0  0  0  0  0  0  0  0  0  0  0  0
   -1.6108   -0.1578    3.6266 H   0  0  0  0  0  0  0  0  0  0  0  0
    0.1898   -1.8368    4.4492 H   0  0  0  0  0  0  0  0  0  0  0  0
    0.5967   -1.4908    2.7522 H   0  0  0  0  0  0  0  0  0  0  0  0
    1.6568   -0.3076    5.2856 H   0  0  0  0  0  0  0  0  0  0  0  0
    3.7557   -0.7462    4.7475 H   0  0  0  0  0  0  0  0  0  0  0  0
    4.8133   -2.7230    4.3065 H   0  0  0  0  0  0  0  0  0  0  0  0
    5.4488   -6.2220    4.7636 H   0  0  0  0  0  0  0  0  0  0  0  0
    5.4223   -7.2644    3.3519 H   0  0  0  0  0  0  0  0  0  0  0  0
    3.9358   -6.9529    4.2514 H   0  0  0  0  0  0  0  0  0  0  0  0
    4.4840   -6.1055    1.0134 H   0  0  0  0  0  0  0  0  0  0  0  0
    3.1078   -6.4564    2.0122 H   0  0  0  0  0  0  0  0  0  0  0  0
    2.5613   -4.8431    0.1869 H   0  0  0  0  0  0  0  0  0  0  0  0
    2.1061   -4.3939    1.7997 H   0  0  0  0  0  0  0  0  0  0  0  0
    2.8085   -2.4722    1.1038 H   0  0  0  0  0  0  0  0  0  0  0  0
  1  2  1  0
  1 32  1  0
  1 33  1  0
  1 34  1  0
  2 28  1  0
  2  3  1  0
  2 35  1  6
  3  4  1  0
  3 36  1  0
  3 37  1  0
  4  5  1  0
  4 38  1  0
  4 39  1  0
  5 29  1  0
  5  6  1  0
  5 40  1  1
  6 20  1  0
  6  7  1  0
  6 41  1  1
  7  8  1  0
  7 42  1  0
  7 43  1  0
  8  9  1  0
  8 44  1  0
  8 45  1  0
  9 19  1  0
  9 10  1  1
  9 11  1  0
 10 46  1  0
 10 47  1  0
 10 48  1  0
 11 12  1  0
 11 17  2  0
 12 16  1  0
 12 13  1  0
 13 14  2  0
 13 49  1  0
 14 15  1  0
 15 16  2  0
 15 50  1  0
 17 18  1  0
 17 51  1  0
 18 19  1  0
 18 52  1  0
 18 53  1  0
 19 20  1  0
 19 54  1  1
 20 21  1  0
 20 55  1  1
 21 22  1  0
 22 29  1  0
 22 23  1  0
 22 56  1  1
 23 24  1  0
 24 31  1  0
 24 25  1  1
 24 26  1  0
 25 57  1  0
 25 58  1  0
 25 59  1  0
 26 27  1  0
 26 60  1  0
 26 61  1  0
 27 28  1  0
 27 62  1  0
 27 63  1  0
 28 29  1  0
 28 64  1  1
 29 30  1  6
 30 31  1  0
M  END
>  <i_m_ct_stereo_status>  (152) 
1

>  <s_m_source_file>  (152) 
/var/tmp/pbs.5076255.sched01/tmpmqqk35eb/391x3533zq.sdf

>  <i_m_source_file_index>  (152) 
22

>  <i_lp_mmshare_version>  (152) 
48012

>  <i_f3d_flags>  (152) 
0

>  <s_epik_input>  (152) 
W0NIMl0xW0NIMl1bQ0BASF0oW0NIM10pW0NASF0yW0NIMl1bQ0gyXVtDQEBdKFtDSDNdKShPTzMpT1tDQEBIXTRPW0NAQEhdKFtDQEhdNVtDQEhdMVtDQEBdMjM0KVtDQEhdNltDQEBdKFtDSDNdKShbQ0gyXVtDSDJdNSlDKD1bQ0hdW0NIMl02KW43W2NIXW5bY0hdbjc=

>  <s_epik_cmdline>  (152) 
J2VwaWtfcHl0aG9uJywgJy1waHQnLCAnMi4wJywgJy1waCcsICc3LjAnLCAnLXRuJywgJzgnLCAnLW1hJywgJzIwMCcsICctaW1hZScsICc8aW5maWxlLm1hZT4nLCAnLW9tYWUnLCAnPG91dGZpbGUubWFlPic=

>  <r_lp_tautomer_probability>  (152) 
1

>  <r_epik_Ionization_Penalty>  (152) 
9.77455e-05

>  <r_epik_Ionization_Penalty_Charging>  (152) 
0

>  <r_epik_Ionization_Penalty_Neutral>  (152) 
9.77455e-05

>  <r_epik_State_Penalty>  (152) 
-0

>  <r_epik_Charging_Adjusted_Penalty>  (152) 
0

>  <i_epik_Tot_Q>  (152) 
0

>  <i_epik_Tot_abs_Q>  (152) 
0

>  <s_epik_Chemistry_Notes>  (152) 
This compound contains an acetal/aminal-like group ( X-CH(R)-Y where X, Y are N, S, or O) that may be acid/base labile, releasing an aldehyde.

>  <s_lp_Force_Field>  (152) 
OPLS3e

>  <r_lp_Energy>  (152) 
60.0496

>  <b_lp_Chiralities_Consistent>  (152) 
1

>  <s_lp_Variant>  (152) 
48:0-1

>  <s_i_glide_gridfile>  (152) 
pfpi4k_grid

>  <i_i_glide_lignum>  (152) 
22

>  <i_i_glide_rotatable_bonds>  (152) 
1

>  <r_i_docking_score>  (152) 
-3.06038

>  <r_i_glide_ligand_efficiency>  (152) 
-0.0987221

>  <r_i_glide_ligand_efficiency_sa>  (152) 
-0.310124

>  <r_i_glide_ligand_efficiency_ln>  (152) 
-0.690211

>  <r_i_glide_gscore>  (152) 
-3.06038

>  <r_i_glide_lipo>  (152) 
-0.451624

>  <r_i_glide_hbond>  (152) 
-0.16

>  <r_i_glide_metal>  (152) 
-0

>  <r_i_glide_rewards>  (152) 
-0.495059

>  <r_i_glide_evdw>  (152) 
-30.3674

>  <r_i_glide_ecoul>  (152) 
-2.27957

>  <r_i_glide_erotb>  (152) 
0.108628

>  <r_i_glide_esite>  (152) 
-0.202023

>  <r_i_glide_emodel>  (152) 
-38.0415

>  <r_i_glide_energy>  (152) 
-32.647

>  <r_i_glide_einternal>  (152) 
0.882917

>  <r_i_glide_intrahb_reward>  (152) 
-0

>  <i_i_glide_confnum>  (152) 
2

>  <i_i_glide_posenum>  (152) 
1

>  <r_i_glide_eff_state_penalty>  (152) 
0

>  <ligand_id>  (152) 
48

>  <original_smiles>  (152) 
CC1CCC2C3CCC4(C)C(n5cncn5)=CCC4C3OC3OC4(C)CCC1C32OO4

>  <smiles>  (152) 
[H]C1=C(n2nc([H])nc2[H])C2(C([H])([H])[H])C([H])([H])C([H])([H])C3([H])C([H])(OC4([H])OC5(C([H])([H])[H])OOC46C([H])(C([H])([H])C5([H])[H])C([H])(C([H])([H])[H])C([H])([H])C([H])([H])C36[H])C2([H])C1([H])[H]

$$$$
48:0:1
     RDKit          3D

 64 70  0  0  1  0  0  0  0  0999 V2000
    5.2031   -3.6422   -1.5438 C   0  0  0  0  0  0  0  0  0  0  0  0
    4.1864   -2.6688   -0.9162 C   0  0  2  0  0  0  0  0  0  0  0  0
    4.7580   -1.2465   -0.8059 C   0  0  0  0  0  0  0  0  0  0  0  0
    5.6679   -1.0423    0.4274 C   0  0  0  0  0  0  0  0  0  0  0  0
    5.0676   -1.5513    1.7650 C   0  0  1  0  0  0  0  0  0  0  0  0
    4.0797   -0.5729    2.4952 C   0  0  1  0  0  0  0  0  0  0  0  0
    3.1939    0.3515    1.6431 C   0  0  0  0  0  0  0  0  0  0  0  0
    2.5739    1.4759    2.4970 C   0  0  0  0  0  0  0  0  0  0  0  0
    1.9219    1.0343    3.8338 C   0  0  1  0  0  0  0  0  0  0  0  0
    2.6036    1.7103    5.0425 C   0  0  0  0  0  0  0  0  0  0  0  0
    0.4168    1.2738    3.7377 C   0  0  0  0  0  0  0  0  0  0  0  0
   -0.2329    2.5283    3.8527 N   0  0  0  0  0  0  0  0  0  0  0  0
   -1.5245    2.8888    3.7809 C   0  0  0  0  0  0  0  0  0  0  0  0
   -1.7395    4.1869    3.9437 N   0  0  0  0  0  0  0  0  0  0  0  0
   -0.4447    4.6085    4.0695 C   0  0  0  0  0  0  0  0  0  0  0  0
    0.4851    3.6570    4.0579 N   0  0  0  0  0  0  0  0  0  0  0  0
   -0.2804    0.1534    3.5580 C   0  0  0  0  0  0  0  0  0  0  0  0
    0.6190   -1.0499    3.4685 C   0  0  0  0  0  0  0  0  0  0  0  0
    1.9575   -0.5165    4.0370 C   0  0  1  0  0  0  0  0  0  0  0  0
    3.2525   -1.2636    3.6101 C   0  0  1  0  0  0  0  0  0  0  0  0
    2.8711   -2.5843    3.2540 O   0  0  0  0  0  0  0  0  0  0  0  0
    3.9425   -3.4209    2.9805 C   0  0  1  0  0  0  0  0  0  0  0  0
    3.5244   -4.7493    2.9972 O   0  0  0  0  0  0  0  0  0  0  0  0
    4.1932   -5.6084    2.0875 C   0  0  1  0  0  0  0  0  0  0  0  0
    4.2773   -6.9826    2.7706 C   0  0  0  0  0  0  0  0  0  0  0  0
    3.3847   -5.6971    0.7780 C   0  0  0  0  0  0  0  0  0  0  0  0
    2.7082   -4.3868    0.3613 C   0  0  0  0  0  0  0  0  0  0  0  0
    3.5557   -3.1035    0.4355 C   0  0  1  0  0  0  0  0  0  0  0  0
    4.5530   -3.0068    1.6184 C   0  0  1  0  0  0  0  0  0  0  0  0
    5.6969   -3.8186    1.3529 O   0  0  0  0  0  0  0  0  0  0  0  0
    5.5530   -5.2334    1.9026 O   0  0  0  0  0  0  0  0  0  0  0  0
    6.1457   -3.6743   -0.9978 H   0  0  0  0  0  0  0  0  0  0  0  0
    5.4381   -3.3386   -2.5646 H   0  0  0  0  0  0  0  0  0  0  0  0
    4.8040   -4.6542   -1.5982 H   0  0  0  0  0  0  0  0  0  0  0  0
    3.3682   -2.6086   -1.6322 H   0  0  0  0  0  0  0  0  0  0  0  0
    5.3071   -0.9918   -1.7108 H   0  0  0  0  0  0  0  0  0  0  0  0
    3.9235   -0.5527   -0.7816 H   0  0  0  0  0  0  0  0  0  0  0  0
    6.6054   -1.5737    0.2438 H   0  0  0  0  0  0  0  0  0  0  0  0
    5.9442    0.0106    0.5099 H   0  0  0  0  0  0  0  0  0  0  0  0
    5.9144   -1.6115    2.4490 H   0  0  0  0  0  0  0  0  0  0  0  0
    4.7339    0.1278    3.0130 H   0  0  0  0  0  0  0  0  0  0  0  0
    3.7936    0.8468    0.8793 H   0  0  0  0  0  0  0  0  0  0  0  0
    2.4061   -0.2107    1.1356 H   0  0  0  0  0  0  0  0  0  0  0  0
    3.3539    2.2049    2.7163 H   0  0  0  0  0  0  0  0  0  0  0  0
    1.8573    2.0185    1.8738 H   0  0  0  0  0  0  0  0  0  0  0  0
    3.6194    1.3459    5.1765 H   0  0  0  0  0  0  0  0  0  0  0  0
    2.0569    1.5151    5.9625 H   0  0  0  0  0  0  0  0  0  0  0  0
    2.6861    2.7889    4.9351 H   0  0  0  0  0  0  0  0  0  0  0  0
   -2.3302    2.1857    3.6202 H   0  0  0  0  0  0  0  0  0  0  0  0
   -0.1781    5.6480    4.2057 H   0  0  0  0  0  0  0  0  0  0  0  0
   -1.3476    0.0782    3.4566 H   0  0  0  0  0  0  0  0  0  0  0  0
    0.2316   -1.8958    4.0437 H   0  0  0  0  0  0  0  0  0  0  0  0
    0.6982   -1.3456    2.4197 H   0  0  0  0  0  0  0  0  0  0  0  0
    1.8612   -0.6963    5.1090 H   0  0  0  0  0  0  0  0  0  0  0  0
    3.8893   -1.3263    4.4965 H   0  0  0  0  0  0  0  0  0  0  0  0
    4.6890   -3.3320    3.7736 H   0  0  0  0  0  0  0  0  0  0  0  0
    4.8787   -6.9170    3.6789 H   0  0  0  0  0  0  0  0  0  0  0  0
    4.7466   -7.7216    2.1191 H   0  0  0  0  0  0  0  0  0  0  0  0
    3.2942   -7.3586    3.0551 H   0  0  0  0  0  0  0  0  0  0  0  0
    4.0032   -6.0997   -0.0193 H   0  0  0  0  0  0  0  0  0  0  0  0
    2.5797   -6.4191    0.9158 H   0  0  0  0  0  0  0  0  0  0  0  0
    2.2758   -4.4892   -0.6331 H   0  0  0  0  0  0  0  0  0  0  0  0
    1.8604   -4.2383    1.0298 H   0  0  0  0  0  0  0  0  0  0  0  0
    2.8081   -2.3384    0.6314 H   0  0  0  0  0  0  0  0  0  0  0  0
  1  2  1  0
  1 32  1  0
  1 33  1  0
  1 34  1  0
  2 28  1  0
  2  3  1  0
  2 35  1  6
  3  4  1  0
  3 36  1  0
  3 37  1  0
  4  5  1  0
  4 38  1  0
  4 39  1  0
  5 29  1  0
  5  6  1  0
  5 40  1  1
  6 20  1  0
  6  7  1  0
  6 41  1  1
  7  8  1  0
  7 42  1  0
  7 43  1  0
  8  9  1  0
  8 44  1  0
  8 45  1  0
  9 19  1  0
  9 10  1  1
  9 11  1  0
 10 46  1  0
 10 47  1  0
 10 48  1  0
 11 12  1  0
 11 17  2  0
 12 16  1  0
 12 13  1  0
 13 14  2  0
 13 49  1  0
 14 15  1  0
 15 16  2  0
 15 50  1  0
 17 18  1  0
 17 51  1  0
 18 19  1  0
 18 52  1  0
 18 53  1  0
 19 20  1  0
 19 54  1  1
 20 21  1  0
 20 55  1  1
 21 22  1  0
 22 29  1  0
 22 23  1  0
 22 56  1  1
 23 24  1  0
 24 31  1  0
 24 25  1  1
 24 26  1  0
 25 57  1  0
 25 58  1  0
 25 59  1  0
 26 27  1  0
 26 60  1  0
 26 61  1  0
 27 28  1  0
 27 62  1  0
 27 63  1  0
 28 29  1  0
 28 64  1  1
 29 30  1  6
 30 31  1  0
M  END
>  <i_m_ct_stereo_status>  (153) 
1

>  <s_m_source_file>  (153) 
/var/tmp/pbs.5076255.sched01/tmpmqqk35eb/391x3533zq.sdf

>  <i_m_source_file_index>  (153) 
22

>  <i_lp_mmshare_version>  (153) 
48012

>  <i_f3d_flags>  (153) 
0

>  <s_epik_input>  (153) 
W0NIMl0xW0NIMl1bQ0BASF0oW0NIM10pW0NASF0yW0NIMl1bQ0gyXVtDQEBdKFtDSDNdKShPTzMpT1tDQEBIXTRPW0NAQEhdKFtDQEhdNVtDQEhdMVtDQEBdMjM0KVtDQEhdNltDQEBdKFtDSDNdKShbQ0gyXVtDSDJdNSlDKD1bQ0hdW0NIMl02KW43W2NIXW5bY0hdbjc=

>  <s_epik_cmdline>  (153) 
J2VwaWtfcHl0aG9uJywgJy1waHQnLCAnMi4wJywgJy1waCcsICc3LjAnLCAnLXRuJywgJzgnLCAnLW1hJywgJzIwMCcsICctaW1hZScsICc8aW5maWxlLm1hZT4nLCAnLW9tYWUnLCAnPG91dGZpbGUubWFlPic=

>  <r_lp_tautomer_probability>  (153) 
1

>  <r_epik_Ionization_Penalty>  (153) 
9.77455e-05

>  <r_epik_Ionization_Penalty_Charging>  (153) 
0

>  <r_epik_Ionization_Penalty_Neutral>  (153) 
9.77455e-05

>  <r_epik_State_Penalty>  (153) 
-0

>  <r_epik_Charging_Adjusted_Penalty>  (153) 
0

>  <i_epik_Tot_Q>  (153) 
0

>  <i_epik_Tot_abs_Q>  (153) 
0

>  <s_epik_Chemistry_Notes>  (153) 
This compound contains an acetal/aminal-like group ( X-CH(R)-Y where X, Y are N, S, or O) that may be acid/base labile, releasing an aldehyde.

>  <s_lp_Force_Field>  (153) 
OPLS3e

>  <r_lp_Energy>  (153) 
60.0496

>  <b_lp_Chiralities_Consistent>  (153) 
1

>  <s_lp_Variant>  (153) 
48:0-1

>  <s_i_glide_gridfile>  (153) 
pfpi4k_grid

>  <i_i_glide_lignum>  (153) 
22

>  <i_i_glide_rotatable_bonds>  (153) 
1

>  <r_i_docking_score>  (153) 
-3.00541

>  <r_i_glide_ligand_efficiency>  (153) 
-0.0969486

>  <r_i_glide_ligand_efficiency_sa>  (153) 
-0.304553

>  <r_i_glide_ligand_efficiency_ln>  (153) 
-0.677812

>  <r_i_glide_gscore>  (153) 
-3.00541

>  <r_i_glide_lipo>  (153) 
-0.399077

>  <r_i_glide_hbond>  (153) 
-0.0662419

>  <r_i_glide_metal>  (153) 
-0

>  <r_i_glide_rewards>  (153) 
-0.510109

>  <r_i_glide_evdw>  (153) 
-32.112

>  <r_i_glide_ecoul>  (153) 
-2.3837

>  <r_i_glide_erotb>  (153) 
0.108628

>  <r_i_glide_esite>  (153) 
-0.175452

>  <r_i_glide_emodel>  (153) 
-40.4375

>  <r_i_glide_energy>  (153) 
-34.4957

>  <r_i_glide_einternal>  (153) 
0.0479318

>  <r_i_glide_intrahb_reward>  (153) 
-0

>  <i_i_glide_confnum>  (153) 
2

>  <i_i_glide_posenum>  (153) 
32

>  <r_i_glide_eff_state_penalty>  (153) 
0

>  <ligand_id>  (153) 
48

>  <original_smiles>  (153) 
CC1CCC2C3CCC4(C)C(n5cncn5)=CCC4C3OC3OC4(C)CCC1C32OO4

>  <smiles>  (153) 
[H]C1=C(n2nc([H])nc2[H])C2(C([H])([H])[H])C([H])([H])C([H])([H])C3([H])C([H])(OC4([H])OC5(C([H])([H])[H])OOC46C([H])(C([H])([H])C5([H])[H])C([H])(C([H])([H])[H])C([H])([H])C([H])([H])C36[H])C2([H])C1([H])[H]

$$$$
48:0:2
     RDKit          3D

 64 70  0  0  1  0  0  0  0  0999 V2000
    7.6075   -3.2363   -0.0770 C   0  0  0  0  0  0  0  0  0  0  0  0
    6.6942   -3.5095    1.1337 C   0  0  2  0  0  0  0  0  0  0  0  0
    6.9628   -4.8915    1.7546 C   0  0  0  0  0  0  0  0  0  0  0  0
    6.2519   -6.0462    1.0296 C   0  0  0  0  0  0  0  0  0  0  0  0
    4.7494   -5.7995    0.7495 C   0  0  1  0  0  0  0  0  0  0  0  0
    3.7702   -6.1159    1.9344 C   0  0  1  0  0  0  0  0  0  0  0  0
    4.2546   -5.8903    3.3790 C   0  0  0  0  0  0  0  0  0  0  0  0
    3.3208   -6.5849    4.3910 C   0  0  0  0  0  0  0  0  0  0  0  0
    1.7971   -6.3440    4.1888 C   0  0  1  0  0  0  0  0  0  0  0  0
    1.0411   -7.6679    3.9186 C   0  0  0  0  0  0  0  0  0  0  0  0
    1.2669   -5.5473    5.3733 C   0  0  0  0  0  0  0  0  0  0  0  0
    0.9981   -6.1109    6.6443 N   0  0  0  0  0  0  0  0  0  0  0  0
    1.2117   -7.3416    7.1502 C   0  0  0  0  0  0  0  0  0  0  0  0
    0.7992   -7.4865    8.4047 N   0  0  0  0  0  0  0  0  0  0  0  0
    0.3649   -6.2231    8.6533 C   0  0  0  0  0  0  0  0  0  0  0  0
    0.4349   -5.3630    7.6367 N   0  0  0  0  0  0  0  0  0  0  0  0
    1.0520   -4.2562    5.0811 C   0  0  0  0  0  0  0  0  0  0  0  0
    1.4130   -3.9421    3.6492 C   0  0  0  0  0  0  0  0  0  0  0  0
    1.5010   -5.3588    3.0157 C   0  0  1  0  0  0  0  0  0  0  0  0
    2.3535   -5.5138    1.7263 C   0  0  1  0  0  0  0  0  0  0  0  0
    2.4000   -4.2340    1.1151 O   0  0  0  0  0  0  0  0  0  0  0  0
    3.0129   -4.2378   -0.1287 C   0  0  1  0  0  0  0  0  0  0  0  0
    2.6993   -3.0724   -0.8247 O   0  0  0  0  0  0  0  0  0  0  0  0
    3.7222   -2.5608   -1.6651 C   0  0  1  0  0  0  0  0  0  0  0  0
    3.0223   -1.9183   -2.8758 C   0  0  0  0  0  0  0  0  0  0  0  0
    4.5598   -1.5188   -0.8935 C   0  0  0  0  0  0  0  0  0  0  0  0
    4.7714   -1.8487    0.5901 C   0  0  0  0  0  0  0  0  0  0  0  0
    5.1736   -3.2951    0.9328 C   0  0  1  0  0  0  0  0  0  0  0  0
    4.5356   -4.4146    0.0788 C   0  0  1  0  0  0  0  0  0  0  0  0
    5.1762   -4.4663   -1.1886 O   0  0  0  0  0  0  0  0  0  0  0  0
    4.5132   -3.5875   -2.2400 O   0  0  0  0  0  0  0  0  0  0  0  0
    7.5124   -4.0005   -0.8404 H   0  0  0  0  0  0  0  0  0  0  0  0
    8.6530   -3.2268    0.2322 H   0  0  0  0  0  0  0  0  0  0  0  0
    7.3955   -2.2703   -0.5297 H   0  0  0  0  0  0  0  0  0  0  0  0
    6.9992   -2.7764    1.8728 H   0  0  0  0  0  0  0  0  0  0  0  0
    8.0333   -5.0851    1.7876 H   0  0  0  0  0  0  0  0  0  0  0  0
    6.6531   -4.8632    2.7963 H   0  0  0  0  0  0  0  0  0  0  0  0
    6.7654   -6.1986    0.0796 H   0  0  0  0  0  0  0  0  0  0  0  0
    6.3881   -6.9756    1.5869 H   0  0  0  0  0  0  0  0  0  0  0  0
    4.4748   -6.5288   -0.0128 H   0  0  0  0  0  0  0  0  0  0  0  0
    3.6357   -7.1970    1.8892 H   0  0  0  0  0  0  0  0  0  0  0  0
    5.2453   -6.3221    3.5217 H   0  0  0  0  0  0  0  0  0  0  0  0
    4.3267   -4.8216    3.6025 H   0  0  0  0  0  0  0  0  0  0  0  0
    3.5191   -7.6555    4.3504 H   0  0  0  0  0  0  0  0  0  0  0  0
    3.6328   -6.2785    5.3922 H   0  0  0  0  0  0  0  0  0  0  0  0
    1.2935   -8.0566    2.9322 H   0  0  0  0  0  0  0  0  0  0  0  0
   -0.0401   -7.5096    3.9337 H   0  0  0  0  0  0  0  0  0  0  0  0
    1.2636   -8.4665    4.6232 H   0  0  0  0  0  0  0  0  0  0  0  0
    1.7008   -8.1477    6.6195 H   0  0  0  0  0  0  0  0  0  0  0  0
   -0.0124   -5.9439    9.6270 H   0  0  0  0  0  0  0  0  0  0  0  0
    0.6799   -3.4925    5.7423 H   0  0  0  0  0  0  0  0  0  0  0  0
    0.6500   -3.3226    3.1652 H   0  0  0  0  0  0  0  0  0  0  0  0
    2.3624   -3.4027    3.6177 H   0  0  0  0  0  0  0  0  0  0  0  0
    0.4741   -5.5549    2.7036 H   0  0  0  0  0  0  0  0  0  0  0  0
    1.8069   -6.1931    1.0606 H   0  0  0  0  0  0  0  0  0  0  0  0
    2.6071   -5.0604   -0.7173 H   0  0  0  0  0  0  0  0  0  0  0  0
    2.4536   -2.6705   -3.4260 H   0  0  0  0  0  0  0  0  0  0  0  0
    3.7441   -1.4738   -3.5618 H   0  0  0  0  0  0  0  0  0  0  0  0
    2.3279   -1.1406   -2.5668 H   0  0  0  0  0  0  0  0  0  0  0  0
    5.5008   -1.3456   -1.4064 H   0  0  0  0  0  0  0  0  0  0  0  0
    4.0324   -0.5677   -0.9135 H   0  0  0  0  0  0  0  0  0  0  0  0
    5.4827   -1.1464    1.0280 H   0  0  0  0  0  0  0  0  0  0  0  0
    3.8301   -1.6459    1.1037 H   0  0  0  0  0  0  0  0  0  0  0  0
    4.7534   -3.4253    1.9265 H   0  0  0  0  0  0  0  0  0  0  0  0
  1  2  1  0
  1 32  1  0
  1 33  1  0
  1 34  1  0
  2 28  1  0
  2  3  1  0
  2 35  1  1
  3  4  1  0
  3 36  1  0
  3 37  1  0
  4  5  1  0
  4 38  1  0
  4 39  1  0
  5 29  1  0
  5  6  1  0
  5 40  1  6
  6 20  1  0
  6  7  1  0
  6 41  1  1
  7  8  1  0
  7 42  1  0
  7 43  1  0
  8  9  1  0
  8 44  1  0
  8 45  1  0
  9 19  1  0
  9 10  1  6
  9 11  1  0
 10 46  1  0
 10 47  1  0
 10 48  1  0
 11 12  1  0
 11 17  2  0
 12 16  1  0
 12 13  1  0
 13 14  2  0
 13 49  1  0
 14 15  1  0
 15 16  2  0
 15 50  1  0
 17 18  1  0
 17 51  1  0
 18 19  1  0
 18 52  1  0
 18 53  1  0
 19 20  1  0
 19 54  1  6
 20 21  1  0
 20 55  1  6
 21 22  1  0
 22 29  1  0
 22 23  1  0
 22 56  1  6
 23 24  1  0
 24 31  1  0
 24 25  1  6
 24 26  1  0
 25 57  1  0
 25 58  1  0
 25 59  1  0
 26 27  1  0
 26 60  1  0
 26 61  1  0
 27 28  1  0
 27 62  1  0
 27 63  1  0
 28 29  1  0
 28 64  1  1
 29 30  1  6
 30 31  1  0
M  END
>  <i_m_ct_stereo_status>  (154) 
1

>  <s_m_source_file>  (154) 
/var/tmp/pbs.5076255.sched01/tmpmqqk35eb/391x3533zq.sdf

>  <i_m_source_file_index>  (154) 
22

>  <i_lp_mmshare_version>  (154) 
48012

>  <i_f3d_flags>  (154) 
0

>  <s_epik_input>  (154) 
W0NIMl0xW0NIMl1bQ0BASF0oW0NIM10pW0NASF0yW0NIMl1bQ0gyXVtDQEBdKFtDSDNdKShPTzMpT1tDQEBIXTRPW0NAQEhdKFtDQEhdNVtDQEhdMVtDQEBdMjM0KVtDQEhdNltDQEBdKFtDSDNdKShbQ0gyXVtDSDJdNSlDKD1bQ0hdW0NIMl02KW43W2NIXW5bY0hdbjc=

>  <s_epik_cmdline>  (154) 
J2VwaWtfcHl0aG9uJywgJy1waHQnLCAnMi4wJywgJy1waCcsICc3LjAnLCAnLXRuJywgJzgnLCAnLW1hJywgJzIwMCcsICctaW1hZScsICc8aW5maWxlLm1hZT4nLCAnLW9tYWUnLCAnPG91dGZpbGUubWFlPic=

>  <r_lp_tautomer_probability>  (154) 
1

>  <r_epik_Ionization_Penalty>  (154) 
9.77455e-05

>  <r_epik_Ionization_Penalty_Charging>  (154) 
0

>  <r_epik_Ionization_Penalty_Neutral>  (154) 
9.77455e-05

>  <r_epik_State_Penalty>  (154) 
-0

>  <r_epik_Charging_Adjusted_Penalty>  (154) 
0

>  <i_epik_Tot_Q>  (154) 
0

>  <i_epik_Tot_abs_Q>  (154) 
0

>  <s_epik_Chemistry_Notes>  (154) 
This compound contains an acetal/aminal-like group ( X-CH(R)-Y where X, Y are N, S, or O) that may be acid/base labile, releasing an aldehyde.

>  <s_lp_Force_Field>  (154) 
OPLS3e

>  <r_lp_Energy>  (154) 
60.0496

>  <b_lp_Chiralities_Consistent>  (154) 
1

>  <s_lp_Variant>  (154) 
48:0-1

>  <s_i_glide_gridfile>  (154) 
pfpi4k_grid

>  <i_i_glide_lignum>  (154) 
22

>  <i_i_glide_rotatable_bonds>  (154) 
1

>  <r_i_docking_score>  (154) 
-2.34112

>  <r_i_glide_ligand_efficiency>  (154) 
-0.0755201

>  <r_i_glide_ligand_efficiency_sa>  (154) 
-0.237237

>  <r_i_glide_ligand_efficiency_ln>  (154) 
-0.527995

>  <r_i_glide_gscore>  (154) 
-2.34112

>  <r_i_glide_lipo>  (154) 
-0.586859

>  <r_i_glide_hbond>  (154) 
0

>  <r_i_glide_metal>  (154) 
-0

>  <r_i_glide_rewards>  (154) 
-0.494069

>  <r_i_glide_evdw>  (154) 
-28.7421

>  <r_i_glide_ecoul>  (154) 
1.0317

>  <r_i_glide_erotb>  (154) 
0.108628

>  <r_i_glide_esite>  (154) 
-0.0864719

>  <r_i_glide_emodel>  (154) 
-32.0388

>  <r_i_glide_energy>  (154) 
-27.7104

>  <r_i_glide_einternal>  (154) 
0.256569

>  <r_i_glide_intrahb_reward>  (154) 
-0

>  <i_i_glide_confnum>  (154) 
3

>  <i_i_glide_posenum>  (154) 
36

>  <r_i_glide_eff_state_penalty>  (154) 
0

>  <ligand_id>  (154) 
48

>  <original_smiles>  (154) 
CC1CCC2C3CCC4(C)C(n5cncn5)=CCC4C3OC3OC4(C)CCC1C32OO4

>  <smiles>  (154) 
[H]C1=C(n2nc([H])nc2[H])C2(C([H])([H])[H])C([H])([H])C([H])([H])C3([H])C([H])(OC4([H])OC5(C([H])([H])[H])OOC46C([H])(C([H])([H])C5([H])[H])C([H])(C([H])([H])[H])C([H])([H])C([H])([H])C36[H])C2([H])C1([H])[H]

$$$$
49:0:0
     RDKit          3D

 40 44  0  0  1  0  0  0  0  0999 V2000
    6.3749   -1.4806    1.1252 C   0  0  0  0  0  0  0  0  0  0  0  0
    5.9259   -1.0553   -0.1117 N   0  0  0  0  0  0  0  0  0  0  0  0
    5.0112   -1.9567   -0.2502 C   0  0  0  0  0  0  0  0  0  0  0  0
    4.1417   -2.0320   -1.3936 C   0  0  0  0  0  0  0  0  0  0  0  0
    4.0668   -1.0506   -2.7978 S   0  0  0  0  0  0  0  0  0  0  0  0
    2.7578   -2.0779   -3.3685 C   0  0  0  0  0  0  0  0  0  0  0  0
    2.3738   -3.1117   -2.5184 C   0  0  0  0  0  0  0  0  0  0  0  0
    3.1952   -3.0850   -1.3569 C   0  0  0  0  0  0  0  0  0  0  0  0
    3.0790   -3.9601   -0.3393 N   0  0  0  0  0  0  0  0  0  0  0  0
    3.9169   -3.8637    0.7104 C   0  0  0  0  0  0  0  0  0  0  0  0
    3.7923   -4.8250    1.8938 C   0  0  0  0  0  0  0  0  0  0  0  0
    2.4170   -5.2523    2.1630 N   0  0  0  0  0  0  0  0  0  0  0  0
    2.0518   -6.3511    1.2644 C   0  0  0  0  0  0  0  0  0  0  0  0
    0.5796   -6.7066    1.4263 C   0  0  0  0  0  0  0  0  0  0  0  0
    0.3029   -7.1433    2.8723 C   0  0  0  0  0  0  0  0  0  0  0  0
    0.8107   -6.0669    3.8607 C   0  0  0  0  0  0  0  0  0  0  0  0
    2.2869   -5.7167    3.5449 C   0  0  0  0  0  0  0  0  0  0  0  0
   -1.0719   -7.3235    3.0322 O   0  0  0  0  0  0  0  0  0  0  0  0
   -1.3048   -8.6344    2.5381 C   0  0  0  0  0  0  0  0  0  0  0  0
   -0.0040   -9.3615    2.8969 C   0  0  0  0  0  0  0  0  0  0  0  0
    0.9442   -8.3365    3.1229 O   0  0  0  0  0  0  0  0  0  0  0  0
    4.8565   -2.8474    0.6941 N   0  0  0  0  0  0  0  0  0  0  0  0
    5.7717   -2.5727    1.6618 N   0  0  0  0  0  0  0  0  0  0  0  0
    7.1814   -0.9844    1.6425 H   0  0  0  0  0  0  0  0  0  0  0  0
    2.2830   -1.8591   -4.3158 H   0  0  0  0  0  0  0  0  0  0  0  0
    1.5942   -3.8284   -2.6819 H   0  0  0  0  0  0  0  0  0  0  0  0
    4.4228   -5.6945    1.7197 H   0  0  0  0  0  0  0  0  0  0  0  0
    4.2073   -4.3449    2.7783 H   0  0  0  0  0  0  0  0  0  0  0  0
    2.1693   -6.0986    0.2140 H   0  0  0  0  0  0  0  0  0  0  0  0
    2.6706   -7.2241    1.4486 H   0  0  0  0  0  0  0  0  0  0  0  0
   -0.0743   -5.8610    1.2000 H   0  0  0  0  0  0  0  0  0  0  0  0
    0.3548   -7.4872    0.7016 H   0  0  0  0  0  0  0  0  0  0  0  0
    0.2065   -5.1674    3.7626 H   0  0  0  0  0  0  0  0  0  0  0  0
    0.6895   -6.4204    4.8870 H   0  0  0  0  0  0  0  0  0  0  0  0
    2.9315   -6.5782    3.7277 H   0  0  0  0  0  0  0  0  0  0  0  0
    2.6089   -4.9201    4.2230 H   0  0  0  0  0  0  0  0  0  0  0  0
   -2.1970   -9.1022    2.9560 H   0  0  0  0  0  0  0  0  0  0  0  0
   -1.4349   -8.5902    1.4562 H   0  0  0  0  0  0  0  0  0  0  0  0
   -0.1217   -9.9495    3.8054 H   0  0  0  0  0  0  0  0  0  0  0  0
    0.3392  -10.0172    2.0985 H   0  0  0  0  0  0  0  0  0  0  0  0
  1 23  2  0
  1  2  1  0
  1 24  1  0
  2  3  2  0
  3 22  1  0
  3  4  1  0
  4  8  2  0
  4  5  1  0
  5  6  1  0
  6  7  2  0
  6 25  1  0
  7  8  1  0
  7 26  1  0
  8  9  1  0
  9 10  2  0
 10 11  1  0
 10 22  1  0
 11 12  1  0
 11 27  1  0
 11 28  1  0
 12 17  1  0
 12 13  1  0
 13 14  1  0
 13 29  1  0
 13 30  1  0
 14 15  1  0
 14 31  1  0
 14 32  1  0
 15 21  1  0
 15 16  1  0
 15 18  1  0
 16 17  1  0
 16 33  1  0
 16 34  1  0
 17 35  1  0
 17 36  1  0
 18 19  1  0
 19 20  1  0
 19 37  1  0
 19 38  1  0
 20 21  1  0
 20 39  1  0
 20 40  1  0
 22 23  1  0
M  END
>  <i_m_ct_stereo_status>  (155) 
1

>  <s_m_source_file>  (155) 
/var/tmp/pbs.5076255.sched01/tmpmqqk35eb/391x3533zq.sdf

>  <i_m_source_file_index>  (155) 
23

>  <i_lp_mmshare_version>  (155) 
48012

>  <i_f3d_flags>  (155) 
0

>  <s_epik_input>  (155) 
czFbY0hdW2NIXWMoYzFjMjMpbmMobjNuW2NIXW4yKVtDSDJdTihbQ0gyXVtDSDJdNClbQ0gyXVtDSDJdQzQ1T1tDSDJdW0NIMl1PNQ==

>  <s_epik_cmdline>  (155) 
J2VwaWtfcHl0aG9uJywgJy1waHQnLCAnMi4wJywgJy1waCcsICc3LjAnLCAnLXRuJywgJzgnLCAnLW1hJywgJzIwMCcsICctaW1hZScsICc8aW5maWxlLm1hZT4nLCAnLW9tYWUnLCAnPG91dGZpbGUubWFlPic=

>  <r_epik_Ionization_Penalty>  (155) 
0.338868

>  <r_epik_Ionization_Penalty_Charging>  (155) 
0

>  <r_epik_Ionization_Penalty_Neutral>  (155) 
0.338868

>  <r_epik_State_Penalty>  (155) 
0.334383

>  <r_epik_Charging_Adjusted_Penalty>  (155) 
0.334383

>  <i_epik_Tot_Q>  (155) 
0

>  <i_epik_Tot_abs_Q>  (155) 
0

>  <s_lp_Force_Field>  (155) 
OPLS3e

>  <r_lp_Energy>  (155) 
21.673

>  <b_lp_Chiralities_Consistent>  (155) 
1

>  <s_lp_Variant>  (155) 
49:0-1

>  <s_i_glide_gridfile>  (155) 
pfpi4k_grid

>  <i_i_glide_lignum>  (155) 
23

>  <i_i_glide_rotatable_bonds>  (155) 
2

>  <r_i_docking_score>  (155) 
-3.48107

>  <r_i_glide_ligand_efficiency>  (155) 
-0.151351

>  <r_i_glide_ligand_efficiency_sa>  (155) 
-0.430422

>  <r_i_glide_ligand_efficiency_ln>  (155) 
-0.841755

>  <r_i_glide_gscore>  (155) 
-3.48107

>  <r_i_glide_lipo>  (155) 
-0.290195

>  <r_i_glide_hbond>  (155) 
-0.0699899

>  <r_i_glide_metal>  (155) 
-0

>  <r_i_glide_rewards>  (155) 
-1.35759

>  <r_i_glide_evdw>  (155) 
-33.9657

>  <r_i_glide_ecoul>  (155) 
-2.29679

>  <r_i_glide_erotb>  (155) 
0.34275

>  <r_i_glide_esite>  (155) 
-0.063241

>  <r_i_glide_emodel>  (155) 
-42.6114

>  <r_i_glide_energy>  (155) 
-36.2625

>  <r_i_glide_einternal>  (155) 
2.86526

>  <r_i_glide_intrahb_reward>  (155) 
-0

>  <i_i_glide_confnum>  (155) 
2

>  <i_i_glide_posenum>  (155) 
35

>  <r_i_glide_eff_state_penalty>  (155) 
0

>  <ligand_id>  (155) 
49

>  <original_smiles>  (155) 
c1nc2c3sccc3nc(CN3CCC4(CC3)OCCO4)n2n1

>  <smiles>  (155) 
[H]c1nc2c3sc([H])c([H])c3nc(C([H])([H])N3C([H])([H])C([H])([H])C4(OC([H])([H])C([H])([H])O4)C([H])([H])C3([H])[H])n2n1

$$$$
49:0:1
     RDKit          3D

 40 44  0  0  1  0  0  0  0  0999 V2000
    7.5641   -2.7224   -0.4109 C   0  0  0  0  0  0  0  0  0  0  0  0
    6.8889   -2.2740   -1.5192 N   0  0  0  0  0  0  0  0  0  0  0  0
    5.7407   -2.7703   -1.2148 C   0  0  0  0  0  0  0  0  0  0  0  0
    4.5536   -2.6230   -2.0209 C   0  0  0  0  0  0  0  0  0  0  0  0
    4.3383   -1.7998   -3.5076 S   0  0  0  0  0  0  0  0  0  0  0  0
    2.6560   -2.3211   -3.4884 C   0  0  0  0  0  0  0  0  0  0  0  0
    2.2586   -3.0593   -2.3710 C   0  0  0  0  0  0  0  0  0  0  0  0
    3.3936   -3.2474   -1.5103 C   0  0  0  0  0  0  0  0  0  0  0  0
    3.3456   -3.9281   -0.3608 N   0  0  0  0  0  0  0  0  0  0  0  0
    4.4833   -4.0290    0.3844 C   0  0  0  0  0  0  0  0  0  0  0  0
    4.4374   -4.7352    1.7162 C   0  0  0  0  0  0  0  0  0  0  0  0
    4.0712   -3.8619    2.8338 N   0  0  0  0  0  0  0  0  0  0  0  0
    4.2246   -4.6114    4.0803 C   0  0  0  0  0  0  0  0  0  0  0  0
    3.9882   -3.6854    5.2794 C   0  0  0  0  0  0  0  0  0  0  0  0
    2.5353   -3.1463    5.2171 C   0  0  0  0  0  0  0  0  0  0  0  0
    2.3105   -2.4456    3.8665 C   0  0  0  0  0  0  0  0  0  0  0  0
    2.6828   -3.3937    2.7136 C   0  0  0  0  0  0  0  0  0  0  0  0
    1.6063   -4.1737    5.3743 O   0  0  0  0  0  0  0  0  0  0  0  0
    1.4746   -4.3472    6.7735 C   0  0  0  0  0  0  0  0  0  0  0  0
    1.7009   -2.9238    7.2900 C   0  0  0  0  0  0  0  0  0  0  0  0
    2.3408   -2.2243    6.2355 O   0  0  0  0  0  0  0  0  0  0  0  0
    5.6283   -3.4467   -0.0930 N   0  0  0  0  0  0  0  0  0  0  0  0
    6.8525   -3.4184    0.5000 N   0  0  0  0  0  0  0  0  0  0  0  0
    8.6221   -2.5006   -0.2536 H   0  0  0  0  0  0  0  0  0  0  0  0
    2.0282   -2.0409   -4.3153 H   0  0  0  0  0  0  0  0  0  0  0  0
    1.2619   -3.4423   -2.1880 H   0  0  0  0  0  0  0  0  0  0  0  0
    3.7438   -5.5670    1.6461 H   0  0  0  0  0  0  0  0  0  0  0  0
    5.4187   -5.1802    1.9130 H   0  0  0  0  0  0  0  0  0  0  0  0
    3.5300   -5.4519    4.0968 H   0  0  0  0  0  0  0  0  0  0  0  0
    5.2276   -5.0254    4.1491 H   0  0  0  0  0  0  0  0  0  0  0  0
    4.2035   -4.2202    6.2038 H   0  0  0  0  0  0  0  0  0  0  0  0
    4.6748   -2.8325    5.2565 H   0  0  0  0  0  0  0  0  0  0  0  0
    1.2738   -2.0983    3.7695 H   0  0  0  0  0  0  0  0  0  0  0  0
    2.9444   -1.5583    3.8145 H   0  0  0  0  0  0  0  0  0  0  0  0
    2.5529   -2.8244    1.7965 H   0  0  0  0  0  0  0  0  0  0  0  0
    1.9993   -4.2429    2.6775 H   0  0  0  0  0  0  0  0  0  0  0  0
    0.5144   -4.7811    7.0774 H   0  0  0  0  0  0  0  0  0  0  0  0
    2.2494   -5.0257    7.1262 H   0  0  0  0  0  0  0  0  0  0  0  0
    0.7553   -2.4378    7.5161 H   0  0  0  0  0  0  0  0  0  0  0  0
    2.3308   -2.8941    8.1734 H   0  0  0  0  0  0  0  0  0  0  0  0
  1 23  2  0
  1  2  1  0
  1 24  1  0
  2  3  2  0
  3 22  1  0
  3  4  1  0
  4  8  2  0
  4  5  1  0
  5  6  1  0
  6  7  2  0
  6 25  1  0
  7  8  1  0
  7 26  1  0
  8  9  1  0
  9 10  2  0
 10 11  1  0
 10 22  1  0
 11 12  1  0
 11 27  1  0
 11 28  1  0
 12 17  1  0
 12 13  1  0
 13 14  1  0
 13 29  1  0
 13 30  1  0
 14 15  1  0
 14 31  1  0
 14 32  1  0
 15 21  1  0
 15 16  1  0
 15 18  1  0
 16 17  1  0
 16 33  1  0
 16 34  1  0
 17 35  1  0
 17 36  1  0
 18 19  1  0
 19 20  1  0
 19 37  1  0
 19 38  1  0
 20 21  1  0
 20 39  1  0
 20 40  1  0
 22 23  1  0
M  END
>  <i_m_ct_stereo_status>  (156) 
1

>  <s_m_source_file>  (156) 
/var/tmp/pbs.5076255.sched01/tmpmqqk35eb/391x3533zq.sdf

>  <i_m_source_file_index>  (156) 
23

>  <i_lp_mmshare_version>  (156) 
48012

>  <i_f3d_flags>  (156) 
0

>  <s_epik_input>  (156) 
czFbY0hdW2NIXWMoYzFjMjMpbmMobjNuW2NIXW4yKVtDSDJdTihbQ0gyXVtDSDJdNClbQ0gyXVtDSDJdQzQ1T1tDSDJdW0NIMl1PNQ==

>  <s_epik_cmdline>  (156) 
J2VwaWtfcHl0aG9uJywgJy1waHQnLCAnMi4wJywgJy1waCcsICc3LjAnLCAnLXRuJywgJzgnLCAnLW1hJywgJzIwMCcsICctaW1hZScsICc8aW5maWxlLm1hZT4nLCAnLW9tYWUnLCAnPG91dGZpbGUubWFlPic=

>  <r_epik_Ionization_Penalty>  (156) 
0.338868

>  <r_epik_Ionization_Penalty_Charging>  (156) 
0

>  <r_epik_Ionization_Penalty_Neutral>  (156) 
0.338868

>  <r_epik_State_Penalty>  (156) 
0.334383

>  <r_epik_Charging_Adjusted_Penalty>  (156) 
0.334383

>  <i_epik_Tot_Q>  (156) 
0

>  <i_epik_Tot_abs_Q>  (156) 
0

>  <s_lp_Force_Field>  (156) 
OPLS3e

>  <r_lp_Energy>  (156) 
21.673

>  <b_lp_Chiralities_Consistent>  (156) 
1

>  <s_lp_Variant>  (156) 
49:0-1

>  <s_i_glide_gridfile>  (156) 
pfpi4k_grid

>  <i_i_glide_lignum>  (156) 
23

>  <i_i_glide_rotatable_bonds>  (156) 
2

>  <r_i_docking_score>  (156) 
-3.27513

>  <r_i_glide_ligand_efficiency>  (156) 
-0.142397

>  <r_i_glide_ligand_efficiency_sa>  (156) 
-0.404958

>  <r_i_glide_ligand_efficiency_ln>  (156) 
-0.791957

>  <r_i_glide_gscore>  (156) 
-3.27513

>  <r_i_glide_lipo>  (156) 
-0.523266

>  <r_i_glide_hbond>  (156) 
-0.16

>  <r_i_glide_metal>  (156) 
-0

>  <r_i_glide_rewards>  (156) 
-1.28375

>  <r_i_glide_evdw>  (156) 
-25.1726

>  <r_i_glide_ecoul>  (156) 
-2.5968

>  <r_i_glide_erotb>  (156) 
0.34275

>  <r_i_glide_esite>  (156) 
-0.00271304

>  <r_i_glide_emodel>  (156) 
-35.228

>  <r_i_glide_energy>  (156) 
-27.7694

>  <r_i_glide_einternal>  (156) 
0.156506

>  <r_i_glide_intrahb_reward>  (156) 
-0

>  <i_i_glide_confnum>  (156) 
3

>  <i_i_glide_posenum>  (156) 
2

>  <r_i_glide_eff_state_penalty>  (156) 
0

>  <ligand_id>  (156) 
49

>  <original_smiles>  (156) 
c1nc2c3sccc3nc(CN3CCC4(CC3)OCCO4)n2n1

>  <smiles>  (156) 
[H]c1nc2c3sc([H])c([H])c3nc(C([H])([H])N3C([H])([H])C([H])([H])C4(OC([H])([H])C([H])([H])O4)C([H])([H])C3([H])[H])n2n1

$$$$
49:0:2
     RDKit          3D

 40 44  0  0  1  0  0  0  0  0999 V2000
    7.9340   -9.1712    3.6840 C   0  0  0  0  0  0  0  0  0  0  0  0
    8.4805   -7.9647    3.2896 N   0  0  0  0  0  0  0  0  0  0  0  0
    7.5087   -7.5950    2.5271 C   0  0  0  0  0  0  0  0  0  0  0  0
    7.4904   -6.3541    1.7832 C   0  0  0  0  0  0  0  0  0  0  0  0
    8.6792   -5.1280    1.6672 S   0  0  0  0  0  0  0  0  0  0  0  0
    7.5690   -4.2310    0.6211 C   0  0  0  0  0  0  0  0  0  0  0  0
    6.3490   -4.8468    0.3478 C   0  0  0  0  0  0  0  0  0  0  0  0
    6.3151   -6.1132    1.0196 C   0  0  0  0  0  0  0  0  0  0  0  0
    5.2915   -6.9799    0.9372 N   0  0  0  0  0  0  0  0  0  0  0  0
    5.3455   -8.1305    1.6554 C   0  0  0  0  0  0  0  0  0  0  0  0
    4.1457   -9.0644    1.6484 C   0  0  0  0  0  0  0  0  0  0  0  0
    3.0654   -8.6502    2.5479 N   0  0  0  0  0  0  0  0  0  0  0  0
    2.0470   -9.7042    2.5773 C   0  0  0  0  0  0  0  0  0  0  0  0
    0.9548   -9.3640    3.6064 C   0  0  0  0  0  0  0  0  0  0  0  0
    0.2849   -8.0223    3.2147 C   0  0  0  0  0  0  0  0  0  0  0  0
    1.3521   -6.9294    3.0705 C   0  0  0  0  0  0  0  0  0  0  0  0
    2.4459   -7.3957    2.1004 C   0  0  0  0  0  0  0  0  0  0  0  0
   -0.4222   -8.1508    2.0258 O   0  0  0  0  0  0  0  0  0  0  0  0
   -1.6410   -8.7588    2.4016 C   0  0  0  0  0  0  0  0  0  0  0  0
   -1.8716   -8.1159    3.7667 C   0  0  0  0  0  0  0  0  0  0  0  0
   -0.6115   -7.6376    4.1982 O   0  0  0  0  0  0  0  0  0  0  0  0
    6.4701   -8.3867    2.4176 N   0  0  0  0  0  0  0  0  0  0  0  0
    6.7150   -9.4815    3.1900 N   0  0  0  0  0  0  0  0  0  0  0  0
    8.4609   -9.8559    4.3359 H   0  0  0  0  0  0  0  0  0  0  0  0
    7.8847   -3.2714    0.2368 H   0  0  0  0  0  0  0  0  0  0  0  0
    5.5579   -4.4627   -0.2803 H   0  0  0  0  0  0  0  0  0  0  0  0
    3.7743   -9.1447    0.6278 H   0  0  0  0  0  0  0  0  0  0  0  0
    4.4798  -10.0667    1.9220 H   0  0  0  0  0  0  0  0  0  0  0  0
    1.6143   -9.8357    1.5843 H   0  0  0  0  0  0  0  0  0  0  0  0
    2.5018  -10.6576    2.8490 H   0  0  0  0  0  0  0  0  0  0  0  0
    0.2344  -10.1795    3.6649 H   0  0  0  0  0  0  0  0  0  0  0  0
    1.3841   -9.2639    4.6048 H   0  0  0  0  0  0  0  0  0  0  0  0
    0.9032   -5.9944    2.7305 H   0  0  0  0  0  0  0  0  0  0  0  0
    1.7959   -6.7361    4.0492 H   0  0  0  0  0  0  0  0  0  0  0  0
    3.1814   -6.5948    2.0840 H   0  0  0  0  0  0  0  0  0  0  0  0
    2.0502   -7.5054    1.0893 H   0  0  0  0  0  0  0  0  0  0  0  0
   -2.4520   -8.5898    1.6919 H   0  0  0  0  0  0  0  0  0  0  0  0
   -1.5174   -9.8392    2.4871 H   0  0  0  0  0  0  0  0  0  0  0  0
   -2.5691   -7.2836    3.6895 H   0  0  0  0  0  0  0  0  0  0  0  0
   -2.2593   -8.8308    4.4859 H   0  0  0  0  0  0  0  0  0  0  0  0
  1 23  2  0
  1  2  1  0
  1 24  1  0
  2  3  2  0
  3 22  1  0
  3  4  1  0
  4  8  2  0
  4  5  1  0
  5  6  1  0
  6  7  2  0
  6 25  1  0
  7  8  1  0
  7 26  1  0
  8  9  1  0
  9 10  2  0
 10 11  1  0
 10 22  1  0
 11 12  1  0
 11 27  1  0
 11 28  1  0
 12 17  1  0
 12 13  1  0
 13 14  1  0
 13 29  1  0
 13 30  1  0
 14 15  1  0
 14 31  1  0
 14 32  1  0
 15 21  1  0
 15 16  1  0
 15 18  1  0
 16 17  1  0
 16 33  1  0
 16 34  1  0
 17 35  1  0
 17 36  1  0
 18 19  1  0
 19 20  1  0
 19 37  1  0
 19 38  1  0
 20 21  1  0
 20 39  1  0
 20 40  1  0
 22 23  1  0
M  END
>  <i_m_ct_stereo_status>  (157) 
1

>  <s_m_source_file>  (157) 
/var/tmp/pbs.5076255.sched01/tmpmqqk35eb/391x3533zq.sdf

>  <i_m_source_file_index>  (157) 
23

>  <i_lp_mmshare_version>  (157) 
48012

>  <i_f3d_flags>  (157) 
0

>  <s_epik_input>  (157) 
czFbY0hdW2NIXWMoYzFjMjMpbmMobjNuW2NIXW4yKVtDSDJdTihbQ0gyXVtDSDJdNClbQ0gyXVtDSDJdQzQ1T1tDSDJdW0NIMl1PNQ==

>  <s_epik_cmdline>  (157) 
J2VwaWtfcHl0aG9uJywgJy1waHQnLCAnMi4wJywgJy1waCcsICc3LjAnLCAnLXRuJywgJzgnLCAnLW1hJywgJzIwMCcsICctaW1hZScsICc8aW5maWxlLm1hZT4nLCAnLW9tYWUnLCAnPG91dGZpbGUubWFlPic=

>  <r_epik_Ionization_Penalty>  (157) 
0.338868

>  <r_epik_Ionization_Penalty_Charging>  (157) 
0

>  <r_epik_Ionization_Penalty_Neutral>  (157) 
0.338868

>  <r_epik_State_Penalty>  (157) 
0.334383

>  <r_epik_Charging_Adjusted_Penalty>  (157) 
0.334383

>  <i_epik_Tot_Q>  (157) 
0

>  <i_epik_Tot_abs_Q>  (157) 
0

>  <s_lp_Force_Field>  (157) 
OPLS3e

>  <r_lp_Energy>  (157) 
21.673

>  <b_lp_Chiralities_Consistent>  (157) 
1

>  <s_lp_Variant>  (157) 
49:0-1

>  <s_i_glide_gridfile>  (157) 
pfpi4k_grid

>  <i_i_glide_lignum>  (157) 
23

>  <i_i_glide_rotatable_bonds>  (157) 
2

>  <r_i_docking_score>  (157) 
-3.01955

>  <r_i_glide_ligand_efficiency>  (157) 
-0.131285

>  <r_i_glide_ligand_efficiency_sa>  (157) 
-0.373356

>  <r_i_glide_ligand_efficiency_ln>  (157) 
-0.730154

>  <r_i_glide_gscore>  (157) 
-3.01955

>  <r_i_glide_lipo>  (157) 
-0.610021

>  <r_i_glide_hbond>  (157) 
0

>  <r_i_glide_metal>  (157) 
-0

>  <r_i_glide_rewards>  (157) 
-1.3298

>  <r_i_glide_evdw>  (157) 
-28.4806

>  <r_i_glide_ecoul>  (157) 
0.307806

>  <r_i_glide_erotb>  (157) 
0.34275

>  <r_i_glide_esite>  (157) 
-0.0446231

>  <r_i_glide_emodel>  (157) 
-34.8314

>  <r_i_glide_energy>  (157) 
-28.1728

>  <r_i_glide_einternal>  (157) 
0.360313

>  <r_i_glide_intrahb_reward>  (157) 
-0

>  <i_i_glide_confnum>  (157) 
3

>  <i_i_glide_posenum>  (157) 
4

>  <r_i_glide_eff_state_penalty>  (157) 
0

>  <ligand_id>  (157) 
49

>  <original_smiles>  (157) 
c1nc2c3sccc3nc(CN3CCC4(CC3)OCCO4)n2n1

>  <smiles>  (157) 
[H]c1nc2c3sc([H])c([H])c3nc(C([H])([H])N3C([H])([H])C([H])([H])C4(OC([H])([H])C([H])([H])O4)C([H])([H])C3([H])[H])n2n1

$$$$
49:1:0
     RDKit          3D

 41 45  0  0  1  0  0  0  0  0999 V2000
    1.4234   -4.1615    3.5120 C   0  0  0  0  0  0  0  0  0  0  0  0
    0.9663   -5.4588    3.7113 N   0  0  0  0  0  0  0  0  0  0  0  0
    1.8303   -6.0388    2.9559 C   0  0  0  0  0  0  0  0  0  0  0  0
    1.8580   -7.4479    2.7485 C   0  0  0  0  0  0  0  0  0  0  0  0
    0.8734   -8.6855    3.4129 S   0  0  0  0  0  0  0  0  0  0  0  0
    1.8269   -9.8552    2.4867 C   0  0  0  0  0  0  0  0  0  0  0  0
    2.8490   -9.3408    1.6876 C   0  0  0  0  0  0  0  0  0  0  0  0
    2.8661   -7.9221    1.8490 C   0  0  0  0  0  0  0  0  0  0  0  0
    3.7402   -7.1085    1.2162 N   0  0  0  0  0  0  0  0  0  0  0  0
    3.6702   -5.7911    1.4585 C   0  0  0  0  0  0  0  0  0  0  0  0
    4.6391   -4.8562    0.7475 C   0  0  0  0  0  0  0  0  0  0  0  0
    4.1474   -4.4025   -0.5789 N   0  0  0  0  0  0  0  0  0  0  0  0
    2.8326   -3.6912   -0.5483 C   0  0  0  0  0  0  0  0  0  0  0  0
    2.3370   -3.3158   -1.9504 C   0  0  0  0  0  0  0  0  0  0  0  0
    3.4197   -2.4991   -2.6800 C   0  0  0  0  0  0  0  0  0  0  0  0
    4.7690   -3.2644   -2.7103 C   0  0  0  0  0  0  0  0  0  0  0  0
    5.1770   -3.5820   -1.2712 C   0  0  0  0  0  0  0  0  0  0  0  0
    3.5697   -1.2675   -2.0520 O   0  0  0  0  0  0  0  0  0  0  0  0
    4.0523   -0.4064   -3.0598 C   0  0  0  0  0  0  0  0  0  0  0  0
    3.3987   -0.9663   -4.3187 C   0  0  0  0  0  0  0  0  0  0  0  0
    3.0071   -2.2803   -3.9802 O   0  0  0  0  0  0  0  0  0  0  0  0
    2.7163   -5.3056    2.3253 N   0  0  0  0  0  0  0  0  0  0  0  0
    2.4876   -4.0116    2.6689 N   0  0  0  0  0  0  0  0  0  0  0  0
    0.9551   -3.2967    3.9810 H   0  0  0  0  0  0  0  0  0  0  0  0
    1.5808  -10.9029    2.5885 H   0  0  0  0  0  0  0  0  0  0  0  0
    3.5164   -9.9045    1.0618 H   0  0  0  0  0  0  0  0  0  0  0  0
    4.8420   -3.9987    1.3853 H   0  0  0  0  0  0  0  0  0  0  0  0
    5.5907   -5.3744    0.6349 H   0  0  0  0  0  0  0  0  0  0  0  0
    2.0645   -4.3269   -0.1098 H   0  0  0  0  0  0  0  0  0  0  0  0
    2.9207   -2.7997    0.0782 H   0  0  0  0  0  0  0  0  0  0  0  0
    2.1074   -4.2091   -2.5260 H   0  0  0  0  0  0  0  0  0  0  0  0
    1.4054   -2.7585   -1.9256 H   0  0  0  0  0  0  0  0  0  0  0  0
    4.6367   -4.1694   -3.3000 H   0  0  0  0  0  0  0  0  0  0  0  0
    5.5637   -2.7012   -3.1911 H   0  0  0  0  0  0  0  0  0  0  0  0
    5.3248   -2.6600   -0.7028 H   0  0  0  0  0  0  0  0  0  0  0  0
    6.1373   -4.0991   -1.2835 H   0  0  0  0  0  0  0  0  0  0  0  0
    3.8700    0.6534   -2.9006 H   0  0  0  0  0  0  0  0  0  0  0  0
    5.1246   -0.5320   -3.0899 H   0  0  0  0  0  0  0  0  0  0  0  0
    2.5266   -0.3761   -4.5979 H   0  0  0  0  0  0  0  0  0  0  0  0
    4.0902   -1.0040   -5.1580 H   0  0  0  0  0  0  0  0  0  0  0  0
    3.9985   -5.2250   -1.1640 H   0  0  0  0  0  0  0  0  0  0  0  0
  1 23  2  0
  1  2  1  0
  1 24  1  0
  2  3  2  0
  3 22  1  0
  3  4  1  0
  4  8  2  0
  4  5  1  0
  5  6  1  0
  6  7  2  0
  6 25  1  0
  7  8  1  0
  7 26  1  0
  8  9  1  0
  9 10  2  0
 10 11  1  0
 10 22  1  0
 11 12  1  0
 11 27  1  0
 11 28  1  0
 12 17  1  0
 12 13  1  0
 12 41  1  0
 13 14  1  0
 13 29  1  0
 13 30  1  0
 14 15  1  0
 14 31  1  0
 14 32  1  0
 15 21  1  0
 15 16  1  0
 15 18  1  0
 16 17  1  0
 16 33  1  0
 16 34  1  0
 17 35  1  0
 17 36  1  0
 18 19  1  0
 19 20  1  0
 19 37  1  0
 19 38  1  0
 20 21  1  0
 20 39  1  0
 20 40  1  0
 22 23  1  0
M  CHG  1  12   1
M  END
>  <i_m_ct_stereo_status>  (158) 
1

>  <s_m_source_file>  (158) 
/var/tmp/pbs.5076255.sched01/tmpmqqk35eb/391x3533zq.sdf

>  <i_m_source_file_index>  (158) 
24

>  <i_lp_mmshare_version>  (158) 
48012

>  <i_f3d_flags>  (158) 
0

>  <s_epik_input>  (158) 
czFbY0hdW2NIXWMoYzFjMjMpbmMobjNuW2NIXW4yKVtDSDJdTihbQ0gyXVtDSDJdNClbQ0gyXVtDSDJdQzQ1T1tDSDJdW0NIMl1PNQ==

>  <s_epik_cmdline>  (158) 
J2VwaWtfcHl0aG9uJywgJy1waHQnLCAnMi4wJywgJy1waCcsICc3LjAnLCAnLXRuJywgJzgnLCAnLW1hJywgJzIwMCcsICctaW1hZScsICc8aW5maWxlLm1hZT4nLCAnLW9tYWUnLCAnPG91dGZpbGUubWFlPic=

>  <r_epik_Ionization_Penalty>  (158) 
0.492441

>  <r_epik_Ionization_Penalty_Charging>  (158) 
0.492437

>  <r_epik_Ionization_Penalty_Neutral>  (158) 
4.19069e-06

>  <r_epik_State_Penalty>  (158) 
0.498275

>  <r_epik_Charging_Adjusted_Penalty>  (158) 
0.990712

>  <i_epik_Tot_Q>  (158) 
1

>  <i_epik_Tot_abs_Q>  (158) 
1

>  <s_lp_Force_Field>  (158) 
OPLS3e

>  <r_lp_Energy>  (158) 
25.7704

>  <b_lp_Chiralities_Consistent>  (158) 
1

>  <s_lp_Variant>  (158) 
49:0-2

>  <s_i_glide_gridfile>  (158) 
pfpi4k_grid

>  <i_i_glide_lignum>  (158) 
24

>  <i_i_glide_rotatable_bonds>  (158) 
2

>  <r_i_docking_score>  (158) 
-3.83395

>  <r_i_glide_ligand_efficiency>  (158) 
-0.166693

>  <r_i_glide_ligand_efficiency_sa>  (158) 
-0.474054

>  <r_i_glide_ligand_efficiency_ln>  (158) 
-0.927083

>  <r_i_glide_gscore>  (158) 
-3.83395

>  <r_i_glide_lipo>  (158) 
-0.763844

>  <r_i_glide_hbond>  (158) 
0

>  <r_i_glide_metal>  (158) 
-0

>  <r_i_glide_rewards>  (158) 
-1.18676

>  <r_i_glide_evdw>  (158) 
-29.3047

>  <r_i_glide_ecoul>  (158) 
-4.58198

>  <r_i_glide_erotb>  (158) 
0.340914

>  <r_i_glide_esite>  (158) 
-0.0717187

>  <r_i_glide_emodel>  (158) 
-42.5461

>  <r_i_glide_energy>  (158) 
-33.8867

>  <r_i_glide_einternal>  (158) 
0.524744

>  <r_i_glide_intrahb_reward>  (158) 
-0

>  <i_i_glide_confnum>  (158) 
2

>  <i_i_glide_posenum>  (158) 
4

>  <r_i_glide_eff_state_penalty>  (158) 
0

>  <ligand_id>  (158) 
49

>  <original_smiles>  (158) 
c1nc2c3sccc3nc(CN3CCC4(CC3)OCCO4)n2n1

>  <smiles>  (158) 
[H]c1nc2c3sc([H])c([H])c3nc(C([H])([H])[N+]3([H])C([H])([H])C([H])([H])C4(OC([H])([H])C([H])([H])O4)C([H])([H])C3([H])[H])n2n1

$$$$
49:1:1
     RDKit          3D

 41 45  0  0  1  0  0  0  0  0999 V2000
    7.6682   -2.3024   -0.0758 C   0  0  0  0  0  0  0  0  0  0  0  0
    7.2138   -2.9329   -1.2083 N   0  0  0  0  0  0  0  0  0  0  0  0
    6.0005   -2.4688   -1.1677 C   0  0  0  0  0  0  0  0  0  0  0  0
    4.9759   -2.7844   -2.1354 C   0  0  0  0  0  0  0  0  0  0  0  0
    5.0037   -3.8282   -3.4942 S   0  0  0  0  0  0  0  0  0  0  0  0
    3.3426   -3.3717   -3.8188 C   0  0  0  0  0  0  0  0  0  0  0  0
    2.7559   -2.5078   -2.9018 C   0  0  0  0  0  0  0  0  0  0  0  0
    3.7343   -2.1540   -1.9147 C   0  0  0  0  0  0  0  0  0  0  0  0
    3.4803   -1.3345   -0.9002 N   0  0  0  0  0  0  0  0  0  0  0  0
    4.4723   -1.0539   -0.0095 C   0  0  0  0  0  0  0  0  0  0  0  0
    4.2276   -0.0907    1.1062 C   0  0  0  0  0  0  0  0  0  0  0  0
    2.8635   -0.2201    1.6877 N   0  0  0  0  0  0  0  0  0  0  0  0
    2.7137   -1.4437    2.5243 C   0  0  0  0  0  0  0  0  0  0  0  0
    1.2754   -1.5954    3.0727 C   0  0  0  0  0  0  0  0  0  0  0  0
    0.8283   -0.3091    3.8000 C   0  0  0  0  0  0  0  0  0  0  0  0
    0.9966    0.9252    2.8754 C   0  0  0  0  0  0  0  0  0  0  0  0
    2.4634    0.9985    2.4221 C   0  0  0  0  0  0  0  0  0  0  0  0
    1.5682   -0.1577    4.9682 O   0  0  0  0  0  0  0  0  0  0  0  0
    0.7567    0.6158    5.8365 C   0  0  0  0  0  0  0  0  0  0  0  0
   -0.6508    0.1819    5.4165 C   0  0  0  0  0  0  0  0  0  0  0  0
   -0.5052   -0.4366    4.1476 O   0  0  0  0  0  0  0  0  0  0  0  0
    5.6962   -1.6489   -0.2052 N   0  0  0  0  0  0  0  0  0  0  0  0
    6.8053   -1.4840    0.5582 N   0  0  0  0  0  0  0  0  0  0  0  0
    8.6878   -2.4275    0.2939 H   0  0  0  0  0  0  0  0  0  0  0  0
    2.8278   -3.8283   -4.6530 H   0  0  0  0  0  0  0  0  0  0  0  0
    1.7278   -2.1852   -2.9152 H   0  0  0  0  0  0  0  0  0  0  0  0
    4.9889   -0.2006    1.8865 H   0  0  0  0  0  0  0  0  0  0  0  0
    4.3926    0.9115    0.6935 H   0  0  0  0  0  0  0  0  0  0  0  0
    2.9745   -2.3393    1.9506 H   0  0  0  0  0  0  0  0  0  0  0  0
    3.3971   -1.4099    3.3700 H   0  0  0  0  0  0  0  0  0  0  0  0
    0.6159   -1.7728    2.2262 H   0  0  0  0  0  0  0  0  0  0  0  0
    1.1776   -2.4729    3.7301 H   0  0  0  0  0  0  0  0  0  0  0  0
    0.3218    0.8302    2.0184 H   0  0  0  0  0  0  0  0  0  0  0  0
    0.7253    1.8693    3.3576 H   0  0  0  0  0  0  0  0  0  0  0  0
    3.1133    1.1252    3.2886 H   0  0  0  0  0  0  0  0  0  0  0  0
    2.5792    1.8931    1.8107 H   0  0  0  0  0  0  0  0  0  0  0  0
    0.9687    0.4594    6.9003 H   0  0  0  0  0  0  0  0  0  0  0  0
    0.9245    1.6741    5.6413 H   0  0  0  0  0  0  0  0  0  0  0  0
   -1.0557   -0.5491    6.1129 H   0  0  0  0  0  0  0  0  0  0  0  0
   -1.3415    1.0177    5.3377 H   0  0  0  0  0  0  0  0  0  0  0  0
    2.2365   -0.3111    0.8966 H   0  0  0  0  0  0  0  0  0  0  0  0
  1 23  2  0
  1  2  1  0
  1 24  1  0
  2  3  2  0
  3 22  1  0
  3  4  1  0
  4  8  2  0
  4  5  1  0
  5  6  1  0
  6  7  2  0
  6 25  1  0
  7  8  1  0
  7 26  1  0
  8  9  1  0
  9 10  2  0
 10 11  1  0
 10 22  1  0
 11 12  1  0
 11 27  1  0
 11 28  1  0
 12 17  1  0
 12 13  1  0
 12 41  1  0
 13 14  1  0
 13 29  1  0
 13 30  1  0
 14 15  1  0
 14 31  1  0
 14 32  1  0
 15 21  1  0
 15 16  1  0
 15 18  1  0
 16 17  1  0
 16 33  1  0
 16 34  1  0
 17 35  1  0
 17 36  1  0
 18 19  1  0
 19 20  1  0
 19 37  1  0
 19 38  1  0
 20 21  1  0
 20 39  1  0
 20 40  1  0
 22 23  1  0
M  CHG  1  12   1
M  END
>  <i_m_ct_stereo_status>  (159) 
1

>  <s_m_source_file>  (159) 
/var/tmp/pbs.5076255.sched01/tmpmqqk35eb/391x3533zq.sdf

>  <i_m_source_file_index>  (159) 
24

>  <i_lp_mmshare_version>  (159) 
48012

>  <i_f3d_flags>  (159) 
0

>  <s_epik_input>  (159) 
czFbY0hdW2NIXWMoYzFjMjMpbmMobjNuW2NIXW4yKVtDSDJdTihbQ0gyXVtDSDJdNClbQ0gyXVtDSDJdQzQ1T1tDSDJdW0NIMl1PNQ==

>  <s_epik_cmdline>  (159) 
J2VwaWtfcHl0aG9uJywgJy1waHQnLCAnMi4wJywgJy1waCcsICc3LjAnLCAnLXRuJywgJzgnLCAnLW1hJywgJzIwMCcsICctaW1hZScsICc8aW5maWxlLm1hZT4nLCAnLW9tYWUnLCAnPG91dGZpbGUubWFlPic=

>  <r_epik_Ionization_Penalty>  (159) 
0.492441

>  <r_epik_Ionization_Penalty_Charging>  (159) 
0.492437

>  <r_epik_Ionization_Penalty_Neutral>  (159) 
4.19069e-06

>  <r_epik_State_Penalty>  (159) 
0.498275

>  <r_epik_Charging_Adjusted_Penalty>  (159) 
0.990712

>  <i_epik_Tot_Q>  (159) 
1

>  <i_epik_Tot_abs_Q>  (159) 
1

>  <s_lp_Force_Field>  (159) 
OPLS3e

>  <r_lp_Energy>  (159) 
25.7704

>  <b_lp_Chiralities_Consistent>  (159) 
1

>  <s_lp_Variant>  (159) 
49:0-2

>  <s_i_glide_gridfile>  (159) 
pfpi4k_grid

>  <i_i_glide_lignum>  (159) 
24

>  <i_i_glide_rotatable_bonds>  (159) 
2

>  <r_i_docking_score>  (159) 
-3.11449

>  <r_i_glide_ligand_efficiency>  (159) 
-0.135412

>  <r_i_glide_ligand_efficiency_sa>  (159) 
-0.385095

>  <r_i_glide_ligand_efficiency_ln>  (159) 
-0.753111

>  <r_i_glide_gscore>  (159) 
-3.11449

>  <r_i_glide_lipo>  (159) 
-0.384856

>  <r_i_glide_hbond>  (159) 
-0.0391381

>  <r_i_glide_metal>  (159) 
-0

>  <r_i_glide_rewards>  (159) 
-1.14686

>  <r_i_glide_evdw>  (159) 
-30.2874

>  <r_i_glide_ecoul>  (159) 
-1.84507

>  <r_i_glide_erotb>  (159) 
0.340914

>  <r_i_glide_esite>  (159) 
-0.0934125

>  <r_i_glide_emodel>  (159) 
-38.8985

>  <r_i_glide_energy>  (159) 
-32.1325

>  <r_i_glide_einternal>  (159) 
0.999058

>  <r_i_glide_intrahb_reward>  (159) 
-0

>  <i_i_glide_confnum>  (159) 
2

>  <i_i_glide_posenum>  (159) 
32

>  <r_i_glide_eff_state_penalty>  (159) 
0

>  <ligand_id>  (159) 
49

>  <original_smiles>  (159) 
c1nc2c3sccc3nc(CN3CCC4(CC3)OCCO4)n2n1

>  <smiles>  (159) 
[H]c1nc2c3sc([H])c([H])c3nc(C([H])([H])[N+]3([H])C([H])([H])C([H])([H])C4(OC([H])([H])C([H])([H])O4)C([H])([H])C3([H])[H])n2n1

$$$$
49:1:2
     RDKit          3D

 41 45  0  0  1  0  0  0  0  0999 V2000
    2.6132   -4.0126    2.4397 C   0  0  0  0  0  0  0  0  0  0  0  0
    3.0030   -4.2262    1.1314 N   0  0  0  0  0  0  0  0  0  0  0  0
    3.3317   -3.0068    0.8630 C   0  0  0  0  0  0  0  0  0  0  0  0
    3.8422   -2.5645   -0.4138 C   0  0  0  0  0  0  0  0  0  0  0  0
    4.1493   -3.4635   -1.8321 S   0  0  0  0  0  0  0  0  0  0  0  0
    4.6628   -1.9806   -2.6133 C   0  0  0  0  0  0  0  0  0  0  0  0
    4.6152   -0.8320   -1.8272 C   0  0  0  0  0  0  0  0  0  0  0  0
    4.1451   -1.1778   -0.5170 C   0  0  0  0  0  0  0  0  0  0  0  0
    3.9914   -0.3043    0.4983 N   0  0  0  0  0  0  0  0  0  0  0  0
    3.5066   -0.7661    1.6715 C   0  0  0  0  0  0  0  0  0  0  0  0
    3.2923    0.2040    2.8085 C   0  0  0  0  0  0  0  0  0  0  0  0
    2.0740    1.0311    2.6426 N   0  0  0  0  0  0  0  0  0  0  0  0
    0.8256    0.2342    2.4812 C   0  0  0  0  0  0  0  0  0  0  0  0
   -0.4011    1.1368    2.2507 C   0  0  0  0  0  0  0  0  0  0  0  0
   -0.5296    2.1675    3.3875 C   0  0  0  0  0  0  0  0  0  0  0  0
    0.7857    2.9710    3.5427 C   0  0  0  0  0  0  0  0  0  0  0  0
    1.9482    1.9972    3.7629 C   0  0  0  0  0  0  0  0  0  0  0  0
   -0.8381    1.5225    4.5835 O   0  0  0  0  0  0  0  0  0  0  0  0
   -1.4755    2.5110    5.3738 C   0  0  0  0  0  0  0  0  0  0  0  0
   -2.2037    3.3388    4.3132 C   0  0  0  0  0  0  0  0  0  0  0  0
   -1.5677    3.0326    3.0873 O   0  0  0  0  0  0  0  0  0  0  0  0
    3.1925   -2.1074    1.8033 N   0  0  0  0  0  0  0  0  0  0  0  0
    2.6940   -2.7410    2.9016 N   0  0  0  0  0  0  0  0  0  0  0  0
    2.2608   -4.8105    3.0689 H   0  0  0  0  0  0  0  0  0  0  0  0
    4.9869   -2.0312   -3.6420 H   0  0  0  0  0  0  0  0  0  0  0  0
    4.8873    0.1480   -2.1581 H   0  0  0  0  0  0  0  0  0  0  0  0
    3.2511   -0.3330    3.7559 H   0  0  0  0  0  0  0  0  0  0  0  0
    4.1683    0.8526    2.8770 H   0  0  0  0  0  0  0  0  0  0  0  0
    0.8980   -0.4465    1.6299 H   0  0  0  0  0  0  0  0  0  0  0  0
    0.6718   -0.3881    3.3642 H   0  0  0  0  0  0  0  0  0  0  0  0
   -0.2942    1.6626    1.2992 H   0  0  0  0  0  0  0  0  0  0  0  0
   -1.3243    0.5563    2.1692 H   0  0  0  0  0  0  0  0  0  0  0  0
    0.9587    3.5610    2.6414 H   0  0  0  0  0  0  0  0  0  0  0  0
    0.7346    3.6816    4.3701 H   0  0  0  0  0  0  0  0  0  0  0  0
    1.7961    1.4479    4.6922 H   0  0  0  0  0  0  0  0  0  0  0  0
    2.8706    2.5689    3.8787 H   0  0  0  0  0  0  0  0  0  0  0  0
   -2.1406    2.1017    6.1394 H   0  0  0  0  0  0  0  0  0  0  0  0
   -0.7154    3.1070    5.8808 H   0  0  0  0  0  0  0  0  0  0  0  0
   -3.2534    3.0568    4.2475 H   0  0  0  0  0  0  0  0  0  0  0  0
   -2.1326    4.4080    4.5013 H   0  0  0  0  0  0  0  0  0  0  0  0
    2.1851    1.5734    1.7933 H   0  0  0  0  0  0  0  0  0  0  0  0
  1 23  2  0
  1  2  1  0
  1 24  1  0
  2  3  2  0
  3 22  1  0
  3  4  1  0
  4  8  2  0
  4  5  1  0
  5  6  1  0
  6  7  2  0
  6 25  1  0
  7  8  1  0
  7 26  1  0
  8  9  1  0
  9 10  2  0
 10 11  1  0
 10 22  1  0
 11 12  1  0
 11 27  1  0
 11 28  1  0
 12 17  1  0
 12 13  1  0
 12 41  1  0
 13 14  1  0
 13 29  1  0
 13 30  1  0
 14 15  1  0
 14 31  1  0
 14 32  1  0
 15 21  1  0
 15 16  1  0
 15 18  1  0
 16 17  1  0
 16 33  1  0
 16 34  1  0
 17 35  1  0
 17 36  1  0
 18 19  1  0
 19 20  1  0
 19 37  1  0
 19 38  1  0
 20 21  1  0
 20 39  1  0
 20 40  1  0
 22 23  1  0
M  CHG  1  12   1
M  END
>  <i_m_ct_stereo_status>  (160) 
1

>  <s_m_source_file>  (160) 
/var/tmp/pbs.5076255.sched01/tmpmqqk35eb/391x3533zq.sdf

>  <i_m_source_file_index>  (160) 
24

>  <i_lp_mmshare_version>  (160) 
48012

>  <i_f3d_flags>  (160) 
0

>  <s_epik_input>  (160) 
czFbY0hdW2NIXWMoYzFjMjMpbmMobjNuW2NIXW4yKVtDSDJdTihbQ0gyXVtDSDJdNClbQ0gyXVtDSDJdQzQ1T1tDSDJdW0NIMl1PNQ==

>  <s_epik_cmdline>  (160) 
J2VwaWtfcHl0aG9uJywgJy1waHQnLCAnMi4wJywgJy1waCcsICc3LjAnLCAnLXRuJywgJzgnLCAnLW1hJywgJzIwMCcsICctaW1hZScsICc8aW5maWxlLm1hZT4nLCAnLW9tYWUnLCAnPG91dGZpbGUubWFlPic=

>  <r_epik_Ionization_Penalty>  (160) 
0.492441

>  <r_epik_Ionization_Penalty_Charging>  (160) 
0.492437

>  <r_epik_Ionization_Penalty_Neutral>  (160) 
4.19069e-06

>  <r_epik_State_Penalty>  (160) 
0.498275

>  <r_epik_Charging_Adjusted_Penalty>  (160) 
0.990712

>  <i_epik_Tot_Q>  (160) 
1

>  <i_epik_Tot_abs_Q>  (160) 
1

>  <s_lp_Force_Field>  (160) 
OPLS3e

>  <r_lp_Energy>  (160) 
25.7704

>  <b_lp_Chiralities_Consistent>  (160) 
1

>  <s_lp_Variant>  (160) 
49:0-2

>  <s_i_glide_gridfile>  (160) 
pfpi4k_grid

>  <i_i_glide_lignum>  (160) 
24

>  <i_i_glide_rotatable_bonds>  (160) 
2

>  <r_i_docking_score>  (160) 
-2.61989

>  <r_i_glide_ligand_efficiency>  (160) 
-0.113908

>  <r_i_glide_ligand_efficiency_sa>  (160) 
-0.32394

>  <r_i_glide_ligand_efficiency_ln>  (160) 
-0.633512

>  <r_i_glide_gscore>  (160) 
-2.61989

>  <r_i_glide_lipo>  (160) 
-0.0781859

>  <r_i_glide_hbond>  (160) 
0

>  <r_i_glide_metal>  (160) 
-0

>  <r_i_glide_rewards>  (160) 
-1.14272

>  <r_i_glide_evdw>  (160) 
-28.0796

>  <r_i_glide_ecoul>  (160) 
-1.65993

>  <r_i_glide_erotb>  (160) 
0.340914

>  <r_i_glide_esite>  (160) 
-0.086928

>  <r_i_glide_emodel>  (160) 
-35.5327

>  <r_i_glide_energy>  (160) 
-29.7396

>  <r_i_glide_einternal>  (160) 
0.55349

>  <r_i_glide_intrahb_reward>  (160) 
-0

>  <i_i_glide_confnum>  (160) 
2

>  <i_i_glide_posenum>  (160) 
25

>  <r_i_glide_eff_state_penalty>  (160) 
0

>  <ligand_id>  (160) 
49

>  <original_smiles>  (160) 
c1nc2c3sccc3nc(CN3CCC4(CC3)OCCO4)n2n1

>  <smiles>  (160) 
[H]c1nc2c3sc([H])c([H])c3nc(C([H])([H])[N+]3([H])C([H])([H])C([H])([H])C4(OC([H])([H])C([H])([H])O4)C([H])([H])C3([H])[H])n2n1

$$$$
50:0:0
     RDKit          3D

 48 52  0  0  1  0  0  0  0  0999 V2000
    0.2653   -6.6547    2.1022 O   0  0  0  0  0  0  0  0  0  0  0  0
    0.5542   -7.8173    2.4312 C   0  0  0  0  0  0  0  0  0  0  0  0
   -0.4862   -8.6754    3.0898 C   0  0  0  0  0  0  0  0  0  0  0  0
   -1.9123   -8.3549    2.7504 C   0  0  0  0  0  0  0  0  0  0  0  0
   -1.3704   -8.0205    4.1179 C   0  0  0  0  0  0  0  0  0  0  0  0
    1.8070   -8.3371    2.3292 N   0  0  0  0  0  0  0  0  0  0  0  0
    2.0253   -9.7832    2.1009 C   0  0  0  0  0  0  0  0  0  0  0  0
    2.7063  -10.3510    3.3037 C   0  0  0  0  0  0  0  0  0  0  0  0
    2.8298  -11.6356    3.6596 N   0  0  0  0  0  0  0  0  0  0  0  0
    3.5015  -11.7211    4.8516 C   0  0  0  0  0  0  0  0  0  0  0  0
    3.8223  -10.4496    5.2247 C   0  0  0  0  0  0  0  0  0  0  0  0
    3.3177   -9.6331    4.2482 N   0  0  0  0  0  0  0  0  0  0  0  0
    3.3295   -8.1709    4.1898 C   0  0  0  0  0  0  0  0  0  0  0  0
    3.0562   -7.6262    2.7607 C   0  0  0  0  0  0  0  0  0  0  0  0
    2.9248   -6.0739    2.8291 C   0  0  0  0  0  0  0  0  0  0  0  0
    4.2206   -5.3525    3.2144 C   0  0  0  0  0  0  0  0  0  0  0  0
    5.2930   -5.6993    2.2899 N   0  0  0  0  0  0  0  0  0  0  0  0
    6.0018   -4.7383    1.5732 C   0  0  0  0  0  0  0  0  0  0  0  0
    7.0992   -5.1322    0.9138 N   0  0  0  0  0  0  0  0  0  0  0  0
    7.7816   -4.1943    0.2297 C   0  0  0  0  0  0  0  0  0  0  0  0
    7.3655   -2.8501    0.1870 C   0  0  0  0  0  0  0  0  0  0  0  0
    8.0326   -1.9128   -0.5106 F   0  0  0  0  0  0  0  0  0  0  0  0
    6.2046   -2.5435    0.9192 C   0  0  0  0  0  0  0  0  0  0  0  0
    5.5382   -3.4842    1.6110 N   0  0  0  0  0  0  0  0  0  0  0  0
    5.5489   -7.1311    2.1796 C   0  0  0  0  0  0  0  0  0  0  0  0
    4.2626   -7.8963    1.7928 C   0  0  0  0  0  0  0  0  0  0  0  0
   -0.2482   -9.7027    3.3457 H   0  0  0  0  0  0  0  0  0  0  0  0
   -2.1160   -7.5183    2.0849 H   0  0  0  0  0  0  0  0  0  0  0  0
   -2.5739   -9.2043    2.6464 H   0  0  0  0  0  0  0  0  0  0  0  0
   -1.7037   -8.6489    4.9337 H   0  0  0  0  0  0  0  0  0  0  0  0
   -1.1854   -6.9782    4.3733 H   0  0  0  0  0  0  0  0  0  0  0  0
    1.1282  -10.3612    1.8887 H   0  0  0  0  0  0  0  0  0  0  0  0
    2.6708   -9.9585    1.2432 H   0  0  0  0  0  0  0  0  0  0  0  0
    3.6894  -12.6625    5.3465 H   0  0  0  0  0  0  0  0  0  0  0  0
    4.3420  -10.0762    6.1011 H   0  0  0  0  0  0  0  0  0  0  0  0
    2.5641   -7.8259    4.8812 H   0  0  0  0  0  0  0  0  0  0  0  0
    4.2881   -7.8349    4.5764 H   0  0  0  0  0  0  0  0  0  0  0  0
    2.6087   -5.6839    1.8610 H   0  0  0  0  0  0  0  0  0  0  0  0
    2.1846   -5.7741    3.5709 H   0  0  0  0  0  0  0  0  0  0  0  0
    3.9912   -4.2883    3.2504 H   0  0  0  0  0  0  0  0  0  0  0  0
    4.5085   -5.6148    4.2290 H   0  0  0  0  0  0  0  0  0  0  0  0
    8.6572   -4.5352   -0.3031 H   0  0  0  0  0  0  0  0  0  0  0  0
    5.8034   -1.5410    0.9568 H   0  0  0  0  0  0  0  0  0  0  0  0
    6.3245   -7.3724    1.4505 H   0  0  0  0  0  0  0  0  0  0  0  0
    5.9323   -7.5024    3.1290 H   0  0  0  0  0  0  0  0  0  0  0  0
    4.5600   -8.9464    1.7562 H   0  0  0  0  0  0  0  0  0  0  0  0
    3.9886   -7.6331    0.7713 H   0  0  0  0  0  0  0  0  0  0  0  0
    2.4644  -12.4129    3.1398 H   0  0  0  0  0  0  0  0  0  0  0  0
  1  2  2  0
  2  3  1  0
  2  6  1  0
  3  5  1  0
  3  4  1  0
  3 27  1  0
  4  5  1  0
  4 28  1  0
  4 29  1  0
  5 30  1  0
  5 31  1  0
  6 14  1  0
  6  7  1  0
  7  8  1  0
  7 32  1  0
  7 33  1  0
  8 12  1  0
  8  9  2  0
  9 10  1  0
  9 48  1  0
 10 11  2  0
 10 34  1  0
 11 12  1  0
 11 35  1  0
 12 13  1  0
 13 14  1  0
 13 36  1  0
 13 37  1  0
 14 26  1  0
 14 15  1  0
 15 16  1  0
 15 38  1  0
 15 39  1  0
 16 17  1  0
 16 40  1  0
 16 41  1  0
 17 18  1  0
 17 25  1  0
 18 24  1  0
 18 19  2  0
 19 20  1  0
 20 21  2  0
 20 42  1  0
 21 22  1  0
 21 23  1  0
 23 24  2  0
 23 43  1  0
 25 26  1  0
 25 44  1  0
 25 45  1  0
 26 46  1  0
 26 47  1  0
M  CHG  1   9   1
M  END
>  <i_m_ct_stereo_status>  (161) 
1

>  <s_m_source_file>  (161) 
/var/tmp/pbs.5076255.sched01/tmpmqqk35eb/391x3533zq.sdf

>  <i_m_source_file_index>  (161) 
25

>  <i_lp_mmshare_version>  (161) 
48012

>  <i_f3d_flags>  (161) 
0

>  <s_epik_input>  (161) 
bjFbY0hdW2NIXW4oW0NIMl0yKWMxW0NIMl1OKEMoPU8pW0NIXTNbQ0gyXVtDSDJdMylDMjRbQ0gyXVtDSDJdTihbQ0gyXVtDSDJdNCljNW5bY0hdYyhGKVtjSF1uNQ==

>  <s_epik_cmdline>  (161) 
J2VwaWtfcHl0aG9uJywgJy1waHQnLCAnMi4wJywgJy1waCcsICc3LjAnLCAnLXRuJywgJzgnLCAnLW1hJywgJzIwMCcsICctaW1hZScsICc8aW5maWxlLm1hZT4nLCAnLW9tYWUnLCAnPG91dGZpbGUubWFlPic=

>  <r_lp_tautomer_probability>  (161) 
1

>  <r_epik_Ionization_Penalty>  (161) 
0.079696

>  <r_epik_Ionization_Penalty_Charging>  (161) 
0

>  <r_epik_Ionization_Penalty_Neutral>  (161) 
0.079696

>  <r_epik_State_Penalty>  (161) 
0.0705278

>  <r_epik_Charging_Adjusted_Penalty>  (161) 
0.0705278

>  <i_epik_Tot_Q>  (161) 
1

>  <i_epik_Tot_abs_Q>  (161) 
1

>  <s_lp_Force_Field>  (161) 
OPLS3e

>  <r_lp_Energy>  (161) 
90.8622

>  <b_lp_Chiralities_Consistent>  (161) 
1

>  <s_lp_Variant>  (161) 
50:0-1

>  <s_i_glide_gridfile>  (161) 
pfpi4k_grid

>  <i_i_glide_lignum>  (161) 
25

>  <i_i_glide_rotatable_bonds>  (161) 
3

>  <r_i_docking_score>  (161) 
-3.88285

>  <r_i_glide_ligand_efficiency>  (161) 
-0.149341

>  <r_i_glide_ligand_efficiency_sa>  (161) 
-0.442421

>  <r_i_glide_ligand_efficiency_ln>  (161) 
-0.911876

>  <r_i_glide_gscore>  (161) 
-3.88285

>  <r_i_glide_lipo>  (161) 
-0.540303

>  <r_i_glide_hbond>  (161) 
-0.0587597

>  <r_i_glide_metal>  (161) 
-0

>  <r_i_glide_rewards>  (161) 
-1.07521

>  <r_i_glide_evdw>  (161) 
-28.1023

>  <r_i_glide_ecoul>  (161) 
-7.20392

>  <r_i_glide_erotb>  (161) 
0.449599

>  <r_i_glide_esite>  (161) 
-0.172478

>  <r_i_glide_emodel>  (161) 
-46.8082

>  <r_i_glide_energy>  (161) 
-35.3062

>  <r_i_glide_einternal>  (161) 
0.523447

>  <r_i_glide_intrahb_reward>  (161) 
-0

>  <i_i_glide_confnum>  (161) 
4

>  <i_i_glide_posenum>  (161) 
20

>  <r_i_glide_eff_state_penalty>  (161) 
0

>  <ligand_id>  (161) 
50

>  <original_smiles>  (161) 
O=C(C1CC1)N1Cc2nccn2CC12CCN(c1ncc(F)cn1)CC2

>  <smiles>  (161) 
[H]c1nc(N2C([H])([H])C([H])([H])C3(N(C(=O)C4([H])C([H])([H])C4([H])[H])C([H])([H])c4n(c([H])c([H])[n+]4[H])C3([H])[H])C([H])([H])C2([H])[H])nc([H])c1F

$$$$
50:0:1
     RDKit          3D

 48 52  0  0  1  0  0  0  0  0999 V2000
    0.1168   -6.7780    2.1357 O   0  0  0  0  0  0  0  0  0  0  0  0
    0.4950   -7.9099    2.4615 C   0  0  0  0  0  0  0  0  0  0  0  0
   -0.4579   -8.8132    3.1962 C   0  0  0  0  0  0  0  0  0  0  0  0
   -1.9235   -8.6352    2.8690 C   0  0  0  0  0  0  0  0  0  0  0  0
   -1.3920   -8.1607    4.1935 C   0  0  0  0  0  0  0  0  0  0  0  0
    1.7680   -8.3611    2.2639 N   0  0  0  0  0  0  0  0  0  0  0  0
    2.0450   -9.8089    2.1137 C   0  0  0  0  0  0  0  0  0  0  0  0
    2.8513  -10.2646    3.2916 C   0  0  0  0  0  0  0  0  0  0  0  0
    3.0800  -11.5147    3.7070 N   0  0  0  0  0  0  0  0  0  0  0  0
    3.8538  -11.4944    4.8426 C   0  0  0  0  0  0  0  0  0  0  0  0
    4.1254  -10.1747    5.1149 C   0  0  0  0  0  0  0  0  0  0  0  0
    3.5016   -9.4477    4.1342 N   0  0  0  0  0  0  0  0  0  0  0  0
    3.4187   -7.9912    3.9966 C   0  0  0  0  0  0  0  0  0  0  0  0
    3.0031   -7.5578    2.5584 C   0  0  0  0  0  0  0  0  0  0  0  0
    2.7664   -6.0181    2.5518 C   0  0  0  0  0  0  0  0  0  0  0  0
    4.0361   -5.2002    2.7751 C   0  0  0  0  0  0  0  0  0  0  0  0
    5.0566   -5.5643    1.8058 N   0  0  0  0  0  0  0  0  0  0  0  0
    5.6542   -4.6171    0.9869 C   0  0  0  0  0  0  0  0  0  0  0  0
    6.9466   -4.7866    0.6967 N   0  0  0  0  0  0  0  0  0  0  0  0
    7.5257   -3.8567   -0.0876 C   0  0  0  0  0  0  0  0  0  0  0  0
    6.7923   -2.7853   -0.6161 C   0  0  0  0  0  0  0  0  0  0  0  0
    7.3473   -1.8948   -1.4539 F   0  0  0  0  0  0  0  0  0  0  0  0
    5.4415   -2.7035   -0.2501 C   0  0  0  0  0  0  0  0  0  0  0  0
    4.8792   -3.6174    0.5661 N   0  0  0  0  0  0  0  0  0  0  0  0
    5.4013   -6.9770    1.7504 C   0  0  0  0  0  0  0  0  0  0  0  0
    4.1423   -7.8349    1.5145 C   0  0  0  0  0  0  0  0  0  0  0  0
   -0.1172   -9.7927    3.5312 H   0  0  0  0  0  0  0  0  0  0  0  0
   -2.1979   -7.8756    2.1384 H   0  0  0  0  0  0  0  0  0  0  0  0
   -2.5320   -9.5357    2.8525 H   0  0  0  0  0  0  0  0  0  0  0  0
   -1.6453   -8.7512    5.0725 H   0  0  0  0  0  0  0  0  0  0  0  0
   -1.2916   -7.0903    4.3689 H   0  0  0  0  0  0  0  0  0  0  0  0
    1.1710  -10.4528    2.0329 H   0  0  0  0  0  0  0  0  0  0  0  0
    2.6240  -10.0023    1.2126 H   0  0  0  0  0  0  0  0  0  0  0  0
    4.1430  -12.3948    5.3682 H   0  0  0  0  0  0  0  0  0  0  0  0
    4.6900   -9.7190    5.9191 H   0  0  0  0  0  0  0  0  0  0  0  0
    2.6814   -7.6484    4.7270 H   0  0  0  0  0  0  0  0  0  0  0  0
    4.3826   -7.5788    4.2929 H   0  0  0  0  0  0  0  0  0  0  0  0
    2.3395   -5.7184    1.5944 H   0  0  0  0  0  0  0  0  0  0  0  0
    2.0685   -5.7307    3.3367 H   0  0  0  0  0  0  0  0  0  0  0  0
    3.7889   -4.1407    2.7355 H   0  0  0  0  0  0  0  0  0  0  0  0
    4.4228   -5.3777    3.7766 H   0  0  0  0  0  0  0  0  0  0  0  0
    8.5716   -4.0028   -0.3280 H   0  0  0  0  0  0  0  0  0  0  0  0
    4.8130   -1.9026   -0.6168 H   0  0  0  0  0  0  0  0  0  0  0  0
    6.1277   -7.1792    0.9645 H   0  0  0  0  0  0  0  0  0  0  0  0
    5.8833   -7.2619    2.6850 H   0  0  0  0  0  0  0  0  0  0  0  0
    4.4770   -8.8725    1.5209 H   0  0  0  0  0  0  0  0  0  0  0  0
    3.7731   -7.6461    0.5055 H   0  0  0  0  0  0  0  0  0  0  0  0
    2.7164  -12.3521    3.2626 H   0  0  0  0  0  0  0  0  0  0  0  0
  1  2  2  0
  2  3  1  0
  2  6  1  0
  3  5  1  0
  3  4  1  0
  3 27  1  0
  4  5  1  0
  4 28  1  0
  4 29  1  0
  5 30  1  0
  5 31  1  0
  6 14  1  0
  6  7  1  0
  7  8  1  0
  7 32  1  0
  7 33  1  0
  8 12  1  0
  8  9  2  0
  9 10  1  0
  9 48  1  0
 10 11  2  0
 10 34  1  0
 11 12  1  0
 11 35  1  0
 12 13  1  0
 13 14  1  0
 13 36  1  0
 13 37  1  0
 14 26  1  0
 14 15  1  0
 15 16  1  0
 15 38  1  0
 15 39  1  0
 16 17  1  0
 16 40  1  0
 16 41  1  0
 17 18  1  0
 17 25  1  0
 18 24  1  0
 18 19  2  0
 19 20  1  0
 20 21  2  0
 20 42  1  0
 21 22  1  0
 21 23  1  0
 23 24  2  0
 23 43  1  0
 25 26  1  0
 25 44  1  0
 25 45  1  0
 26 46  1  0
 26 47  1  0
M  CHG  1   9   1
M  END
>  <i_m_ct_stereo_status>  (162) 
1

>  <s_m_source_file>  (162) 
/var/tmp/pbs.5076255.sched01/tmpmqqk35eb/391x3533zq.sdf

>  <i_m_source_file_index>  (162) 
25

>  <i_lp_mmshare_version>  (162) 
48012

>  <i_f3d_flags>  (162) 
0

>  <s_epik_input>  (162) 
bjFbY0hdW2NIXW4oW0NIMl0yKWMxW0NIMl1OKEMoPU8pW0NIXTNbQ0gyXVtDSDJdMylDMjRbQ0gyXVtDSDJdTihbQ0gyXVtDSDJdNCljNW5bY0hdYyhGKVtjSF1uNQ==

>  <s_epik_cmdline>  (162) 
J2VwaWtfcHl0aG9uJywgJy1waHQnLCAnMi4wJywgJy1waCcsICc3LjAnLCAnLXRuJywgJzgnLCAnLW1hJywgJzIwMCcsICctaW1hZScsICc8aW5maWxlLm1hZT4nLCAnLW9tYWUnLCAnPG91dGZpbGUubWFlPic=

>  <r_lp_tautomer_probability>  (162) 
1

>  <r_epik_Ionization_Penalty>  (162) 
0.079696

>  <r_epik_Ionization_Penalty_Charging>  (162) 
0

>  <r_epik_Ionization_Penalty_Neutral>  (162) 
0.079696

>  <r_epik_State_Penalty>  (162) 
0.0705278

>  <r_epik_Charging_Adjusted_Penalty>  (162) 
0.0705278

>  <i_epik_Tot_Q>  (162) 
1

>  <i_epik_Tot_abs_Q>  (162) 
1

>  <s_lp_Force_Field>  (162) 
OPLS3e

>  <r_lp_Energy>  (162) 
90.8622

>  <b_lp_Chiralities_Consistent>  (162) 
1

>  <s_lp_Variant>  (162) 
50:0-1

>  <s_i_glide_gridfile>  (162) 
pfpi4k_grid

>  <i_i_glide_lignum>  (162) 
25

>  <i_i_glide_rotatable_bonds>  (162) 
3

>  <r_i_docking_score>  (162) 
-3.72237

>  <r_i_glide_ligand_efficiency>  (162) 
-0.143168

>  <r_i_glide_ligand_efficiency_sa>  (162) 
-0.424134

>  <r_i_glide_ligand_efficiency_ln>  (162) 
-0.874185

>  <r_i_glide_gscore>  (162) 
-3.72237

>  <r_i_glide_lipo>  (162) 
-0.300479

>  <r_i_glide_hbond>  (162) 
-0.069867

>  <r_i_glide_metal>  (162) 
-0

>  <r_i_glide_rewards>  (162) 
-1.11152

>  <r_i_glide_evdw>  (162) 
-25.1572

>  <r_i_glide_ecoul>  (162) 
-8.42472

>  <r_i_glide_erotb>  (162) 
0.449599

>  <r_i_glide_esite>  (162) 
-0.168531

>  <r_i_glide_emodel>  (162) 
-44.087

>  <r_i_glide_energy>  (162) 
-33.5819

>  <r_i_glide_einternal>  (162) 
1.63136

>  <r_i_glide_intrahb_reward>  (162) 
-0

>  <i_i_glide_confnum>  (162) 
4

>  <i_i_glide_posenum>  (162) 
38

>  <r_i_glide_eff_state_penalty>  (162) 
0

>  <ligand_id>  (162) 
50

>  <original_smiles>  (162) 
O=C(C1CC1)N1Cc2nccn2CC12CCN(c1ncc(F)cn1)CC2

>  <smiles>  (162) 
[H]c1nc(N2C([H])([H])C([H])([H])C3(N(C(=O)C4([H])C([H])([H])C4([H])[H])C([H])([H])c4n(c([H])c([H])[n+]4[H])C3([H])[H])C([H])([H])C2([H])[H])nc([H])c1F

$$$$
50:0:2
     RDKit          3D

 48 52  0  0  1  0  0  0  0  0999 V2000
   -0.1844   -6.6996    1.8974 O   0  0  0  0  0  0  0  0  0  0  0  0
    0.4378   -7.7372    2.1753 C   0  0  0  0  0  0  0  0  0  0  0  0
   -0.2468   -8.8093    2.9714 C   0  0  0  0  0  0  0  0  0  0  0  0
   -1.7475   -8.8738    2.8487 C   0  0  0  0  0  0  0  0  0  0  0  0
   -1.1166   -8.3619    4.1187 C   0  0  0  0  0  0  0  0  0  0  0  0
    1.7566   -7.9171    1.8863 N   0  0  0  0  0  0  0  0  0  0  0  0
    2.3437   -9.2695    1.6999 C   0  0  0  0  0  0  0  0  0  0  0  0
    3.3178   -9.4996    2.8084 C   0  0  0  0  0  0  0  0  0  0  0  0
    3.8472  -10.6576    3.2077 N   0  0  0  0  0  0  0  0  0  0  0  0
    4.6897  -10.4408    4.2707 C   0  0  0  0  0  0  0  0  0  0  0  0
    4.6902   -9.0962    4.5149 C   0  0  0  0  0  0  0  0  0  0  0  0
    3.8358   -8.5496    3.5952 N   0  0  0  0  0  0  0  0  0  0  0  0
    3.4312   -7.1533    3.4546 C   0  0  0  0  0  0  0  0  0  0  0  0
    2.8103   -6.8540    2.0663 C   0  0  0  0  0  0  0  0  0  0  0  0
    2.2673   -5.3931    2.0644 C   0  0  0  0  0  0  0  0  0  0  0  0
    3.3443   -4.3195    2.1811 C   0  0  0  0  0  0  0  0  0  0  0  0
    4.3234   -4.4663    1.1126 N   0  0  0  0  0  0  0  0  0  0  0  0
    4.6140   -3.4280    0.2313 C   0  0  0  0  0  0  0  0  0  0  0  0
    5.4134   -3.6896   -0.8058 N   0  0  0  0  0  0  0  0  0  0  0  0
    5.6699   -2.6881   -1.6636 C   0  0  0  0  0  0  0  0  0  0  0  0
    5.1344   -1.4050   -1.4675 C   0  0  0  0  0  0  0  0  0  0  0  0
    5.3810   -0.3958   -2.3166 F   0  0  0  0  0  0  0  0  0  0  0  0
    4.3182   -1.2241   -0.3426 C   0  0  0  0  0  0  0  0  0  0  0  0
    4.0765   -2.2377    0.5030 N   0  0  0  0  0  0  0  0  0  0  0  0
    4.9573   -5.7761    1.0424 C   0  0  0  0  0  0  0  0  0  0  0  0
    3.8982   -6.8826    0.9352 C   0  0  0  0  0  0  0  0  0  0  0  0
    0.2839   -9.7259    3.2165 H   0  0  0  0  0  0  0  0  0  0  0  0
   -2.2508   -8.1557    2.2031 H   0  0  0  0  0  0  0  0  0  0  0  0
   -2.1827   -9.8642    2.8533 H   0  0  0  0  0  0  0  0  0  0  0  0
   -1.1369   -9.0274    4.9779 H   0  0  0  0  0  0  0  0  0  0  0  0
   -1.1764   -7.3002    4.3469 H   0  0  0  0  0  0  0  0  0  0  0  0
    1.6500  -10.1068    1.6620 H   0  0  0  0  0  0  0  0  0  0  0  0
    2.8891   -9.3483    0.7639 H   0  0  0  0  0  0  0  0  0  0  0  0
    5.2189  -11.2389    4.7694 H   0  0  0  0  0  0  0  0  0  0  0  0
    5.2112   -8.5053    5.2610 H   0  0  0  0  0  0  0  0  0  0  0  0
    2.7079   -6.9542    4.2442 H   0  0  0  0  0  0  0  0  0  0  0  0
    4.3044   -6.5342    3.6499 H   0  0  0  0  0  0  0  0  0  0  0  0
    1.7217   -5.2109    1.1381 H   0  0  0  0  0  0  0  0  0  0  0  0
    1.5939   -5.2213    2.9017 H   0  0  0  0  0  0  0  0  0  0  0  0
    2.8217   -3.3640    2.1798 H   0  0  0  0  0  0  0  0  0  0  0  0
    3.8423   -4.3808    3.1439 H   0  0  0  0  0  0  0  0  0  0  0  0
    6.3156   -2.9117   -2.4980 H   0  0  0  0  0  0  0  0  0  0  0  0
    3.8692   -0.2683   -0.1057 H   0  0  0  0  0  0  0  0  0  0  0  0
    5.6467   -5.8739    0.2038 H   0  0  0  0  0  0  0  0  0  0  0  0
    5.5637   -5.9254    1.9300 H   0  0  0  0  0  0  0  0  0  0  0  0
    4.4560   -7.8205    0.8888 H   0  0  0  0  0  0  0  0  0  0  0  0
    3.4128   -6.7455   -0.0273 H   0  0  0  0  0  0  0  0  0  0  0  0
    3.6520  -11.5423    2.7692 H   0  0  0  0  0  0  0  0  0  0  0  0
  1  2  2  0
  2  3  1  0
  2  6  1  0
  3  5  1  0
  3  4  1  0
  3 27  1  0
  4  5  1  0
  4 28  1  0
  4 29  1  0
  5 30  1  0
  5 31  1  0
  6 14  1  0
  6  7  1  0
  7  8  1  0
  7 32  1  0
  7 33  1  0
  8 12  1  0
  8  9  2  0
  9 10  1  0
  9 48  1  0
 10 11  2  0
 10 34  1  0
 11 12  1  0
 11 35  1  0
 12 13  1  0
 13 14  1  0
 13 36  1  0
 13 37  1  0
 14 26  1  0
 14 15  1  0
 15 16  1  0
 15 38  1  0
 15 39  1  0
 16 17  1  0
 16 40  1  0
 16 41  1  0
 17 18  1  0
 17 25  1  0
 18 24  1  0
 18 19  2  0
 19 20  1  0
 20 21  2  0
 20 42  1  0
 21 22  1  0
 21 23  1  0
 23 24  2  0
 23 43  1  0
 25 26  1  0
 25 44  1  0
 25 45  1  0
 26 46  1  0
 26 47  1  0
M  CHG  1   9   1
M  END
>  <i_m_ct_stereo_status>  (163) 
1

>  <s_m_source_file>  (163) 
/var/tmp/pbs.5076255.sched01/tmpmqqk35eb/391x3533zq.sdf

>  <i_m_source_file_index>  (163) 
25

>  <i_lp_mmshare_version>  (163) 
48012

>  <i_f3d_flags>  (163) 
0

>  <s_epik_input>  (163) 
bjFbY0hdW2NIXW4oW0NIMl0yKWMxW0NIMl1OKEMoPU8pW0NIXTNbQ0gyXVtDSDJdMylDMjRbQ0gyXVtDSDJdTihbQ0gyXVtDSDJdNCljNW5bY0hdYyhGKVtjSF1uNQ==

>  <s_epik_cmdline>  (163) 
J2VwaWtfcHl0aG9uJywgJy1waHQnLCAnMi4wJywgJy1waCcsICc3LjAnLCAnLXRuJywgJzgnLCAnLW1hJywgJzIwMCcsICctaW1hZScsICc8aW5maWxlLm1hZT4nLCAnLW9tYWUnLCAnPG91dGZpbGUubWFlPic=

>  <r_lp_tautomer_probability>  (163) 
1

>  <r_epik_Ionization_Penalty>  (163) 
0.079696

>  <r_epik_Ionization_Penalty_Charging>  (163) 
0

>  <r_epik_Ionization_Penalty_Neutral>  (163) 
0.079696

>  <r_epik_State_Penalty>  (163) 
0.0705278

>  <r_epik_Charging_Adjusted_Penalty>  (163) 
0.0705278

>  <i_epik_Tot_Q>  (163) 
1

>  <i_epik_Tot_abs_Q>  (163) 
1

>  <s_lp_Force_Field>  (163) 
OPLS3e

>  <r_lp_Energy>  (163) 
90.8622

>  <b_lp_Chiralities_Consistent>  (163) 
1

>  <s_lp_Variant>  (163) 
50:0-1

>  <s_i_glide_gridfile>  (163) 
pfpi4k_grid

>  <i_i_glide_lignum>  (163) 
25

>  <i_i_glide_rotatable_bonds>  (163) 
3

>  <r_i_docking_score>  (163) 
-3.4604

>  <r_i_glide_ligand_efficiency>  (163) 
-0.133092

>  <r_i_glide_ligand_efficiency_sa>  (163) 
-0.394285

>  <r_i_glide_ligand_efficiency_ln>  (163) 
-0.812663

>  <r_i_glide_gscore>  (163) 
-3.4604

>  <r_i_glide_lipo>  (163) 
-0.226995

>  <r_i_glide_hbond>  (163) 
-0.184483

>  <r_i_glide_metal>  (163) 
-0

>  <r_i_glide_rewards>  (163) 
-1.04908

>  <r_i_glide_evdw>  (163) 
-28.2186

>  <r_i_glide_ecoul>  (163) 
-5.69739

>  <r_i_glide_erotb>  (163) 
0.449599

>  <r_i_glide_esite>  (163) 
-0.183898

>  <r_i_glide_emodel>  (163) 
-44.2031

>  <r_i_glide_energy>  (163) 
-33.916

>  <r_i_glide_einternal>  (163) 
0.201752

>  <r_i_glide_intrahb_reward>  (163) 
-0

>  <i_i_glide_confnum>  (163) 
4

>  <i_i_glide_posenum>  (163) 
32

>  <r_i_glide_eff_state_penalty>  (163) 
0

>  <ligand_id>  (163) 
50

>  <original_smiles>  (163) 
O=C(C1CC1)N1Cc2nccn2CC12CCN(c1ncc(F)cn1)CC2

>  <smiles>  (163) 
[H]c1nc(N2C([H])([H])C([H])([H])C3(N(C(=O)C4([H])C([H])([H])C4([H])[H])C([H])([H])c4n(c([H])c([H])[n+]4[H])C3([H])[H])C([H])([H])C2([H])[H])nc([H])c1F

$$$$
50:1:0
     RDKit          3D

 47 51  0  0  1  0  0  0  0  0999 V2000
   -0.2564   -6.6970    1.7058 O   0  0  0  0  0  0  0  0  0  0  0  0
    0.3559   -7.6596    2.1792 C   0  0  0  0  0  0  0  0  0  0  0  0
   -0.3445   -8.6290    3.0966 C   0  0  0  0  0  0  0  0  0  0  0  0
   -1.8208   -8.8452    2.8764 C   0  0  0  0  0  0  0  0  0  0  0  0
   -1.3572   -8.0411    4.0606 C   0  0  0  0  0  0  0  0  0  0  0  0
    1.6940   -7.8534    1.9847 N   0  0  0  0  0  0  0  0  0  0  0  0
    2.2528   -9.2254    1.9153 C   0  0  0  0  0  0  0  0  0  0  0  0
    3.2269   -9.4351    3.0423 C   0  0  0  0  0  0  0  0  0  0  0  0
    3.7168  -10.6077    3.4207 N   0  0  0  0  0  0  0  0  0  0  0  0
    4.5464  -10.3056    4.4982 C   0  0  0  0  0  0  0  0  0  0  0  0
    4.5503   -8.9490    4.7205 C   0  0  0  0  0  0  0  0  0  0  0  0
    3.7017   -8.4071    3.7669 N   0  0  0  0  0  0  0  0  0  0  0  0
    3.3091   -7.0251    3.6024 C   0  0  0  0  0  0  0  0  0  0  0  0
    2.7315   -6.7836    2.1803 C   0  0  0  0  0  0  0  0  0  0  0  0
    2.1635   -5.3374    2.1292 C   0  0  0  0  0  0  0  0  0  0  0  0
    3.2356   -4.2561    2.2526 C   0  0  0  0  0  0  0  0  0  0  0  0
    4.2554   -4.4279    1.2184 N   0  0  0  0  0  0  0  0  0  0  0  0
    4.5768   -3.4120    0.3149 C   0  0  0  0  0  0  0  0  0  0  0  0
    5.3940   -3.7171   -0.6960 N   0  0  0  0  0  0  0  0  0  0  0  0
    5.6685   -2.7419   -1.5838 C   0  0  0  0  0  0  0  0  0  0  0  0
    5.1264   -1.4501   -1.4433 C   0  0  0  0  0  0  0  0  0  0  0  0
    5.3892   -0.4708   -2.3268 F   0  0  0  0  0  0  0  0  0  0  0  0
    4.2907   -1.2308   -0.3359 C   0  0  0  0  0  0  0  0  0  0  0  0
    4.0286   -2.2166    0.5402 N   0  0  0  0  0  0  0  0  0  0  0  0
    4.8920   -5.7452    1.1993 C   0  0  0  0  0  0  0  0  0  0  0  0
    3.8426   -6.8594    1.0806 C   0  0  0  0  0  0  0  0  0  0  0  0
    0.2275   -9.4418    3.5422 H   0  0  0  0  0  0  0  0  0  0  0  0
   -2.2882   -8.3221    2.0465 H   0  0  0  0  0  0  0  0  0  0  0  0
   -2.1697   -9.8526    3.0480 H   0  0  0  0  0  0  0  0  0  0  0  0
   -1.4255   -8.5149    5.0366 H   0  0  0  0  0  0  0  0  0  0  0  0
   -1.5283   -6.9647    4.0541 H   0  0  0  0  0  0  0  0  0  0  0  0
    1.5087  -10.0275    1.9338 H   0  0  0  0  0  0  0  0  0  0  0  0
    2.7605   -9.3586    0.9581 H   0  0  0  0  0  0  0  0  0  0  0  0
    5.0581  -11.0919    5.0222 H   0  0  0  0  0  0  0  0  0  0  0  0
    5.0602   -8.3483    5.4591 H   0  0  0  0  0  0  0  0  0  0  0  0
    2.5607   -6.7936    4.3676 H   0  0  0  0  0  0  0  0  0  0  0  0
    4.1733   -6.3928    3.8113 H   0  0  0  0  0  0  0  0  0  0  0  0
    1.6507   -5.1759    1.1807 H   0  0  0  0  0  0  0  0  0  0  0  0
    1.4402   -5.1718    2.9310 H   0  0  0  0  0  0  0  0  0  0  0  0
    2.7260   -3.2935    2.2046 H   0  0  0  0  0  0  0  0  0  0  0  0
    3.7119   -4.2860    3.2302 H   0  0  0  0  0  0  0  0  0  0  0  0
    6.3294   -2.9883   -2.4032 H   0  0  0  0  0  0  0  0  0  0  0  0
    3.8409   -0.2675   -0.1455 H   0  0  0  0  0  0  0  0  0  0  0  0
    5.6126   -5.8594    0.3894 H   0  0  0  0  0  0  0  0  0  0  0  0
    5.4738   -5.8655    2.1117 H   0  0  0  0  0  0  0  0  0  0  0  0
    4.3838   -7.8044    1.1097 H   0  0  0  0  0  0  0  0  0  0  0  0
    3.4083   -6.7902    0.0846 H   0  0  0  0  0  0  0  0  0  0  0  0
  1  2  2  0
  2  3  1  0
  2  6  1  0
  3  5  1  0
  3  4  1  0
  3 27  1  0
  4  5  1  0
  4 28  1  0
  4 29  1  0
  5 30  1  0
  5 31  1  0
  6 14  1  0
  6  7  1  0
  7  8  1  0
  7 32  1  0
  7 33  1  0
  8 12  1  0
  8  9  2  0
  9 10  1  0
 10 11  2  0
 10 34  1  0
 11 12  1  0
 11 35  1  0
 12 13  1  0
 13 14  1  0
 13 36  1  0
 13 37  1  0
 14 26  1  0
 14 15  1  0
 15 16  1  0
 15 38  1  0
 15 39  1  0
 16 17  1  0
 16 40  1  0
 16 41  1  0
 17 18  1  0
 17 25  1  0
 18 24  1  0
 18 19  2  0
 19 20  1  0
 20 21  2  0
 20 42  1  0
 21 22  1  0
 21 23  1  0
 23 24  2  0
 23 43  1  0
 25 26  1  0
 25 44  1  0
 25 45  1  0
 26 46  1  0
 26 47  1  0
M  END
>  <i_m_ct_stereo_status>  (164) 
1

>  <s_m_source_file>  (164) 
/var/tmp/pbs.5076255.sched01/tmpmqqk35eb/391x3533zq.sdf

>  <i_m_source_file_index>  (164) 
26

>  <i_lp_mmshare_version>  (164) 
48012

>  <i_f3d_flags>  (164) 
0

>  <s_epik_input>  (164) 
bjFbY0hdW2NIXW4oW0NIMl0yKWMxW0NIMl1OKEMoPU8pW0NIXTNbQ0gyXVtDSDJdMylDMjRbQ0gyXVtDSDJdTihbQ0gyXVtDSDJdNCljNW5bY0hdYyhGKVtjSF1uNQ==

>  <s_epik_cmdline>  (164) 
J2VwaWtfcHl0aG9uJywgJy1waHQnLCAnMi4wJywgJy1waCcsICc3LjAnLCAnLXRuJywgJzgnLCAnLW1hJywgJzIwMCcsICctaW1hZScsICc8aW5maWxlLm1hZT4nLCAnLW9tYWUnLCAnPG91dGZpbGUubWFlPic=

>  <r_lp_tautomer_probability>  (164) 
1

>  <r_epik_Ionization_Penalty>  (164) 
1.22805

>  <r_epik_Ionization_Penalty_Charging>  (164) 
1.22804

>  <r_epik_Ionization_Penalty_Neutral>  (164) 
8.49682e-06

>  <r_epik_State_Penalty>  (164) 
1.29591

>  <r_epik_Charging_Adjusted_Penalty>  (164) 
2.52396

>  <i_epik_Tot_Q>  (164) 
0

>  <i_epik_Tot_abs_Q>  (164) 
0

>  <s_lp_Force_Field>  (164) 
OPLS3e

>  <r_lp_Energy>  (164) 
80.5906

>  <b_lp_Chiralities_Consistent>  (164) 
1

>  <s_lp_Variant>  (164) 
50:0-2

>  <s_i_glide_gridfile>  (164) 
pfpi4k_grid

>  <i_i_glide_lignum>  (164) 
26

>  <i_i_glide_rotatable_bonds>  (164) 
3

>  <r_i_docking_score>  (164) 
-3.03341

>  <r_i_glide_ligand_efficiency>  (164) 
-0.11667

>  <r_i_glide_ligand_efficiency_sa>  (164) 
-0.345633

>  <r_i_glide_ligand_efficiency_ln>  (164) 
-0.712387

>  <r_i_glide_gscore>  (164) 
-3.03341

>  <r_i_glide_lipo>  (164) 
-0.208352

>  <r_i_glide_hbond>  (164) 
-0.21358

>  <r_i_glide_metal>  (164) 
-0

>  <r_i_glide_rewards>  (164) 
-1.04864

>  <r_i_glide_evdw>  (164) 
-29.431

>  <r_i_glide_ecoul>  (164) 
-2.70336

>  <r_i_glide_erotb>  (164) 
0.451866

>  <r_i_glide_esite>  (164) 
-0.137654

>  <r_i_glide_emodel>  (164) 
-36.8424

>  <r_i_glide_energy>  (164) 
-32.1343

>  <r_i_glide_einternal>  (164) 
3.09497

>  <r_i_glide_intrahb_reward>  (164) 
-0

>  <i_i_glide_confnum>  (164) 
6

>  <i_i_glide_posenum>  (164) 
2

>  <r_i_glide_eff_state_penalty>  (164) 
0

>  <ligand_id>  (164) 
50

>  <original_smiles>  (164) 
O=C(C1CC1)N1Cc2nccn2CC12CCN(c1ncc(F)cn1)CC2

>  <smiles>  (164) 
[H]c1nc(N2C([H])([H])C([H])([H])C3(N(C(=O)C4([H])C([H])([H])C4([H])[H])C([H])([H])c4nc([H])c([H])n4C3([H])[H])C([H])([H])C2([H])[H])nc([H])c1F

$$$$
50:1:1
     RDKit          3D

 47 51  0  0  1  0  0  0  0  0999 V2000
    0.2117   -7.0121    1.4231 O   0  0  0  0  0  0  0  0  0  0  0  0
    1.0135   -7.6838    2.0915 C   0  0  0  0  0  0  0  0  0  0  0  0
    0.5269   -8.4648    3.2801 C   0  0  0  0  0  0  0  0  0  0  0  0
   -0.8568   -9.0574    3.1980 C   0  0  0  0  0  0  0  0  0  0  0  0
   -0.6025   -7.8662    4.0873 C   0  0  0  0  0  0  0  0  0  0  0  0
    2.3568   -7.6436    1.8895 N   0  0  0  0  0  0  0  0  0  0  0  0
    3.1956   -8.8415    2.1497 C   0  0  0  0  0  0  0  0  0  0  0  0
    4.1907   -8.5323    3.2329 C   0  0  0  0  0  0  0  0  0  0  0  0
    4.9215   -9.4318    3.8821 N   0  0  0  0  0  0  0  0  0  0  0  0
    5.6636   -8.6847    4.7954 C   0  0  0  0  0  0  0  0  0  0  0  0
    5.3775   -7.3503    4.6491 C   0  0  0  0  0  0  0  0  0  0  0  0
    4.4300   -7.2767    3.6359 N   0  0  0  0  0  0  0  0  0  0  0  0
    3.7620   -6.0983    3.1331 C   0  0  0  0  0  0  0  0  0  0  0  0
    3.1466   -6.3731    1.7336 C   0  0  0  0  0  0  0  0  0  0  0  0
    2.2918   -5.1358    1.3256 C   0  0  0  0  0  0  0  0  0  0  0  0
    3.1144   -3.8662    1.0987 C   0  0  0  0  0  0  0  0  0  0  0  0
    4.1459   -4.1031    0.0958 N   0  0  0  0  0  0  0  0  0  0  0  0
    4.2443   -3.3290   -1.0647 C   0  0  0  0  0  0  0  0  0  0  0  0
    5.1255   -3.7041   -1.9910 N   0  0  0  0  0  0  0  0  0  0  0  0
    5.1765   -2.9819   -3.1202 C   0  0  0  0  0  0  0  0  0  0  0  0
    4.3661   -1.8448   -3.3223 C   0  0  0  0  0  0  0  0  0  0  0  0
    4.4197   -1.0991   -4.4477 F   0  0  0  0  0  0  0  0  0  0  0  0
    3.4932   -1.5203   -2.2702 C   0  0  0  0  0  0  0  0  0  0  0  0
    3.4507   -2.2651   -1.1497 N   0  0  0  0  0  0  0  0  0  0  0  0
    5.0410   -5.2165    0.3899 C   0  0  0  0  0  0  0  0  0  0  0  0
    4.2495   -6.5144    0.6310 C   0  0  0  0  0  0  0  0  0  0  0  0
    1.2600   -8.9728    3.9051 H   0  0  0  0  0  0  0  0  0  0  0  0
   -1.4126   -8.9120    2.2712 H   0  0  0  0  0  0  0  0  0  0  0  0
   -0.9636  -10.0320    3.6637 H   0  0  0  0  0  0  0  0  0  0  0  0
   -0.5851   -8.0458    5.1583 H   0  0  0  0  0  0  0  0  0  0  0  0
   -1.0127   -6.9049    3.7863 H   0  0  0  0  0  0  0  0  0  0  0  0
    2.6408   -9.7413    2.4152 H   0  0  0  0  0  0  0  0  0  0  0  0
    3.7223   -9.1153    1.2393 H   0  0  0  0  0  0  0  0  0  0  0  0
    6.3340   -9.1797    5.4870 H   0  0  0  0  0  0  0  0  0  0  0  0
    5.7483   -6.4777    5.1767 H   0  0  0  0  0  0  0  0  0  0  0  0
    2.9840   -5.8239    3.8467 H   0  0  0  0  0  0  0  0  0  0  0  0
    4.4726   -5.2726    3.1161 H   0  0  0  0  0  0  0  0  0  0  0  0
    1.7593   -5.3473    0.3956 H   0  0  0  0  0  0  0  0  0  0  0  0
    1.5503   -4.9110    2.0946 H   0  0  0  0  0  0  0  0  0  0  0  0
    2.4127   -3.0789    0.8291 H   0  0  0  0  0  0  0  0  0  0  0  0
    3.5796   -3.5352    2.0239 H   0  0  0  0  0  0  0  0  0  0  0  0
    5.8920   -3.3178   -3.8627 H   0  0  0  0  0  0  0  0  0  0  0  0
    2.8396   -0.6603   -2.3160 H   0  0  0  0  0  0  0  0  0  0  0  0
    5.7742   -5.4011   -0.3929 H   0  0  0  0  0  0  0  0  0  0  0  0
    5.6315   -4.9712    1.2699 H   0  0  0  0  0  0  0  0  0  0  0  0
    4.9821   -7.2846    0.8777 H   0  0  0  0  0  0  0  0  0  0  0  0
    3.8140   -6.8258   -0.3158 H   0  0  0  0  0  0  0  0  0  0  0  0
  1  2  2  0
  2  3  1  0
  2  6  1  0
  3  5  1  0
  3  4  1  0
  3 27  1  0
  4  5  1  0
  4 28  1  0
  4 29  1  0
  5 30  1  0
  5 31  1  0
  6 14  1  0
  6  7  1  0
  7  8  1  0
  7 32  1  0
  7 33  1  0
  8 12  1  0
  8  9  2  0
  9 10  1  0
 10 11  2  0
 10 34  1  0
 11 12  1  0
 11 35  1  0
 12 13  1  0
 13 14  1  0
 13 36  1  0
 13 37  1  0
 14 26  1  0
 14 15  1  0
 15 16  1  0
 15 38  1  0
 15 39  1  0
 16 17  1  0
 16 40  1  0
 16 41  1  0
 17 18  1  0
 17 25  1  0
 18 24  1  0
 18 19  2  0
 19 20  1  0
 20 21  2  0
 20 42  1  0
 21 22  1  0
 21 23  1  0
 23 24  2  0
 23 43  1  0
 25 26  1  0
 25 44  1  0
 25 45  1  0
 26 46  1  0
 26 47  1  0
M  END
>  <i_m_ct_stereo_status>  (165) 
1

>  <s_m_source_file>  (165) 
/var/tmp/pbs.5076255.sched01/tmpmqqk35eb/391x3533zq.sdf

>  <i_m_source_file_index>  (165) 
26

>  <i_lp_mmshare_version>  (165) 
48012

>  <i_f3d_flags>  (165) 
0

>  <s_epik_input>  (165) 
bjFbY0hdW2NIXW4oW0NIMl0yKWMxW0NIMl1OKEMoPU8pW0NIXTNbQ0gyXVtDSDJdMylDMjRbQ0gyXVtDSDJdTihbQ0gyXVtDSDJdNCljNW5bY0hdYyhGKVtjSF1uNQ==

>  <s_epik_cmdline>  (165) 
J2VwaWtfcHl0aG9uJywgJy1waHQnLCAnMi4wJywgJy1waCcsICc3LjAnLCAnLXRuJywgJzgnLCAnLW1hJywgJzIwMCcsICctaW1hZScsICc8aW5maWxlLm1hZT4nLCAnLW9tYWUnLCAnPG91dGZpbGUubWFlPic=

>  <r_lp_tautomer_probability>  (165) 
1

>  <r_epik_Ionization_Penalty>  (165) 
1.22805

>  <r_epik_Ionization_Penalty_Charging>  (165) 
1.22804

>  <r_epik_Ionization_Penalty_Neutral>  (165) 
8.49682e-06

>  <r_epik_State_Penalty>  (165) 
1.29591

>  <r_epik_Charging_Adjusted_Penalty>  (165) 
2.52396

>  <i_epik_Tot_Q>  (165) 
0

>  <i_epik_Tot_abs_Q>  (165) 
0

>  <s_lp_Force_Field>  (165) 
OPLS3e

>  <r_lp_Energy>  (165) 
80.5906

>  <b_lp_Chiralities_Consistent>  (165) 
1

>  <s_lp_Variant>  (165) 
50:0-2

>  <s_i_glide_gridfile>  (165) 
pfpi4k_grid

>  <i_i_glide_lignum>  (165) 
26

>  <i_i_glide_rotatable_bonds>  (165) 
3

>  <r_i_docking_score>  (165) 
-2.99724

>  <r_i_glide_ligand_efficiency>  (165) 
-0.115279

>  <r_i_glide_ligand_efficiency_sa>  (165) 
-0.341512

>  <r_i_glide_ligand_efficiency_ln>  (165) 
-0.703893

>  <r_i_glide_gscore>  (165) 
-2.99724

>  <r_i_glide_lipo>  (165) 
-0.536063

>  <r_i_glide_hbond>  (165) 
0

>  <r_i_glide_metal>  (165) 
-0

>  <r_i_glide_rewards>  (165) 
-0.987159

>  <r_i_glide_evdw>  (165) 
-31.4055

>  <r_i_glide_ecoul>  (165) 
-1.93092

>  <r_i_glide_erotb>  (165) 
0.451866

>  <r_i_glide_esite>  (165) 
-0.0659753

>  <r_i_glide_emodel>  (165) 
-37.9919

>  <r_i_glide_energy>  (165) 
-33.3364

>  <r_i_glide_einternal>  (165) 
3.01018

>  <r_i_glide_intrahb_reward>  (165) 
-0

>  <i_i_glide_confnum>  (165) 
6

>  <i_i_glide_posenum>  (165) 
13

>  <r_i_glide_eff_state_penalty>  (165) 
0

>  <ligand_id>  (165) 
50

>  <original_smiles>  (165) 
O=C(C1CC1)N1Cc2nccn2CC12CCN(c1ncc(F)cn1)CC2

>  <smiles>  (165) 
[H]c1nc(N2C([H])([H])C([H])([H])C3(N(C(=O)C4([H])C([H])([H])C4([H])[H])C([H])([H])c4nc([H])c([H])n4C3([H])[H])C([H])([H])C2([H])[H])nc([H])c1F

$$$$
50:1:2
     RDKit          3D

 47 51  0  0  1  0  0  0  0  0999 V2000
   -1.0471    1.5048    2.0811 O   0  0  0  0  0  0  0  0  0  0  0  0
   -0.9846    1.2740    3.2847 C   0  0  0  0  0  0  0  0  0  0  0  0
   -1.5483    2.2287    4.2963 C   0  0  0  0  0  0  0  0  0  0  0  0
   -2.8094    2.9673    3.9267 C   0  0  0  0  0  0  0  0  0  0  0  0
   -1.4949    3.7047    3.9653 C   0  0  0  0  0  0  0  0  0  0  0  0
   -0.3132    0.2036    3.7770 N   0  0  0  0  0  0  0  0  0  0  0  0
   -0.8692   -0.5422    4.9198 C   0  0  0  0  0  0  0  0  0  0  0  0
    0.0930   -0.4926    6.0644 C   0  0  0  0  0  0  0  0  0  0  0  0
   -0.1824   -0.8440    7.3114 N   0  0  0  0  0  0  0  0  0  0  0  0
    1.0025   -0.6014    8.0086 C   0  0  0  0  0  0  0  0  0  0  0  0
    1.9679   -0.1273    7.1422 C   0  0  0  0  0  0  0  0  0  0  0  0
    1.3637   -0.0715    5.8995 N   0  0  0  0  0  0  0  0  0  0  0  0
    1.9253    0.4028    4.6564 C   0  0  0  0  0  0  0  0  0  0  0  0
    1.1130   -0.1191    3.4430 C   0  0  0  0  0  0  0  0  0  0  0  0
    1.6448    0.5693    2.1455 C   0  0  0  0  0  0  0  0  0  0  0  0
    3.0826    0.1719    1.7986 C   0  0  0  0  0  0  0  0  0  0  0  0
    3.2033   -1.2805    1.6629 N   0  0  0  0  0  0  0  0  0  0  0  0
    3.6615   -1.8781    0.4934 C   0  0  0  0  0  0  0  0  0  0  0  0
    3.5417   -3.2073    0.3786 N   0  0  0  0  0  0  0  0  0  0  0  0
    3.9883   -3.7797   -0.7560 C   0  0  0  0  0  0  0  0  0  0  0  0
    4.5630   -3.0198   -1.7954 C   0  0  0  0  0  0  0  0  0  0  0  0
    5.0129   -3.5783   -2.9427 F   0  0  0  0  0  0  0  0  0  0  0  0
    4.6447   -1.6353   -1.5687 C   0  0  0  0  0  0  0  0  0  0  0  0
    4.2229   -1.0804   -0.4220 N   0  0  0  0  0  0  0  0  0  0  0  0
    2.7565   -2.0366    2.8337 C   0  0  0  0  0  0  0  0  0  0  0  0
    1.3159   -1.6574    3.2286 C   0  0  0  0  0  0  0  0  0  0  0  0
   -1.3771    2.0127    5.3452 H   0  0  0  0  0  0  0  0  0  0  0  0
   -3.2505    2.7434    2.9558 H   0  0  0  0  0  0  0  0  0  0  0  0
   -3.5120    3.1226    4.7394 H   0  0  0  0  0  0  0  0  0  0  0  0
   -1.3355    4.3929    4.7891 H   0  0  0  0  0  0  0  0  0  0  0  0
   -1.0574    4.0143    3.0154 H   0  0  0  0  0  0  0  0  0  0  0  0
   -1.8451   -0.1797    5.2506 H   0  0  0  0  0  0  0  0  0  0  0  0
   -1.0314   -1.5756    4.6255 H   0  0  0  0  0  0  0  0  0  0  0  0
    1.0638   -0.7726    9.0754 H   0  0  0  0  0  0  0  0  0  0  0  0
    2.9898    0.1754    7.3128 H   0  0  0  0  0  0  0  0  0  0  0  0
    1.9156    1.4927    4.6781 H   0  0  0  0  0  0  0  0  0  0  0  0
    2.9696    0.1023    4.6093 H   0  0  0  0  0  0  0  0  0  0  0  0
    1.0165    0.3118    1.2892 H   0  0  0  0  0  0  0  0  0  0  0  0
    1.6194    1.6553    2.2446 H   0  0  0  0  0  0  0  0  0  0  0  0
    3.3465    0.7137    0.8926 H   0  0  0  0  0  0  0  0  0  0  0  0
    3.7777    0.5216    2.5582 H   0  0  0  0  0  0  0  0  0  0  0  0
    3.8896   -4.8532   -0.8188 H   0  0  0  0  0  0  0  0  0  0  0  0
    5.0756   -0.9636   -2.2978 H   0  0  0  0  0  0  0  0  0  0  0  0
    2.8139   -3.1161    2.6941 H   0  0  0  0  0  0  0  0  0  0  0  0
    3.4334   -1.8342    3.6608 H   0  0  0  0  0  0  0  0  0  0  0  0
    1.0847   -2.2392    4.1214 H   0  0  0  0  0  0  0  0  0  0  0  0
    0.6264   -2.0181    2.4654 H   0  0  0  0  0  0  0  0  0  0  0  0
  1  2  2  0
  2  3  1  0
  2  6  1  0
  3  5  1  0
  3  4  1  0
  3 27  1  0
  4  5  1  0
  4 28  1  0
  4 29  1  0
  5 30  1  0
  5 31  1  0
  6 14  1  0
  6  7  1  0
  7  8  1  0
  7 32  1  0
  7 33  1  0
  8 12  1  0
  8  9  2  0
  9 10  1  0
 10 11  2  0
 10 34  1  0
 11 12  1  0
 11 35  1  0
 12 13  1  0
 13 14  1  0
 13 36  1  0
 13 37  1  0
 14 26  1  0
 14 15  1  0
 15 16  1  0
 15 38  1  0
 15 39  1  0
 16 17  1  0
 16 40  1  0
 16 41  1  0
 17 18  1  0
 17 25  1  0
 18 24  1  0
 18 19  2  0
 19 20  1  0
 20 21  2  0
 20 42  1  0
 21 22  1  0
 21 23  1  0
 23 24  2  0
 23 43  1  0
 25 26  1  0
 25 44  1  0
 25 45  1  0
 26 46  1  0
 26 47  1  0
M  END
>  <i_m_ct_stereo_status>  (166) 
1

>  <s_m_source_file>  (166) 
/var/tmp/pbs.5076255.sched01/tmpmqqk35eb/391x3533zq.sdf

>  <i_m_source_file_index>  (166) 
26

>  <i_lp_mmshare_version>  (166) 
48012

>  <i_f3d_flags>  (166) 
0

>  <s_epik_input>  (166) 
bjFbY0hdW2NIXW4oW0NIMl0yKWMxW0NIMl1OKEMoPU8pW0NIXTNbQ0gyXVtDSDJdMylDMjRbQ0gyXVtDSDJdTihbQ0gyXVtDSDJdNCljNW5bY0hdYyhGKVtjSF1uNQ==

>  <s_epik_cmdline>  (166) 
J2VwaWtfcHl0aG9uJywgJy1waHQnLCAnMi4wJywgJy1waCcsICc3LjAnLCAnLXRuJywgJzgnLCAnLW1hJywgJzIwMCcsICctaW1hZScsICc8aW5maWxlLm1hZT4nLCAnLW9tYWUnLCAnPG91dGZpbGUubWFlPic=

>  <r_lp_tautomer_probability>  (166) 
1

>  <r_epik_Ionization_Penalty>  (166) 
1.22805

>  <r_epik_Ionization_Penalty_Charging>  (166) 
1.22804

>  <r_epik_Ionization_Penalty_Neutral>  (166) 
8.49682e-06

>  <r_epik_State_Penalty>  (166) 
1.29591

>  <r_epik_Charging_Adjusted_Penalty>  (166) 
2.52396

>  <i_epik_Tot_Q>  (166) 
0

>  <i_epik_Tot_abs_Q>  (166) 
0

>  <s_lp_Force_Field>  (166) 
OPLS3e

>  <r_lp_Energy>  (166) 
80.5906

>  <b_lp_Chiralities_Consistent>  (166) 
1

>  <s_lp_Variant>  (166) 
50:0-2

>  <s_i_glide_gridfile>  (166) 
pfpi4k_grid

>  <i_i_glide_lignum>  (166) 
26

>  <i_i_glide_rotatable_bonds>  (166) 
3

>  <r_i_docking_score>  (166) 
-2.76434

>  <r_i_glide_ligand_efficiency>  (166) 
-0.106321

>  <r_i_glide_ligand_efficiency_sa>  (166) 
-0.314975

>  <r_i_glide_ligand_efficiency_ln>  (166) 
-0.649197

>  <r_i_glide_gscore>  (166) 
-2.76434

>  <r_i_glide_lipo>  (166) 
-0.0407287

>  <r_i_glide_hbond>  (166) 
0

>  <r_i_glide_metal>  (166) 
-0

>  <r_i_glide_rewards>  (166) 
-1.15693

>  <r_i_glide_evdw>  (166) 
-30.4763

>  <r_i_glide_ecoul>  (166) 
-2.36119

>  <r_i_glide_erotb>  (166) 
0.451866

>  <r_i_glide_esite>  (166) 
-0.140556

>  <r_i_glide_emodel>  (166) 
-37.0895

>  <r_i_glide_energy>  (166) 
-32.8375

>  <r_i_glide_einternal>  (166) 
2.92235

>  <r_i_glide_intrahb_reward>  (166) 
-0

>  <i_i_glide_confnum>  (166) 
6

>  <i_i_glide_posenum>  (166) 
21

>  <r_i_glide_eff_state_penalty>  (166) 
0

>  <ligand_id>  (166) 
50

>  <original_smiles>  (166) 
O=C(C1CC1)N1Cc2nccn2CC12CCN(c1ncc(F)cn1)CC2

>  <smiles>  (166) 
[H]c1nc(N2C([H])([H])C([H])([H])C3(N(C(=O)C4([H])C([H])([H])C4([H])[H])C([H])([H])c4nc([H])c([H])n4C3([H])[H])C([H])([H])C2([H])[H])nc([H])c1F

$$$$
52:0:0
     RDKit          3D

 32 34  0  0  1  0  0  0  0  0999 V2000
    6.8987   -6.1320    1.0794 C   0  0  0  0  0  0  0  0  0  0  0  0
    5.4208   -6.0540    1.0137 N   0  0  0  0  0  0  0  0  0  0  0  0
    4.6947   -7.1456    1.4020 C   0  0  0  0  0  0  0  0  0  0  0  0
    5.1793   -8.2122    1.7908 O   0  0  0  0  0  0  0  0  0  0  0  0
    3.2471   -6.9516    1.3172 C   0  0  0  0  0  0  0  0  0  0  0  0
    2.7092   -5.8021    0.8443 C   0  0  0  0  0  0  0  0  0  0  0  0
    1.3382   -5.8686    0.7719 N   0  0  0  0  0  0  0  0  0  0  0  0
    1.0985   -7.0904    1.2277 C   0  0  0  0  0  0  0  0  0  0  0  0
    2.1808   -7.8023    1.6367 N   0  0  0  0  0  0  0  0  0  0  0  0
    2.1772   -9.1623    2.1873 C   0  0  0  0  0  0  0  0  0  0  0  0
    1.3497   -9.2950    3.4905 C   0  0  0  0  0  0  0  0  0  0  0  0
   -0.0496   -8.9198    3.3061 N   0  0  0  0  0  0  0  0  0  0  0  0
   -1.0077   -9.4881    2.5682 C   0  0  0  0  0  0  0  0  0  0  0  0
   -2.0933   -8.7265    2.4927 N   0  0  0  0  0  0  0  0  0  0  0  0
   -1.7703   -7.6586    3.3233 N   0  0  0  0  0  0  0  0  0  0  0  0
   -0.5701   -7.7799    3.8278 N   0  0  0  0  0  0  0  0  0  0  0  0
    3.5420   -4.7409    0.4494 N   0  0  0  0  0  0  0  0  0  0  0  0
    2.8764   -3.5496   -0.0749 C   0  0  0  0  0  0  0  0  0  0  0  0
    4.9046   -4.8460    0.5583 C   0  0  0  0  0  0  0  0  0  0  0  0
    5.6443   -3.9037    0.2634 O   0  0  0  0  0  0  0  0  0  0  0  0
    7.3081   -7.0941    1.4027 H   0  0  0  0  0  0  0  0  0  0  0  0
    7.2880   -5.3760    1.7679 H   0  0  0  0  0  0  0  0  0  0  0  0
    7.3260   -5.9355    0.0887 H   0  0  0  0  0  0  0  0  0  0  0  0
    0.0945   -7.4872    1.2203 H   0  0  0  0  0  0  0  0  0  0  0  0
    1.8153   -9.8429    1.4131 H   0  0  0  0  0  0  0  0  0  0  0  0
    3.1910   -9.5053    2.4029 H   0  0  0  0  0  0  0  0  0  0  0  0
    1.3918  -10.3250    3.8566 H   0  0  0  0  0  0  0  0  0  0  0  0
    1.7865   -8.6559    4.2659 H   0  0  0  0  0  0  0  0  0  0  0  0
   -0.8665  -10.3846    1.9831 H   0  0  0  0  0  0  0  0  0  0  0  0
    3.5619   -2.7824   -0.4330 H   0  0  0  0  0  0  0  0  0  0  0  0
    2.2493   -3.1038    0.6967 H   0  0  0  0  0  0  0  0  0  0  0  0
    2.2307   -3.8207   -0.9106 H   0  0  0  0  0  0  0  0  0  0  0  0
  1  2  1  0
  1 21  1  0
  1 22  1  0
  1 23  1  0
  2 19  1  0
  2  3  1  0
  3  4  2  0
  3  5  1  0
  5  9  1  0
  5  6  2  0
  6  7  1  0
  6 17  1  0
  7  8  2  0
  8  9  1  0
  8 24  1  0
  9 10  1  0
 10 11  1  0
 10 25  1  0
 10 26  1  0
 11 12  1  0
 11 27  1  0
 11 28  1  0
 12 16  1  0
 12 13  1  0
 13 14  2  0
 13 29  1  0
 14 15  1  0
 15 16  2  0
 17 18  1  0
 17 19  1  0
 18 30  1  0
 18 31  1  0
 18 32  1  0
 19 20  2  0
M  END
>  <i_m_ct_stereo_status>  (167) 
1

>  <s_m_source_file>  (167) 
/var/tmp/pbs.5076255.sched01/tmpmqqk35eb/391x3533zq.sdf

>  <i_m_source_file_index>  (167) 
28

>  <i_lp_mmshare_version>  (167) 
48012

>  <i_f3d_flags>  (167) 
0

>  <s_epik_input>  (167) 
Tz1jMW4oW0NIM10pYyg9TyluKFtDSDNdKWMoYzEyKW5bY0hdbjJbQ0gyXVtDSDJdbjNbY0hdbm5uMw==

>  <s_epik_cmdline>  (167) 
J2VwaWtfcHl0aG9uJywgJy1waHQnLCAnMi4wJywgJy1waCcsICc3LjAnLCAnLXRuJywgJzgnLCAnLW1hJywgJzIwMCcsICctaW1hZScsICc8aW5maWxlLm1hZT4nLCAnLW9tYWUnLCAnPG91dGZpbGUubWFlPic=

>  <r_lp_tautomer_probability>  (167) 
1

>  <r_epik_Ionization_Penalty>  (167) 
4.03698e-07

>  <r_epik_Ionization_Penalty_Charging>  (167) 
2.38283e-09

>  <r_epik_Ionization_Penalty_Neutral>  (167) 
4.01315e-07

>  <r_epik_State_Penalty>  (167) 
-0

>  <r_epik_Charging_Adjusted_Penalty>  (167) 
2.38283e-09

>  <i_epik_Tot_Q>  (167) 
0

>  <i_epik_Tot_abs_Q>  (167) 
0

>  <s_lp_Force_Field>  (167) 
OPLS3e

>  <r_lp_Energy>  (167) 
16.1302

>  <b_lp_Chiralities_Consistent>  (167) 
1

>  <s_lp_Variant>  (167) 
52:0-1

>  <s_i_glide_gridfile>  (167) 
pfpi4k_grid

>  <i_i_glide_lignum>  (167) 
28

>  <i_i_glide_rotatable_bonds>  (167) 
3

>  <r_i_docking_score>  (167) 
-4.252

>  <r_i_glide_ligand_efficiency>  (167) 
-0.2126

>  <r_i_glide_ligand_efficiency_sa>  (167) 
-0.577085

>  <r_i_glide_ligand_efficiency_ln>  (167) 
-1.06414

>  <r_i_glide_gscore>  (167) 
-4.252

>  <r_i_glide_lipo>  (167) 
-0.269541

>  <r_i_glide_hbond>  (167) 
-0.16

>  <r_i_glide_metal>  (167) 
-0

>  <r_i_glide_rewards>  (167) 
-1.92729

>  <r_i_glide_evdw>  (167) 
-27.11

>  <r_i_glide_ecoul>  (167) 
-6.48542

>  <r_i_glide_erotb>  (167) 
0.707124

>  <r_i_glide_esite>  (167) 
-0.27398

>  <r_i_glide_emodel>  (167) 
-41.9482

>  <r_i_glide_energy>  (167) 
-33.5954

>  <r_i_glide_einternal>  (167) 
2.43893

>  <r_i_glide_intrahb_reward>  (167) 
-0

>  <i_i_glide_confnum>  (167) 
4

>  <i_i_glide_posenum>  (167) 
1

>  <r_i_glide_eff_state_penalty>  (167) 
0

>  <ligand_id>  (167) 
52

>  <original_smiles>  (167) 
Cn1c(=O)c2c(ncn2CCn2cnnn2)n(C)c1=O

>  <smiles>  (167) 
[H]c1nnnn1C([H])([H])C([H])([H])n1c([H])nc2c1c(=O)n(C([H])([H])[H])c(=O)n2C([H])([H])[H]

$$$$
52:0:1
     RDKit          3D

 32 34  0  0  1  0  0  0  0  0999 V2000
    1.8775   -4.3466    5.8880 C   0  0  0  0  0  0  0  0  0  0  0  0
    1.8767   -4.7200    4.4628 N   0  0  0  0  0  0  0  0  0  0  0  0
    2.6740   -3.9815    3.6004 C   0  0  0  0  0  0  0  0  0  0  0  0
    3.3824   -3.0267    3.9431 O   0  0  0  0  0  0  0  0  0  0  0  0
    2.6104   -4.4655    2.2170 C   0  0  0  0  0  0  0  0  0  0  0  0
    1.8145   -5.4929    1.8512 C   0  0  0  0  0  0  0  0  0  0  0  0
    1.9115   -5.7679    0.5022 N   0  0  0  0  0  0  0  0  0  0  0  0
    2.8465   -4.9105    0.1243 C   0  0  0  0  0  0  0  0  0  0  0  0
    3.2735   -4.0423    1.0602 N   0  0  0  0  0  0  0  0  0  0  0  0
    4.2285   -2.9396    0.8934 C   0  0  0  0  0  0  0  0  0  0  0  0
    3.6328   -1.7241    0.1285 C   0  0  0  0  0  0  0  0  0  0  0  0
    3.6376   -1.8484   -1.3299 N   0  0  0  0  0  0  0  0  0  0  0  0
    4.2339   -1.1262   -2.2683 C   0  0  0  0  0  0  0  0  0  0  0  0
    4.0983   -1.6803   -3.4631 N   0  0  0  0  0  0  0  0  0  0  0  0
    3.2795   -2.7656   -3.2551 N   0  0  0  0  0  0  0  0  0  0  0  0
    3.0084   -2.8566   -1.9891 N   0  0  0  0  0  0  0  0  0  0  0  0
    0.9931   -6.1369    2.8024 N   0  0  0  0  0  0  0  0  0  0  0  0
    0.1270   -7.2086    2.2964 C   0  0  0  0  0  0  0  0  0  0  0  0
    1.0519   -5.7886    4.1213 C   0  0  0  0  0  0  0  0  0  0  0  0
    0.3809   -6.3991    4.9879 O   0  0  0  0  0  0  0  0  0  0  0  0
    2.4963   -3.4832    6.1527 H   0  0  0  0  0  0  0  0  0  0  0  0
    2.2315   -5.1812    6.4977 H   0  0  0  0  0  0  0  0  0  0  0  0
    0.8622   -4.1056    6.2093 H   0  0  0  0  0  0  0  0  0  0  0  0
    3.2633   -4.9092   -0.8628 H   0  0  0  0  0  0  0  0  0  0  0  0
    4.5980   -2.5992    1.8584 H   0  0  0  0  0  0  0  0  0  0  0  0
    5.1002   -3.3205    0.3848 H   0  0  0  0  0  0  0  0  0  0  0  0
    2.6173   -1.5185    0.4629 H   0  0  0  0  0  0  0  0  0  0  0  0
    4.2128   -0.8333    0.3773 H   0  0  0  0  0  0  0  0  0  0  0  0
    4.7782   -0.1984   -2.1004 H   0  0  0  0  0  0  0  0  0  0  0  0
   -0.5113   -7.6522    3.0494 H   0  0  0  0  0  0  0  0  0  0  0  0
    0.7410   -7.9993    1.8612 H   0  0  0  0  0  0  0  0  0  0  0  0
   -0.5089   -6.8297    1.4931 H   0  0  0  0  0  0  0  0  0  0  0  0
  1  2  1  0
  1 21  1  0
  1 22  1  0
  1 23  1  0
  2 19  1  0
  2  3  1  0
  3  4  2  0
  3  5  1  0
  5  9  1  0
  5  6  2  0
  6  7  1  0
  6 17  1  0
  7  8  2  0
  8  9  1  0
  8 24  1  0
  9 10  1  0
 10 11  1  0
 10 25  1  0
 10 26  1  0
 11 12  1  0
 11 27  1  0
 11 28  1  0
 12 16  1  0
 12 13  1  0
 13 14  2  0
 13 29  1  0
 14 15  1  0
 15 16  2  0
 17 18  1  0
 17 19  1  0
 18 30  1  0
 18 31  1  0
 18 32  1  0
 19 20  2  0
M  END
>  <i_m_ct_stereo_status>  (168) 
1

>  <s_m_source_file>  (168) 
/var/tmp/pbs.5076255.sched01/tmpmqqk35eb/391x3533zq.sdf

>  <i_m_source_file_index>  (168) 
28

>  <i_lp_mmshare_version>  (168) 
48012

>  <i_f3d_flags>  (168) 
0

>  <s_epik_input>  (168) 
Tz1jMW4oW0NIM10pYyg9TyluKFtDSDNdKWMoYzEyKW5bY0hdbjJbQ0gyXVtDSDJdbjNbY0hdbm5uMw==

>  <s_epik_cmdline>  (168) 
J2VwaWtfcHl0aG9uJywgJy1waHQnLCAnMi4wJywgJy1waCcsICc3LjAnLCAnLXRuJywgJzgnLCAnLW1hJywgJzIwMCcsICctaW1hZScsICc8aW5maWxlLm1hZT4nLCAnLW9tYWUnLCAnPG91dGZpbGUubWFlPic=

>  <r_lp_tautomer_probability>  (168) 
1

>  <r_epik_Ionization_Penalty>  (168) 
4.03698e-07

>  <r_epik_Ionization_Penalty_Charging>  (168) 
2.38283e-09

>  <r_epik_Ionization_Penalty_Neutral>  (168) 
4.01315e-07

>  <r_epik_State_Penalty>  (168) 
-0

>  <r_epik_Charging_Adjusted_Penalty>  (168) 
2.38283e-09

>  <i_epik_Tot_Q>  (168) 
0

>  <i_epik_Tot_abs_Q>  (168) 
0

>  <s_lp_Force_Field>  (168) 
OPLS3e

>  <r_lp_Energy>  (168) 
16.1302

>  <b_lp_Chiralities_Consistent>  (168) 
1

>  <s_lp_Variant>  (168) 
52:0-1

>  <s_i_glide_gridfile>  (168) 
pfpi4k_grid

>  <i_i_glide_lignum>  (168) 
28

>  <i_i_glide_rotatable_bonds>  (168) 
3

>  <r_i_docking_score>  (168) 
-2.91294

>  <r_i_glide_ligand_efficiency>  (168) 
-0.145647

>  <r_i_glide_ligand_efficiency_sa>  (168) 
-0.395347

>  <r_i_glide_ligand_efficiency_ln>  (168) 
-0.729014

>  <r_i_glide_gscore>  (168) 
-2.91294

>  <r_i_glide_lipo>  (168) 
-0.00647647

>  <r_i_glide_hbond>  (168) 
-0.0473083

>  <r_i_glide_metal>  (168) 
-0

>  <r_i_glide_rewards>  (168) 
-1.52554

>  <r_i_glide_evdw>  (168) 
-23.2342

>  <r_i_glide_ecoul>  (168) 
-4.03071

>  <r_i_glide_erotb>  (168) 
0.707124

>  <r_i_glide_esite>  (168) 
-0.274431

>  <r_i_glide_emodel>  (168) 
-32.3193

>  <r_i_glide_energy>  (168) 
-27.2649

>  <r_i_glide_einternal>  (168) 
2.27636

>  <r_i_glide_intrahb_reward>  (168) 
-0

>  <i_i_glide_confnum>  (168) 
6

>  <i_i_glide_posenum>  (168) 
4

>  <r_i_glide_eff_state_penalty>  (168) 
0

>  <ligand_id>  (168) 
52

>  <original_smiles>  (168) 
Cn1c(=O)c2c(ncn2CCn2cnnn2)n(C)c1=O

>  <smiles>  (168) 
[H]c1nnnn1C([H])([H])C([H])([H])n1c([H])nc2c1c(=O)n(C([H])([H])[H])c(=O)n2C([H])([H])[H]

$$$$
52:0:2
     RDKit          3D

 32 34  0  0  1  0  0  0  0  0999 V2000
    5.0837   -4.4592   -0.8583 C   0  0  0  0  0  0  0  0  0  0  0  0
    4.1483   -4.4459    0.2820 N   0  0  0  0  0  0  0  0  0  0  0  0
    3.8366   -5.6329    0.8883 C   0  0  0  0  0  0  0  0  0  0  0  0
    4.2584   -6.7416    0.5454 O   0  0  0  0  0  0  0  0  0  0  0  0
    2.9358   -5.4878    2.0330 C   0  0  0  0  0  0  0  0  0  0  0  0
    2.4111   -4.3029    2.4009 C   0  0  0  0  0  0  0  0  0  0  0  0
    1.5654   -4.4359    3.4929 N   0  0  0  0  0  0  0  0  0  0  0  0
    1.6423   -5.7429    3.7419 C   0  0  0  0  0  0  0  0  0  0  0  0
    2.4342   -6.4521    2.9072 N   0  0  0  0  0  0  0  0  0  0  0  0
    2.6243   -7.8987    2.9149 C   0  0  0  0  0  0  0  0  0  0  0  0
    1.6074   -8.6345    2.0061 C   0  0  0  0  0  0  0  0  0  0  0  0
    0.2167   -8.4460    2.4016 N   0  0  0  0  0  0  0  0  0  0  0  0
   -0.6668   -9.2961    2.9222 C   0  0  0  0  0  0  0  0  0  0  0  0
   -1.8020   -8.6806    3.2320 N   0  0  0  0  0  0  0  0  0  0  0  0
   -1.5895   -7.3848    2.8224 N   0  0  0  0  0  0  0  0  0  0  0  0
   -0.4173   -7.2501    2.2650 N   0  0  0  0  0  0  0  0  0  0  0  0
    2.7562   -3.1379    1.6738 N   0  0  0  0  0  0  0  0  0  0  0  0
    2.1480   -1.8812    2.1040 C   0  0  0  0  0  0  0  0  0  0  0  0
    3.6692   -3.1989    0.6487 C   0  0  0  0  0  0  0  0  0  0  0  0
    4.0615   -2.1733    0.0760 O   0  0  0  0  0  0  0  0  0  0  0  0
    5.4040   -5.4564   -1.1502 H   0  0  0  0  0  0  0  0  0  0  0  0
    5.9826   -3.8789   -0.6358 H   0  0  0  0  0  0  0  0  0  0  0  0
    4.6157   -4.0268   -1.7429 H   0  0  0  0  0  0  0  0  0  0  0  0
    1.0614   -6.2226    4.5183 H   0  0  0  0  0  0  0  0  0  0  0  0
    3.6512   -8.1344    2.6175 H   0  0  0  0  0  0  0  0  0  0  0  0
    2.5219   -8.2469    3.9398 H   0  0  0  0  0  0  0  0  0  0  0  0
    1.7216   -8.3257    0.9658 H   0  0  0  0  0  0  0  0  0  0  0  0
    1.8241   -9.7010    2.0357 H   0  0  0  0  0  0  0  0  0  0  0  0
   -0.4860  -10.3495    3.0884 H   0  0  0  0  0  0  0  0  0  0  0  0
    2.4117   -1.0243    1.4873 H   0  0  0  0  0  0  0  0  0  0  0  0
    2.4409   -1.6657    3.1321 H   0  0  0  0  0  0  0  0  0  0  0  0
    1.0623   -1.9749    2.0821 H   0  0  0  0  0  0  0  0  0  0  0  0
  1  2  1  0
  1 21  1  0
  1 22  1  0
  1 23  1  0
  2 19  1  0
  2  3  1  0
  3  4  2  0
  3  5  1  0
  5  9  1  0
  5  6  2  0
  6  7  1  0
  6 17  1  0
  7  8  2  0
  8  9  1  0
  8 24  1  0
  9 10  1  0
 10 11  1  0
 10 25  1  0
 10 26  1  0
 11 12  1  0
 11 27  1  0
 11 28  1  0
 12 16  1  0
 12 13  1  0
 13 14  2  0
 13 29  1  0
 14 15  1  0
 15 16  2  0
 17 18  1  0
 17 19  1  0
 18 30  1  0
 18 31  1  0
 18 32  1  0
 19 20  2  0
M  END
>  <i_m_ct_stereo_status>  (169) 
1

>  <s_m_source_file>  (169) 
/var/tmp/pbs.5076255.sched01/tmpmqqk35eb/391x3533zq.sdf

>  <i_m_source_file_index>  (169) 
28

>  <i_lp_mmshare_version>  (169) 
48012

>  <i_f3d_flags>  (169) 
0

>  <s_epik_input>  (169) 
Tz1jMW4oW0NIM10pYyg9TyluKFtDSDNdKWMoYzEyKW5bY0hdbjJbQ0gyXVtDSDJdbjNbY0hdbm5uMw==

>  <s_epik_cmdline>  (169) 
J2VwaWtfcHl0aG9uJywgJy1waHQnLCAnMi4wJywgJy1waCcsICc3LjAnLCAnLXRuJywgJzgnLCAnLW1hJywgJzIwMCcsICctaW1hZScsICc8aW5maWxlLm1hZT4nLCAnLW9tYWUnLCAnPG91dGZpbGUubWFlPic=

>  <r_lp_tautomer_probability>  (169) 
1

>  <r_epik_Ionization_Penalty>  (169) 
4.03698e-07

>  <r_epik_Ionization_Penalty_Charging>  (169) 
2.38283e-09

>  <r_epik_Ionization_Penalty_Neutral>  (169) 
4.01315e-07

>  <r_epik_State_Penalty>  (169) 
-0

>  <r_epik_Charging_Adjusted_Penalty>  (169) 
2.38283e-09

>  <i_epik_Tot_Q>  (169) 
0

>  <i_epik_Tot_abs_Q>  (169) 
0

>  <s_lp_Force_Field>  (169) 
OPLS3e

>  <r_lp_Energy>  (169) 
16.1302

>  <b_lp_Chiralities_Consistent>  (169) 
1

>  <s_lp_Variant>  (169) 
52:0-1

>  <s_i_glide_gridfile>  (169) 
pfpi4k_grid

>  <i_i_glide_lignum>  (169) 
28

>  <i_i_glide_rotatable_bonds>  (169) 
3

>  <r_i_docking_score>  (169) 
-2.80711

>  <r_i_glide_ligand_efficiency>  (169) 
-0.140356

>  <r_i_glide_ligand_efficiency_sa>  (169) 
-0.380984

>  <r_i_glide_ligand_efficiency_ln>  (169) 
-0.702527

>  <r_i_glide_gscore>  (169) 
-2.80711

>  <r_i_glide_lipo>  (169) 
-0.0406831

>  <r_i_glide_hbond>  (169) 
0

>  <r_i_glide_metal>  (169) 
-0

>  <r_i_glide_rewards>  (169) 
-1.54951

>  <r_i_glide_evdw>  (169) 
-24.7422

>  <r_i_glide_ecoul>  (169) 
-2.35513

>  <r_i_glide_erotb>  (169) 
0.707124

>  <r_i_glide_esite>  (169) 
-0.333662

>  <r_i_glide_emodel>  (169) 
-32.7391

>  <r_i_glide_energy>  (169) 
-27.0973

>  <r_i_glide_einternal>  (169) 
1.36904

>  <r_i_glide_intrahb_reward>  (169) 
-0

>  <i_i_glide_confnum>  (169) 
6

>  <i_i_glide_posenum>  (169) 
25

>  <r_i_glide_eff_state_penalty>  (169) 
0

>  <ligand_id>  (169) 
52

>  <original_smiles>  (169) 
Cn1c(=O)c2c(ncn2CCn2cnnn2)n(C)c1=O

>  <smiles>  (169) 
[H]c1nnnn1C([H])([H])C([H])([H])n1c([H])nc2c1c(=O)n(C([H])([H])[H])c(=O)n2C([H])([H])[H]

$$$$
53:0:0
     RDKit          3D

 78 82  0  0  1  0  0  0  0  0999 V2000
    3.9077   -0.0104    1.5007 C   0  0  0  0  0  0  0  0  0  0  0  0
    3.6400   -1.1098    0.4705 C   0  0  2  0  0  0  0  0  0  0  0  0
    3.3732   -2.4293    1.1629 C   0  0  0  0  0  0  0  0  0  0  0  0
    4.1089   -3.5497    1.0236 C   0  0  0  0  0  0  0  0  0  0  0  0
    3.7420   -4.7999    1.8312 C   0  0  1  0  0  0  0  0  0  0  0  0
    3.0597   -5.8595    0.9576 C   0  0  0  0  0  0  0  0  0  0  0  0
    2.5551   -7.0015    1.8263 C   0  0  0  0  0  0  0  0  0  0  0  0
    3.7008   -7.7395    2.5684 C   0  0  2  0  0  0  0  0  0  0  0  0
    3.1918   -9.0672    3.2931 C   0  0  2  0  0  0  0  0  0  0  0  0
    4.4127  -10.0058    3.5411 C   0  0  0  0  0  0  0  0  0  0  0  0
    2.2983   -9.9487    2.3555 C   0  0  0  0  0  0  0  0  0  0  0  0
    0.7790   -9.8206    2.4935 C   0  0  0  0  0  0  0  0  0  0  0  0
    0.3249   -9.9368    3.9394 C   0  0  1  0  0  0  0  0  0  0  0  0
    0.6192  -11.2474    4.3848 O   0  0  0  0  0  0  0  0  0  0  0  0
    0.9343   -8.8440    4.8476 C   0  0  0  0  0  0  0  0  0  0  0  0
    0.2192   -7.5072    4.5308 C   0  0  0  0  0  0  0  0  0  0  0  0
    0.5519   -9.1818    6.3193 C   0  0  0  0  0  0  0  0  0  0  0  0
    2.5067   -8.8034    4.6956 C   0  0  2  0  0  0  0  0  0  0  0  0
    3.2053   -7.6766    5.4990 C   0  0  0  0  0  0  0  0  0  0  0  0
    3.6543   -6.4286    4.7038 C   0  0  0  0  0  0  0  0  0  0  0  0
    4.5385   -6.7200    3.4524 C   0  0  1  0  0  0  0  0  0  0  0  0
    5.8815   -7.3441    3.9484 C   0  0  0  0  0  0  0  0  0  0  0  0
    4.9337   -5.3792    2.6482 C   0  0  2  0  0  0  0  0  0  0  0  0
    5.3743   -4.2650    3.6506 C   0  0  0  0  0  0  0  0  0  0  0  0
    6.0935   -5.6200    1.6192 C   0  0  0  0  0  0  0  0  0  0  0  0
    6.5235   -4.3629    0.8331 C   0  0  0  0  0  0  0  0  0  0  0  0
    5.3718   -3.5919    0.1380 C   0  0  1  0  0  0  0  0  0  0  0  0
    5.0458   -4.2557   -1.2155 C   0  0  0  0  0  0  0  0  0  0  0  0
    5.8741   -2.1521   -0.1449 C   0  0  0  0  0  0  0  0  0  0  0  0
    4.7470   -1.2212   -0.5925 C   0  0  0  0  0  0  0  0  0  0  0  0
    3.0583    0.1082    2.1759 H   0  0  0  0  0  0  0  0  0  0  0  0
    4.0504    0.9413    0.9933 H   0  0  0  0  0  0  0  0  0  0  0  0
    4.7954   -0.2124    2.1031 H   0  0  0  0  0  0  0  0  0  0  0  0
    2.7238   -0.8247   -0.0427 H   0  0  0  0  0  0  0  0  0  0  0  0
    2.5061   -2.4286    1.8051 H   0  0  0  0  0  0  0  0  0  0  0  0
    2.9895   -4.4795    2.5531 H   0  0  0  0  0  0  0  0  0  0  0  0
    2.2264   -5.4109    0.4153 H   0  0  0  0  0  0  0  0  0  0  0  0
    3.7233   -6.2758    0.2046 H   0  0  0  0  0  0  0  0  0  0  0  0
    1.8399   -6.5899    2.5306 H   0  0  0  0  0  0  0  0  0  0  0  0
    2.0023   -7.6679    1.1696 H   0  0  0  0  0  0  0  0  0  0  0  0
    4.3615   -8.0779    1.7704 H   0  0  0  0  0  0  0  0  0  0  0  0
    4.1226  -11.0346    3.7582 H   0  0  0  0  0  0  0  0  0  0  0  0
    4.9958   -9.7414    4.4131 H   0  0  0  0  0  0  0  0  0  0  0  0
    5.0726  -10.0457    2.6736 H   0  0  0  0  0  0  0  0  0  0  0  0
    2.5830   -9.8024    1.3118 H   0  0  0  0  0  0  0  0  0  0  0  0
    2.4840  -11.0126    2.5073 H   0  0  0  0  0  0  0  0  0  0  0  0
    0.4181   -8.9003    2.0469 H   0  0  0  0  0  0  0  0  0  0  0  0
    0.3023  -10.6177    1.9197 H   0  0  0  0  0  0  0  0  0  0  0  0
   -0.7593   -9.8454    3.9495 H   0  0  0  0  0  0  0  0  0  0  0  0
    0.0981  -11.4255    5.1560 H   0  0  0  0  0  0  0  0  0  0  0  0
    0.7119   -6.6487    4.9847 H   0  0  0  0  0  0  0  0  0  0  0  0
   -0.8054   -7.5236    4.9083 H   0  0  0  0  0  0  0  0  0  0  0  0
    0.1253   -7.3201    3.4636 H   0  0  0  0  0  0  0  0  0  0  0  0
    0.7627   -8.3620    7.0047 H   0  0  0  0  0  0  0  0  0  0  0  0
    1.0848  -10.0594    6.6899 H   0  0  0  0  0  0  0  0  0  0  0  0
   -0.5135   -9.4036    6.4072 H   0  0  0  0  0  0  0  0  0  0  0  0
    2.7683   -9.6978    5.2630 H   0  0  0  0  0  0  0  0  0  0  0  0
    2.5702   -7.3300    6.3115 H   0  0  0  0  0  0  0  0  0  0  0  0
    4.0601   -8.1052    6.0166 H   0  0  0  0  0  0  0  0  0  0  0  0
    2.7758   -5.8536    4.4166 H   0  0  0  0  0  0  0  0  0  0  0  0
    4.1895   -5.7931    5.4088 H   0  0  0  0  0  0  0  0  0  0  0  0
    6.6350   -6.6061    4.2073 H   0  0  0  0  0  0  0  0  0  0  0  0
    6.3280   -7.9865    3.1900 H   0  0  0  0  0  0  0  0  0  0  0  0
    5.7999   -7.9176    4.8637 H   0  0  0  0  0  0  0  0  0  0  0  0
    6.2045   -4.5627    4.2871 H   0  0  0  0  0  0  0  0  0  0  0  0
    4.5575   -3.9492    4.2971 H   0  0  0  0  0  0  0  0  0  0  0  0
    5.6920   -3.3495    3.1575 H   0  0  0  0  0  0  0  0  0  0  0  0
    6.9939   -5.9906    2.1049 H   0  0  0  0  0  0  0  0  0  0  0  0
    5.8155   -6.4003    0.9117 H   0  0  0  0  0  0  0  0  0  0  0  0
    7.0573   -3.7010    1.5155 H   0  0  0  0  0  0  0  0  0  0  0  0
    7.2734   -4.6417    0.0919 H   0  0  0  0  0  0  0  0  0  0  0  0
    5.8051   -4.0279   -1.9621 H   0  0  0  0  0  0  0  0  0  0  0  0
    4.0904   -3.9169   -1.6138 H   0  0  0  0  0  0  0  0  0  0  0  0
    5.0141   -5.3396   -1.1520 H   0  0  0  0  0  0  0  0  0  0  0  0
    6.3220   -1.7245    0.7529 H   0  0  0  0  0  0  0  0  0  0  0  0
    6.6665   -2.1637   -0.8934 H   0  0  0  0  0  0  0  0  0  0  0  0
    4.3181   -1.5786   -1.5288 H   0  0  0  0  0  0  0  0  0  0  0  0
    5.1616   -0.2473   -0.8208 H   0  0  0  0  0  0  0  0  0  0  0  0
  1  2  1  0
  1 31  1  0
  1 32  1  0
  1 33  1  0
  2 30  1  0
  2  3  1  0
  2 34  1  6
  3  4  2  0
  3 35  1  0
  4 27  1  0
  4  5  1  0
  5 23  1  0
  5  6  1  0
  5 36  1  1
  6  7  1  0
  6 37  1  0
  6 38  1  0
  7  8  1  0
  7 39  1  0
  7 40  1  0
  8 21  1  0
  8  9  1  0
  8 41  1  6
  9 18  1  0
  9 10  1  1
  9 11  1  0
 10 42  1  0
 10 43  1  0
 10 44  1  0
 11 12  1  0
 11 45  1  0
 11 46  1  0
 12 13  1  0
 12 47  1  0
 12 48  1  0
 13 14  1  0
 13 15  1  0
 13 49  1  6
 14 50  1  0
 15 16  1  0
 15 17  1  0
 15 18  1  0
 16 51  1  0
 16 52  1  0
 16 53  1  0
 17 54  1  0
 17 55  1  0
 17 56  1  0
 18 19  1  0
 18 57  1  1
 19 20  1  0
 19 58  1  0
 19 59  1  0
 20 21  1  0
 20 60  1  0
 20 61  1  0
 21 22  1  1
 21 23  1  0
 22 62  1  0
 22 63  1  0
 22 64  1  0
 23 24  1  1
 23 25  1  0
 24 65  1  0
 24 66  1  0
 24 67  1  0
 25 26  1  0
 25 68  1  0
 25 69  1  0
 26 27  1  0
 26 70  1  0
 26 71  1  0
 27 28  1  6
 27 29  1  0
 28 72  1  0
 28 73  1  0
 28 74  1  0
 29 30  1  0
 29 75  1  0
 29 76  1  0
 30 77  1  0
 30 78  1  0
M  END
>  <i_m_ct_stereo_status>  (170) 
1

>  <s_m_source_file>  (170) 
/var/tmp/pbs.5076255.sched01/tmpmqqk35eb/391x3533zq.sdf

>  <i_m_source_file_index>  (170) 
29

>  <i_lp_mmshare_version>  (170) 
48012

>  <i_f3d_flags>  (170) 
0

>  <s_epik_input>  (170) 
W0NIM11bQ0BIXShbQ0hdPTEpW0NIMl1bQ0gyXVtDQEBdKFtDSDNdKShbQ0gyXVtDSDJdMilDMVtDQEBIXShbQ0gyXVtDSDJdMylbQ0BAXTIoW0NIM10pW0NAXShbQ0gzXSkoW0NASF0zW0NAXTQ1W0NIM10pW0NIMl1bQ0gyXVtDQEhdNUMoW0NIM10pKFtDSDNdKVtDQEhdKFtPSF0pW0NIMl1bQ0gyXTQ=

>  <s_epik_cmdline>  (170) 
J2VwaWtfcHl0aG9uJywgJy1waHQnLCAnMi4wJywgJy1waCcsICc3LjAnLCAnLXRuJywgJzgnLCAnLW1hJywgJzIwMCcsICctaW1hZScsICc8aW5maWxlLm1hZT4nLCAnLW9tYWUnLCAnPG91dGZpbGUubWFlPic=

>  <r_lp_tautomer_probability>  (170) 
1

>  <r_epik_Ionization_Penalty>  (170) 
3.13548e-06

>  <r_epik_Ionization_Penalty_Charging>  (170) 
0

>  <r_epik_Ionization_Penalty_Neutral>  (170) 
3.13548e-06

>  <r_epik_State_Penalty>  (170) 
-0

>  <r_epik_Charging_Adjusted_Penalty>  (170) 
0

>  <i_epik_Tot_Q>  (170) 
0

>  <i_epik_Tot_abs_Q>  (170) 
0

>  <s_lp_Force_Field>  (170) 
OPLS3e

>  <r_lp_Energy>  (170) 
95.3942

>  <b_lp_Chiralities_Consistent>  (170) 
1

>  <s_lp_Variant>  (170) 
53:0-1

>  <s_i_glide_gridfile>  (170) 
pfpi4k_grid

>  <i_i_glide_lignum>  (170) 
29

>  <i_i_glide_rotatable_bonds>  (170) 
1

>  <r_i_docking_score>  (170) 
-2.78043

>  <r_i_glide_ligand_efficiency>  (170) 
-0.092681

>  <r_i_glide_ligand_efficiency_sa>  (170) 
-0.287981

>  <r_i_glide_ligand_efficiency_ln>  (170) 
-0.631744

>  <r_i_glide_gscore>  (170) 
-2.78043

>  <r_i_glide_lipo>  (170) 
-0.435919

>  <r_i_glide_hbond>  (170) 
-0.0234472

>  <r_i_glide_metal>  (170) 
-0

>  <r_i_glide_rewards>  (170) 
-0.59529

>  <r_i_glide_evdw>  (170) 
-30.3329

>  <r_i_glide_ecoul>  (170) 
-1.3942

>  <r_i_glide_erotb>  (170) 
0

>  <r_i_glide_esite>  (170) 
0

>  <r_i_glide_emodel>  (170) 
-36.86

>  <r_i_glide_energy>  (170) 
-31.7271

>  <r_i_glide_einternal>  (170) 
0.481968

>  <r_i_glide_intrahb_reward>  (170) 
-0

>  <i_i_glide_confnum>  (170) 
1

>  <i_i_glide_posenum>  (170) 
2

>  <r_i_glide_eff_state_penalty>  (170) 
0

>  <ligand_id>  (170) 
53

>  <original_smiles>  (170) 
CC1C=C2C3CCC4C5(C)CCC(O)C(C)(C)C5CCC4(C)C3(C)CCC2(C)CC1

>  <smiles>  (170) 
[H]OC1([H])C([H])([H])C([H])([H])C2(C([H])([H])[H])C([H])(C([H])([H])C([H])([H])C3(C([H])([H])[H])C2([H])C([H])([H])C([H])([H])C2([H])C4=C([H])C([H])(C([H])([H])[H])C([H])([H])C([H])([H])C4(C([H])([H])[H])C([H])([H])C([H])([H])C23C([H])([H])[H])C1(C([H])([H])[H])C([H])([H])[H]

$$$$
53:0:1
     RDKit          3D

 78 82  0  0  1  0  0  0  0  0999 V2000
   -0.1438    1.4159    2.6540 C   0  0  0  0  0  0  0  0  0  0  0  0
    1.1988    0.9114    2.1016 C   0  0  2  0  0  0  0  0  0  0  0  0
    1.3494   -0.5794    2.3440 C   0  0  0  0  0  0  0  0  0  0  0  0
    2.3085   -1.1736    3.0833 C   0  0  0  0  0  0  0  0  0  0  0  0
    2.2875   -2.6980    3.2679 C   0  0  1  0  0  0  0  0  0  0  0  0
    3.3554   -3.3904    2.4132 C   0  0  0  0  0  0  0  0  0  0  0  0
    3.1903   -4.8996    2.4859 C   0  0  0  0  0  0  0  0  0  0  0  0
    3.3807   -5.4557    3.9211 C   0  0  2  0  0  0  0  0  0  0  0  0
    3.4319   -7.0532    3.9478 C   0  0  2  0  0  0  0  0  0  0  0  0
    4.1353   -7.5059    5.2656 C   0  0  0  0  0  0  0  0  0  0  0  0
    4.3948   -7.6372    2.8497 C   0  0  0  0  0  0  0  0  0  0  0  0
    3.7710   -8.1268    1.5361 C   0  0  0  0  0  0  0  0  0  0  0  0
    2.5921   -9.0724    1.7867 C   0  0  1  0  0  0  0  0  0  0  0  0
    3.0798  -10.2422    2.4298 O   0  0  0  0  0  0  0  0  0  0  0  0
    1.4490   -8.3813    2.5868 C   0  0  0  0  0  0  0  0  0  0  0  0
    0.7236   -7.3730    1.6558 C   0  0  0  0  0  0  0  0  0  0  0  0
    0.3960   -9.4713    2.9459 C   0  0  0  0  0  0  0  0  0  0  0  0
    2.0038   -7.7320    3.9187 C   0  0  2  0  0  0  0  0  0  0  0  0
    0.9498   -6.9473    4.7496 C   0  0  0  0  0  0  0  0  0  0  0  0
    0.9828   -5.4043    4.6484 C   0  0  0  0  0  0  0  0  0  0  0  0
    2.3705   -4.7492    4.9273 C   0  0  1  0  0  0  0  0  0  0  0  0
    2.7416   -5.0263    6.4194 C   0  0  0  0  0  0  0  0  0  0  0  0
    2.3414   -3.1419    4.7600 C   0  0  2  0  0  0  0  0  0  0  0  0
    1.0714   -2.5484    5.4550 C   0  0  0  0  0  0  0  0  0  0  0  0
    3.6137   -2.4564    5.3702 C   0  0  0  0  0  0  0  0  0  0  0  0
    3.6294   -0.9161    5.2517 C   0  0  0  0  0  0  0  0  0  0  0  0
    3.3883   -0.3570    3.8254 C   0  0  1  0  0  0  0  0  0  0  0  0
    4.7157   -0.3809    3.0345 C   0  0  0  0  0  0  0  0  0  0  0  0
    2.9265    1.1226    3.9623 C   0  0  0  0  0  0  0  0  0  0  0  0
    2.3935    1.7110    2.6485 C   0  0  0  0  0  0  0  0  0  0  0  0
   -0.9786    0.8955    2.1810 H   0  0  0  0  0  0  0  0  0  0  0  0
   -0.2747    2.4810    2.4504 H   0  0  0  0  0  0  0  0  0  0  0  0
   -0.2194    1.2684    3.7328 H   0  0  0  0  0  0  0  0  0  0  0  0
    1.1710    1.0504    1.0197 H   0  0  0  0  0  0  0  0  0  0  0  0
    0.6134   -1.1866    1.8464 H   0  0  0  0  0  0  0  0  0  0  0  0
    1.3272   -3.0356    2.8752 H   0  0  0  0  0  0  0  0  0  0  0  0
    3.2658   -3.0625    1.3770 H   0  0  0  0  0  0  0  0  0  0  0  0
    4.3668   -3.1490    2.7268 H   0  0  0  0  0  0  0  0  0  0  0  0
    2.2064   -5.1432    2.1017 H   0  0  0  0  0  0  0  0  0  0  0  0
    3.9136   -5.3194    1.7917 H   0  0  0  0  0  0  0  0  0  0  0  0
    4.3792   -5.1241    4.2060 H   0  0  0  0  0  0  0  0  0  0  0  0
    4.4687   -8.5438    5.2355 H   0  0  0  0  0  0  0  0  0  0  0  0
    3.4852   -7.4976    6.1311 H   0  0  0  0  0  0  0  0  0  0  0  0
    5.0157   -6.8999    5.4857 H   0  0  0  0  0  0  0  0  0  0  0  0
    5.1954   -6.9296    2.6377 H   0  0  0  0  0  0  0  0  0  0  0  0
    4.9312   -8.5104    3.2181 H   0  0  0  0  0  0  0  0  0  0  0  0
    3.4763   -7.2899    0.9109 H   0  0  0  0  0  0  0  0  0  0  0  0
    4.5317   -8.6428    0.9510 H   0  0  0  0  0  0  0  0  0  0  0  0
    2.2027   -9.4073    0.8255 H   0  0  0  0  0  0  0  0  0  0  0  0
    3.4687  -10.8166    1.7799 H   0  0  0  0  0  0  0  0  0  0  0  0
    0.0413   -6.7216    2.1981 H   0  0  0  0  0  0  0  0  0  0  0  0
    0.1182   -7.8807    0.9056 H   0  0  0  0  0  0  0  0  0  0  0  0
    1.4088   -6.7563    1.0817 H   0  0  0  0  0  0  0  0  0  0  0  0
   -0.5344   -9.0533    3.3298 H   0  0  0  0  0  0  0  0  0  0  0  0
    0.7678  -10.1757    3.6924 H   0  0  0  0  0  0  0  0  0  0  0  0
    0.1283  -10.0708    2.0773 H   0  0  0  0  0  0  0  0  0  0  0  0
    2.1544   -8.6331    4.5156 H   0  0  0  0  0  0  0  0  0  0  0  0
   -0.0579   -7.2716    4.5022 H   0  0  0  0  0  0  0  0  0  0  0  0
    1.0515   -7.2425    5.7909 H   0  0  0  0  0  0  0  0  0  0  0  0
    0.6168   -5.1024    3.6696 H   0  0  0  0  0  0  0  0  0  0  0  0
    0.2384   -5.0347    5.3522 H   0  0  0  0  0  0  0  0  0  0  0  0
    2.3468   -4.2860    7.1091 H   0  0  0  0  0  0  0  0  0  0  0  0
    3.8214   -5.0384    6.5652 H   0  0  0  0  0  0  0  0  0  0  0  0
    2.3418   -5.9501    6.8199 H   0  0  0  0  0  0  0  0  0  0  0  0
    1.0066   -2.7871    6.5146 H   0  0  0  0  0  0  0  0  0  0  0  0
    0.1508   -2.8868    4.9826 H   0  0  0  0  0  0  0  0  0  0  0  0
    1.0220   -1.4634    5.3937 H   0  0  0  0  0  0  0  0  0  0  0  0
    3.7196   -2.6758    6.4312 H   0  0  0  0  0  0  0  0  0  0  0  0
    4.5157   -2.8579    4.9113 H   0  0  0  0  0  0  0  0  0  0  0  0
    2.8874   -0.5139    5.9410 H   0  0  0  0  0  0  0  0  0  0  0  0
    4.5794   -0.5385    5.6325 H   0  0  0  0  0  0  0  0  0  0  0  0
    5.3859    0.4129    3.3607 H   0  0  0  0  0  0  0  0  0  0  0  0
    4.5458   -0.2466    1.9666 H   0  0  0  0  0  0  0  0  0  0  0  0
    5.2691   -1.3055    3.1689 H   0  0  0  0  0  0  0  0  0  0  0  0
    2.1312    1.1981    4.7044 H   0  0  0  0  0  0  0  0  0  0  0  0
    3.7417    1.7430    4.3375 H   0  0  0  0  0  0  0  0  0  0  0  0
    3.1915    1.7087    1.9074 H   0  0  0  0  0  0  0  0  0  0  0  0
    2.1213    2.7598    2.7803 H   0  0  0  0  0  0  0  0  0  0  0  0
  1  2  1  0
  1 31  1  0
  1 32  1  0
  1 33  1  0
  2 30  1  0
  2  3  1  0
  2 34  1  6
  3  4  2  0
  3 35  1  0
  4 27  1  0
  4  5  1  0
  5 23  1  0
  5  6  1  0
  5 36  1  6
  6  7  1  0
  6 37  1  0
  6 38  1  0
  7  8  1  0
  7 39  1  0
  7 40  1  0
  8 21  1  0
  8  9  1  0
  8 41  1  1
  9 18  1  0
  9 10  1  1
  9 11  1  0
 10 42  1  0
 10 43  1  0
 10 44  1  0
 11 12  1  0
 11 45  1  0
 11 46  1  0
 12 13  1  0
 12 47  1  0
 12 48  1  0
 13 14  1  0
 13 15  1  0
 13 49  1  6
 14 50  1  0
 15 16  1  0
 15 17  1  0
 15 18  1  0
 16 51  1  0
 16 52  1  0
 16 53  1  0
 17 54  1  0
 17 55  1  0
 17 56  1  0
 18 19  1  0
 18 57  1  1
 19 20  1  0
 19 58  1  0
 19 59  1  0
 20 21  1  0
 20 60  1  0
 20 61  1  0
 21 22  1  1
 21 23  1  0
 22 62  1  0
 22 63  1  0
 22 64  1  0
 23 24  1  1
 23 25  1  0
 24 65  1  0
 24 66  1  0
 24 67  1  0
 25 26  1  0
 25 68  1  0
 25 69  1  0
 26 27  1  0
 26 70  1  0
 26 71  1  0
 27 28  1  6
 27 29  1  0
 28 72  1  0
 28 73  1  0
 28 74  1  0
 29 30  1  0
 29 75  1  0
 29 76  1  0
 30 77  1  0
 30 78  1  0
M  END
>  <i_m_ct_stereo_status>  (171) 
1

>  <s_m_source_file>  (171) 
/var/tmp/pbs.5076255.sched01/tmpmqqk35eb/391x3533zq.sdf

>  <i_m_source_file_index>  (171) 
29

>  <i_lp_mmshare_version>  (171) 
48012

>  <i_f3d_flags>  (171) 
0

>  <s_epik_input>  (171) 
W0NIM11bQ0BIXShbQ0hdPTEpW0NIMl1bQ0gyXVtDQEBdKFtDSDNdKShbQ0gyXVtDSDJdMilDMVtDQEBIXShbQ0gyXVtDSDJdMylbQ0BAXTIoW0NIM10pW0NAXShbQ0gzXSkoW0NASF0zW0NAXTQ1W0NIM10pW0NIMl1bQ0gyXVtDQEhdNUMoW0NIM10pKFtDSDNdKVtDQEhdKFtPSF0pW0NIMl1bQ0gyXTQ=

>  <s_epik_cmdline>  (171) 
J2VwaWtfcHl0aG9uJywgJy1waHQnLCAnMi4wJywgJy1waCcsICc3LjAnLCAnLXRuJywgJzgnLCAnLW1hJywgJzIwMCcsICctaW1hZScsICc8aW5maWxlLm1hZT4nLCAnLW9tYWUnLCAnPG91dGZpbGUubWFlPic=

>  <r_lp_tautomer_probability>  (171) 
1

>  <r_epik_Ionization_Penalty>  (171) 
3.13548e-06

>  <r_epik_Ionization_Penalty_Charging>  (171) 
0

>  <r_epik_Ionization_Penalty_Neutral>  (171) 
3.13548e-06

>  <r_epik_State_Penalty>  (171) 
-0

>  <r_epik_Charging_Adjusted_Penalty>  (171) 
0

>  <i_epik_Tot_Q>  (171) 
0

>  <i_epik_Tot_abs_Q>  (171) 
0

>  <s_lp_Force_Field>  (171) 
OPLS3e

>  <r_lp_Energy>  (171) 
95.3942

>  <b_lp_Chiralities_Consistent>  (171) 
1

>  <s_lp_Variant>  (171) 
53:0-1

>  <s_i_glide_gridfile>  (171) 
pfpi4k_grid

>  <i_i_glide_lignum>  (171) 
29

>  <i_i_glide_rotatable_bonds>  (171) 
1

>  <r_i_docking_score>  (171) 
-2.62592

>  <r_i_glide_ligand_efficiency>  (171) 
-0.0875308

>  <r_i_glide_ligand_efficiency_sa>  (171) 
-0.271978

>  <r_i_glide_ligand_efficiency_ln>  (171) 
-0.596638

>  <r_i_glide_gscore>  (171) 
-2.62592

>  <r_i_glide_lipo>  (171) 
-0.124831

>  <r_i_glide_hbond>  (171) 
-0.151577

>  <r_i_glide_metal>  (171) 
-0

>  <r_i_glide_rewards>  (171) 
-0.59529

>  <r_i_glide_evdw>  (171) 
-28.7395

>  <r_i_glide_ecoul>  (171) 
-2.11501

>  <r_i_glide_erotb>  (171) 
0

>  <r_i_glide_esite>  (171) 
0

>  <r_i_glide_emodel>  (171) 
-35.5235

>  <r_i_glide_energy>  (171) 
-30.8545

>  <r_i_glide_einternal>  (171) 
0.646465

>  <r_i_glide_intrahb_reward>  (171) 
-0

>  <i_i_glide_confnum>  (171) 
1

>  <i_i_glide_posenum>  (171) 
1

>  <r_i_glide_eff_state_penalty>  (171) 
0

>  <ligand_id>  (171) 
53

>  <original_smiles>  (171) 
CC1C=C2C3CCC4C5(C)CCC(O)C(C)(C)C5CCC4(C)C3(C)CCC2(C)CC1

>  <smiles>  (171) 
[H]OC1([H])C([H])([H])C([H])([H])C2(C([H])([H])[H])C([H])(C([H])([H])C([H])([H])C3(C([H])([H])[H])C2([H])C([H])([H])C([H])([H])C2([H])C4=C([H])C([H])(C([H])([H])[H])C([H])([H])C([H])([H])C4(C([H])([H])[H])C([H])([H])C([H])([H])C23C([H])([H])[H])C1(C([H])([H])[H])C([H])([H])[H]

$$$$
53:0:2
     RDKit          3D

 78 82  0  0  1  0  0  0  0  0999 V2000
   -0.0666    1.4650    2.4970 C   0  0  0  0  0  0  0  0  0  0  0  0
    1.2947    0.8765    2.0943 C   0  0  2  0  0  0  0  0  0  0  0  0
    1.3325   -0.6115    2.3749 C   0  0  0  0  0  0  0  0  0  0  0  0
    2.1727   -1.2458    3.2170 C   0  0  0  0  0  0  0  0  0  0  0  0
    2.0452   -2.7619    3.4205 C   0  0  1  0  0  0  0  0  0  0  0  0
    3.1542   -3.5300    2.6930 C   0  0  0  0  0  0  0  0  0  0  0  0
    2.8951   -5.0257    2.7710 C   0  0  0  0  0  0  0  0  0  0  0  0
    2.9047   -5.5615    4.2266 C   0  0  2  0  0  0  0  0  0  0  0  0
    2.8582   -7.1584    4.2831 C   0  0  2  0  0  0  0  0  0  0  0  0
    3.3950   -7.6235    5.6722 C   0  0  0  0  0  0  0  0  0  0  0  0
    3.8944   -7.8164    3.3001 C   0  0  0  0  0  0  0  0  0  0  0  0
    3.3792   -8.2950    1.9375 C   0  0  0  0  0  0  0  0  0  0  0  0
    2.1246   -9.1571    2.0792 C   0  0  1  0  0  0  0  0  0  0  0  0
    2.4743  -10.3160    2.8121 O   0  0  0  0  0  0  0  0  0  0  0  0
    0.9461   -8.3944    2.7389 C   0  0  0  0  0  0  0  0  0  0  0  0
    0.3847   -7.3702    1.7190 C   0  0  0  0  0  0  0  0  0  0  0  0
   -0.1950   -9.4228    2.9937 C   0  0  0  0  0  0  0  0  0  0  0  0
    1.4024   -7.7553    4.1141 C   0  0  2  0  0  0  0  0  0  0  0  0
    0.3179   -6.8988    4.8216 C   0  0  0  0  0  0  0  0  0  0  0  0
    0.4548   -5.3637    4.7046 C   0  0  0  0  0  0  0  0  0  0  0  0
    1.8401   -4.7797    5.1134 C   0  0  1  0  0  0  0  0  0  0  0  0
    2.0377   -5.0458    6.6388 C   0  0  0  0  0  0  0  0  0  0  0  0
    1.9188   -3.1766    4.9177 C   0  0  2  0  0  0  0  0  0  0  0  0
    0.6200   -2.4995    5.4668 C   0  0  0  0  0  0  0  0  0  0  0  0
    3.1588   -2.5506    5.6467 C   0  0  0  0  0  0  0  0  0  0  0  0
    3.2760   -1.0163    5.5074 C   0  0  0  0  0  0  0  0  0  0  0  0
    3.2162   -0.4751    4.0544 C   0  0  1  0  0  0  0  0  0  0  0  0
    4.6156   -0.5873    3.4070 C   0  0  0  0  0  0  0  0  0  0  0  0
    2.8304    1.0307    4.1214 C   0  0  0  0  0  0  0  0  0  0  0  0
    2.4727    1.6193    2.7498 C   0  0  0  0  0  0  0  0  0  0  0  0
   -0.8754    0.9810    1.9463 H   0  0  0  0  0  0  0  0  0  0  0  0
   -0.1165    2.5317    2.2654 H   0  0  0  0  0  0  0  0  0  0  0  0
   -0.2634    1.3450    3.5637 H   0  0  0  0  0  0  0  0  0  0  0  0
    1.3876    0.9911    1.0137 H   0  0  0  0  0  0  0  0  0  0  0  0
    0.6167   -1.1865    1.8108 H   0  0  0  0  0  0  0  0  0  0  0  0
    1.1129   -3.0525    2.9338 H   0  0  0  0  0  0  0  0  0  0  0  0
    3.1900   -3.2196    1.6485 H   0  0  0  0  0  0  0  0  0  0  0  0
    4.1396   -3.3379    3.1071 H   0  0  0  0  0  0  0  0  0  0  0  0
    1.9436   -5.2223    2.2901 H   0  0  0  0  0  0  0  0  0  0  0  0
    3.6608   -5.5000    2.1628 H   0  0  0  0  0  0  0  0  0  0  0  0
    3.8866   -5.2820    4.6082 H   0  0  0  0  0  0  0  0  0  0  0  0
    3.6688   -8.6789    5.6918 H   0  0  0  0  0  0  0  0  0  0  0  0
    2.6612   -7.5603    6.4648 H   0  0  0  0  0  0  0  0  0  0  0  0
    4.2820   -7.0637    5.9720 H   0  0  0  0  0  0  0  0  0  0  0  0
    4.7521   -7.1611    3.1593 H   0  0  0  0  0  0  0  0  0  0  0  0
    4.3394   -8.7118    3.7332 H   0  0  0  0  0  0  0  0  0  0  0  0
    3.2040   -7.4590    1.2700 H   0  0  0  0  0  0  0  0  0  0  0  0
    4.1596   -8.8765    1.4457 H   0  0  0  0  0  0  0  0  0  0  0  0
    1.8285   -9.4995    1.0873 H   0  0  0  0  0  0  0  0  0  0  0  0
    1.7908  -10.9599    2.7130 H   0  0  0  0  0  0  0  0  0  0  0  0
   -0.3094   -6.6708    2.1790 H   0  0  0  0  0  0  0  0  0  0  0  0
   -0.1687   -7.8597    0.9175 H   0  0  0  0  0  0  0  0  0  0  0  0
    1.1628   -6.8075    1.2120 H   0  0  0  0  0  0  0  0  0  0  0  0
   -1.1333   -8.9455    3.2768 H   0  0  0  0  0  0  0  0  0  0  0  0
    0.0510  -10.1296    3.7897 H   0  0  0  0  0  0  0  0  0  0  0  0
   -0.4010  -10.0155    2.0990 H   0  0  0  0  0  0  0  0  0  0  0  0
    1.4393   -8.6523    4.7348 H   0  0  0  0  0  0  0  0  0  0  0  0
   -0.6754   -7.1690    4.4724 H   0  0  0  0  0  0  0  0  0  0  0  0
    0.2947   -7.1815    5.8710 H   0  0  0  0  0  0  0  0  0  0  0  0
    0.2154   -5.0621    3.6872 H   0  0  0  0  0  0  0  0  0  0  0  0
   -0.3350   -4.9380    5.3223 H   0  0  0  0  0  0  0  0  0  0  0  0
    1.6162   -4.2703    7.2712 H   0  0  0  0  0  0  0  0  0  0  0  0
    3.0943   -5.1147    6.8959 H   0  0  0  0  0  0  0  0  0  0  0  0
    1.5455   -5.9375    7.0080 H   0  0  0  0  0  0  0  0  0  0  0  0
    0.4328   -2.7120    6.5171 H   0  0  0  0  0  0  0  0  0  0  0  0
   -0.2643   -2.7961    4.9055 H   0  0  0  0  0  0  0  0  0  0  0  0
    0.6406   -1.4151    5.3842 H   0  0  0  0  0  0  0  0  0  0  0  0
    3.1411   -2.7533    6.7163 H   0  0  0  0  0  0  0  0  0  0  0  0
    4.0785   -3.0120    5.2905 H   0  0  0  0  0  0  0  0  0  0  0  0
    2.4913   -0.5585    6.1094 H   0  0  0  0  0  0  0  0  0  0  0  0
    4.2024   -0.6854    5.9796 H   0  0  0  0  0  0  0  0  0  0  0  0
    5.2932    0.1761    3.7871 H   0  0  0  0  0  0  0  0  0  0  0  0
    4.5640   -0.4671    2.3255 H   0  0  0  0  0  0  0  0  0  0  0  0
    5.0985   -1.5379    3.6130 H   0  0  0  0  0  0  0  0  0  0  0  0
    1.9675    1.1657    4.7742 H   0  0  0  0  0  0  0  0  0  0  0  0
    3.6361    1.6123    4.5728 H   0  0  0  0  0  0  0  0  0  0  0  0
    3.3417    1.5578    2.0953 H   0  0  0  0  0  0  0  0  0  0  0  0
    2.2494    2.6838    2.8381 H   0  0  0  0  0  0  0  0  0  0  0  0
  1  2  1  0
  1 31  1  0
  1 32  1  0
  1 33  1  0
  2 30  1  0
  2  3  1  0
  2 34  1  6
  3  4  2  0
  3 35  1  0
  4 27  1  0
  4  5  1  0
  5 23  1  0
  5  6  1  0
  5 36  1  6
  6  7  1  0
  6 37  1  0
  6 38  1  0
  7  8  1  0
  7 39  1  0
  7 40  1  0
  8 21  1  0
  8  9  1  0
  8 41  1  1
  9 18  1  0
  9 10  1  1
  9 11  1  0
 10 42  1  0
 10 43  1  0
 10 44  1  0
 11 12  1  0
 11 45  1  0
 11 46  1  0
 12 13  1  0
 12 47  1  0
 12 48  1  0
 13 14  1  0
 13 15  1  0
 13 49  1  6
 14 50  1  0
 15 16  1  0
 15 17  1  0
 15 18  1  0
 16 51  1  0
 16 52  1  0
 16 53  1  0
 17 54  1  0
 17 55  1  0
 17 56  1  0
 18 19  1  0
 18 57  1  1
 19 20  1  0
 19 58  1  0
 19 59  1  0
 20 21  1  0
 20 60  1  0
 20 61  1  0
 21 22  1  1
 21 23  1  0
 22 62  1  0
 22 63  1  0
 22 64  1  0
 23 24  1  1
 23 25  1  0
 24 65  1  0
 24 66  1  0
 24 67  1  0
 25 26  1  0
 25 68  1  0
 25 69  1  0
 26 27  1  0
 26 70  1  0
 26 71  1  0
 27 28  1  6
 27 29  1  0
 28 72  1  0
 28 73  1  0
 28 74  1  0
 29 30  1  0
 29 75  1  0
 29 76  1  0
 30 77  1  0
 30 78  1  0
M  END
>  <i_m_ct_stereo_status>  (172) 
1

>  <s_m_source_file>  (172) 
/var/tmp/pbs.5076255.sched01/tmpmqqk35eb/391x3533zq.sdf

>  <i_m_source_file_index>  (172) 
29

>  <i_lp_mmshare_version>  (172) 
48012

>  <i_f3d_flags>  (172) 
0

>  <s_epik_input>  (172) 
W0NIM11bQ0BIXShbQ0hdPTEpW0NIMl1bQ0gyXVtDQEBdKFtDSDNdKShbQ0gyXVtDSDJdMilDMVtDQEBIXShbQ0gyXVtDSDJdMylbQ0BAXTIoW0NIM10pW0NAXShbQ0gzXSkoW0NASF0zW0NAXTQ1W0NIM10pW0NIMl1bQ0gyXVtDQEhdNUMoW0NIM10pKFtDSDNdKVtDQEhdKFtPSF0pW0NIMl1bQ0gyXTQ=

>  <s_epik_cmdline>  (172) 
J2VwaWtfcHl0aG9uJywgJy1waHQnLCAnMi4wJywgJy1waCcsICc3LjAnLCAnLXRuJywgJzgnLCAnLW1hJywgJzIwMCcsICctaW1hZScsICc8aW5maWxlLm1hZT4nLCAnLW9tYWUnLCAnPG91dGZpbGUubWFlPic=

>  <r_lp_tautomer_probability>  (172) 
1

>  <r_epik_Ionization_Penalty>  (172) 
3.13548e-06

>  <r_epik_Ionization_Penalty_Charging>  (172) 
0

>  <r_epik_Ionization_Penalty_Neutral>  (172) 
3.13548e-06

>  <r_epik_State_Penalty>  (172) 
-0

>  <r_epik_Charging_Adjusted_Penalty>  (172) 
0

>  <i_epik_Tot_Q>  (172) 
0

>  <i_epik_Tot_abs_Q>  (172) 
0

>  <s_lp_Force_Field>  (172) 
OPLS3e

>  <r_lp_Energy>  (172) 
95.3942

>  <b_lp_Chiralities_Consistent>  (172) 
1

>  <s_lp_Variant>  (172) 
53:0-1

>  <s_i_glide_gridfile>  (172) 
pfpi4k_grid

>  <i_i_glide_lignum>  (172) 
29

>  <i_i_glide_rotatable_bonds>  (172) 
1

>  <r_i_docking_score>  (172) 
-2.33301

>  <r_i_glide_ligand_efficiency>  (172) 
-0.077767

>  <r_i_glide_ligand_efficiency_sa>  (172) 
-0.24164

>  <r_i_glide_ligand_efficiency_ln>  (172) 
-0.530085

>  <r_i_glide_gscore>  (172) 
-2.33301

>  <r_i_glide_lipo>  (172) 
-0.156038

>  <r_i_glide_hbond>  (172) 
0

>  <r_i_glide_metal>  (172) 
-0

>  <r_i_glide_rewards>  (172) 
-0.59529

>  <r_i_glide_evdw>  (172) 
-29.4042

>  <r_i_glide_ecoul>  (172) 
-0.743148

>  <r_i_glide_erotb>  (172) 
0

>  <r_i_glide_esite>  (172) 
0

>  <r_i_glide_emodel>  (172) 
-34.484

>  <r_i_glide_energy>  (172) 
-30.1473

>  <r_i_glide_einternal>  (172) 
0.378295

>  <r_i_glide_intrahb_reward>  (172) 
-0

>  <i_i_glide_confnum>  (172) 
1

>  <i_i_glide_posenum>  (172) 
32

>  <r_i_glide_eff_state_penalty>  (172) 
0

>  <ligand_id>  (172) 
53

>  <original_smiles>  (172) 
CC1C=C2C3CCC4C5(C)CCC(O)C(C)(C)C5CCC4(C)C3(C)CCC2(C)CC1

>  <smiles>  (172) 
[H]OC1([H])C([H])([H])C([H])([H])C2(C([H])([H])[H])C([H])(C([H])([H])C([H])([H])C3(C([H])([H])[H])C2([H])C([H])([H])C([H])([H])C2([H])C4=C([H])C([H])(C([H])([H])[H])C([H])([H])C([H])([H])C4(C([H])([H])[H])C([H])([H])C([H])([H])C23C([H])([H])[H])C1(C([H])([H])[H])C([H])([H])[H]

$$$$
54:0:0
     RDKit          3D

 37 40  0  0  1  0  0  0  0  0999 V2000
    4.7683   -7.4113    0.9747 O   0  0  0  0  0  0  0  0  0  0  0  0
    5.0640   -6.2315    0.9827 C   0  0  0  0  0  0  0  0  0  0  0  0
    4.7744   -5.3864   -0.2859 C   0  0  0  0  0  0  0  0  0  0  0  0
    5.5245   -4.0253   -0.3600 C   0  0  1  0  0  0  0  0  0  0  0  0
    4.9468   -3.1167   -1.4809 C   0  0  1  0  0  0  0  0  0  0  0  0
    4.9024   -3.7197   -2.9092 C   0  0  0  0  0  0  0  0  0  0  0  0
    3.7669   -2.9292   -3.5552 C   0  0  2  0  0  0  0  0  0  0  0  0
    4.1932   -1.4365   -3.6788 C   0  0  0  0  0  0  0  0  0  0  0  0
    4.6659   -0.8954   -2.2937 C   0  0  1  0  0  0  0  0  0  0  0  0
    3.5718   -1.1210   -1.2625 C   0  0  0  0  0  0  0  0  0  0  0  0
    3.4733   -2.6398   -1.2343 C   0  0  1  0  0  0  0  0  0  0  0  0
    2.6878   -3.0491   -2.4782 C   0  0  0  0  0  0  0  0  0  0  0  0
    5.7342   -1.7994   -1.6831 C   0  0  0  0  0  0  0  0  0  0  0  0
    5.5093   -3.3408    1.0270 C   0  0  0  0  0  0  0  0  0  0  0  0
    6.0944   -4.2509    2.1045 C   0  0  0  0  0  0  0  0  0  0  0  0
    5.5975   -5.6232    2.0386 N   0  0  0  0  0  0  0  0  0  0  0  0
    5.0081   -6.0223   -1.1328 H   0  0  0  0  0  0  0  0  0  0  0  0
    3.6940   -5.2372   -0.3017 H   0  0  0  0  0  0  0  0  0  0  0  0
    6.5678   -4.2397   -0.6093 H   0  0  0  0  0  0  0  0  0  0  0  0
    5.8432   -3.6459   -3.4542 H   0  0  0  0  0  0  0  0  0  0  0  0
    4.6244   -4.7686   -2.9242 H   0  0  0  0  0  0  0  0  0  0  0  0
    3.4429   -3.3607   -4.5007 H   0  0  0  0  0  0  0  0  0  0  0  0
    5.0131   -1.3517   -4.3920 H   0  0  0  0  0  0  0  0  0  0  0  0
    3.3473   -0.8469   -4.0527 H   0  0  0  0  0  0  0  0  0  0  0  0
    4.9547    0.1518   -2.3427 H   0  0  0  0  0  0  0  0  0  0  0  0
    3.8589   -0.7431   -0.2823 H   0  0  0  0  0  0  0  0  0  0  0  0
    2.6394   -0.6679   -1.5582 H   0  0  0  0  0  0  0  0  0  0  0  0
    2.9831   -3.0138   -0.3347 H   0  0  0  0  0  0  0  0  0  0  0  0
    1.8135   -2.4195   -2.6648 H   0  0  0  0  0  0  0  0  0  0  0  0
    2.3183   -4.0586   -2.3647 H   0  0  0  0  0  0  0  0  0  0  0  0
    6.1001   -1.3288   -0.7772 H   0  0  0  0  0  0  0  0  0  0  0  0
    6.6259   -1.9418   -2.2946 H   0  0  0  0  0  0  0  0  0  0  0  0
    6.0877   -2.4107    1.0587 H   0  0  0  0  0  0  0  0  0  0  0  0
    4.4888   -3.0886    1.3304 H   0  0  0  0  0  0  0  0  0  0  0  0
    7.1798   -4.2780    2.0111 H   0  0  0  0  0  0  0  0  0  0  0  0
    5.8383   -3.8323    3.0740 H   0  0  0  0  0  0  0  0  0  0  0  0
    5.7319   -6.1972    2.8670 H   0  0  0  0  0  0  0  0  0  0  0  0
  1  2  2  0
  2 16  1  0
  2  3  1  0
  3  4  1  0
  3 17  1  0
  3 18  1  0
  4  5  1  0
  4 14  1  0
  4 19  1  6
  5 11  1  0
  5 13  1  6
  5  6  1  0
  6  7  1  0
  6 20  1  0
  6 21  1  0
  7 12  1  0
  7  8  1  0
  7 22  1  6
  8  9  1  0
  8 23  1  0
  8 24  1  0
  9 10  1  0
  9 13  1  0
  9 25  1  6
 10 11  1  0
 10 26  1  0
 10 27  1  0
 11 12  1  0
 11 28  1  1
 12 29  1  0
 12 30  1  0
 13 31  1  0
 13 32  1  0
 14 15  1  0
 14 33  1  0
 14 34  1  0
 15 16  1  0
 15 35  1  0
 15 36  1  0
 16 37  1  0
M  END
>  <i_m_ct_stereo_status>  (173) 
1

>  <s_m_source_file>  (173) 
/var/tmp/pbs.5076255.sched01/tmpmqqk35eb/391x3533zq.sdf

>  <i_m_source_file_index>  (173) 
30

>  <i_lp_mmshare_version>  (173) 
48012

>  <i_f3d_flags>  (173) 
0

>  <s_epik_input>  (173) 
Tz1DMVtDSDJdW0NASF0oW0NIMl1bQ0gyXVtOSF0xKVtDQF0yM1tDQEhdNFtDSDJdW0NAQEhdKFtDSDJdMylbQ0gyXVtDQEBIXShbQ0gyXTIpW0NIMl00

>  <s_epik_cmdline>  (173) 
J2VwaWtfcHl0aG9uJywgJy1waHQnLCAnMi4wJywgJy1waCcsICc3LjAnLCAnLXRuJywgJzgnLCAnLW1hJywgJzIwMCcsICctaW1hZScsICc8aW5maWxlLm1hZT4nLCAnLW9tYWUnLCAnPG91dGZpbGUubWFlPic=

>  <r_lp_tautomer_probability>  (173) 
1

>  <r_epik_Ionization_Penalty>  (173) 
2.65059e-07

>  <r_epik_Ionization_Penalty_Charging>  (173) 
0

>  <r_epik_Ionization_Penalty_Neutral>  (173) 
2.65059e-07

>  <r_epik_State_Penalty>  (173) 
-0

>  <r_epik_Charging_Adjusted_Penalty>  (173) 
0

>  <i_epik_Tot_Q>  (173) 
0

>  <i_epik_Tot_abs_Q>  (173) 
0

>  <s_lp_Force_Field>  (173) 
OPLS3e

>  <r_lp_Energy>  (173) 
38.2758

>  <b_lp_Chiralities_Consistent>  (173) 
1

>  <s_lp_Variant>  (173) 
54:0-1

>  <s_i_glide_gridfile>  (173) 
pfpi4k_grid

>  <i_i_glide_lignum>  (173) 
30

>  <i_i_glide_rotatable_bonds>  (173) 
1

>  <r_i_docking_score>  (173) 
-3.4129

>  <r_i_glide_ligand_efficiency>  (173) 
-0.213306

>  <r_i_glide_ligand_efficiency_sa>  (173) 
-0.537499

>  <r_i_glide_ligand_efficiency_ln>  (173) 
-0.904658

>  <r_i_glide_gscore>  (173) 
-3.4129

>  <r_i_glide_lipo>  (173) 
-0.623915

>  <r_i_glide_hbond>  (173) 
0

>  <r_i_glide_metal>  (173) 
-0

>  <r_i_glide_rewards>  (173) 
-2.06162

>  <r_i_glide_evdw>  (173) 
-19.3545

>  <r_i_glide_ecoul>  (173) 
-0.72983

>  <r_i_glide_erotb>  (173) 
0.349827

>  <r_i_glide_esite>  (173) 
0

>  <r_i_glide_emodel>  (173) 
-22.5355

>  <r_i_glide_energy>  (173) 
-20.0843

>  <r_i_glide_einternal>  (173) 
1.92208

>  <r_i_glide_intrahb_reward>  (173) 
-0

>  <i_i_glide_confnum>  (173) 
3

>  <i_i_glide_posenum>  (173) 
1

>  <r_i_glide_eff_state_penalty>  (173) 
0

>  <ligand_id>  (173) 
54

>  <original_smiles>  (173) 
O=C1CC(C23CC4CC(CC2C4)C3)CCN1

>  <smiles>  (173) 
[H]N1C(=O)C([H])([H])C([H])(C23C([H])([H])C4([H])C([H])([H])C([H])(C([H])([H])C2([H])C4([H])[H])C3([H])[H])C([H])([H])C1([H])[H]

$$$$
55:0:0
     RDKit          3D

 41 45  0  0  1  0  0  0  0  0999 V2000
    5.5789   -5.4643    2.0746 C   0  0  0  0  0  0  0  0  0  0  0  0
    4.8162   -4.3610    2.0582 C   0  0  0  0  0  0  0  0  0  0  0  0
    4.8282   -3.1908    3.0218 C   0  0  2  0  0  0  0  0  0  0  0  0
    3.3801   -2.9151    3.5675 C   0  0  0  0  0  0  0  0  0  0  0  0
    2.5947   -2.2959    2.3648 C   0  0  1  0  0  0  0  0  0  0  0  0
    2.2000   -0.9574    2.6066 O   0  0  0  0  0  0  0  0  0  0  0  0
    3.6740   -2.4209    1.2776 C   0  0  2  0  0  0  0  0  0  0  0  0
    3.4718   -1.8935   -0.1538 C   0  0  0  0  0  0  0  0  0  0  0  0
    4.2182   -0.9306   -0.7256 C   0  0  0  0  0  0  0  0  0  0  0  0
    4.6150   -0.9685   -2.2025 C   0  0  0  0  0  0  0  0  0  0  0  0
    4.4256   -2.3650   -2.8691 C   0  0  1  0  0  0  0  0  0  0  0  0
    5.4790   -3.4557   -2.4840 C   0  0  0  0  0  0  0  0  0  0  0  0
    5.2268   -4.1409   -1.1324 C   0  0  0  0  0  0  0  0  0  0  0  0
    4.0739   -3.9488   -0.4674 C   0  0  0  0  0  0  0  0  0  0  0  0
    3.0015   -3.0551   -0.9994 C   0  0  2  0  0  0  0  0  0  0  0  0
    3.0352   -2.8584   -2.5126 C   0  0  0  0  0  0  0  0  0  0  0  0
    3.8135   -3.9552    1.0164 C   0  0  1  0  0  0  0  0  0  0  0  0
    5.0069   -2.0706    2.0084 C   0  0  1  0  0  0  0  0  0  0  0  0
    5.2213   -0.6790    2.6455 C   0  0  0  0  0  0  0  0  0  0  0  0
    5.4836   -6.1997    1.2934 H   0  0  0  0  0  0  0  0  0  0  0  0
    6.3021   -5.6384    2.8562 H   0  0  0  0  0  0  0  0  0  0  0  0
    5.5978   -3.2789    3.7870 H   0  0  0  0  0  0  0  0  0  0  0  0
    2.9031   -3.8391    3.8982 H   0  0  0  0  0  0  0  0  0  0  0  0
    3.3915   -2.2458    4.4266 H   0  0  0  0  0  0  0  0  0  0  0  0
    1.6870   -2.8597    2.1301 H   0  0  0  0  0  0  0  0  0  0  0  0
    1.8380   -0.6072    1.8030 H   0  0  0  0  0  0  0  0  0  0  0  0
    4.7380   -0.1983   -0.1316 H   0  0  0  0  0  0  0  0  0  0  0  0
    4.0280   -0.2141   -2.7274 H   0  0  0  0  0  0  0  0  0  0  0  0
    5.6568   -0.6722   -2.2822 H   0  0  0  0  0  0  0  0  0  0  0  0
    4.4879   -2.2205   -3.9481 H   0  0  0  0  0  0  0  0  0  0  0  0
    5.4757   -4.2439   -3.2357 H   0  0  0  0  0  0  0  0  0  0  0  0
    6.4802   -3.0251   -2.4853 H   0  0  0  0  0  0  0  0  0  0  0  0
    6.0711   -4.6085   -0.6511 H   0  0  0  0  0  0  0  0  0  0  0  0
    2.0116   -3.3888   -0.6837 H   0  0  0  0  0  0  0  0  0  0  0  0
    2.2737   -2.1413   -2.8197 H   0  0  0  0  0  0  0  0  0  0  0  0
    2.8205   -3.8005   -3.0193 H   0  0  0  0  0  0  0  0  0  0  0  0
    2.8855   -4.5017    1.1892 H   0  0  0  0  0  0  0  0  0  0  0  0
    5.8570   -2.2685    1.3514 H   0  0  0  0  0  0  0  0  0  0  0  0
    4.5442   -0.4656    3.4704 H   0  0  0  0  0  0  0  0  0  0  0  0
    5.1155    0.1282    1.9273 H   0  0  0  0  0  0  0  0  0  0  0  0
    6.2271   -0.6170    3.0554 H   0  0  0  0  0  0  0  0  0  0  0  0
  1  2  2  0
  1 20  1  0
  1 21  1  0
  2 17  1  0
  2  3  1  0
  3 18  1  0
  3  4  1  0
  3 22  1  1
  4  5  1  0
  4 23  1  0
  4 24  1  0
  5  6  1  0
  5  7  1  0
  5 25  1  6
  6 26  1  0
  7 17  1  0
  7  8  1  6
  7 18  1  0
  8 15  1  0
  8  9  2  0
  9 10  1  0
  9 27  1  0
 10 11  1  0
 10 28  1  0
 10 29  1  0
 11 16  1  0
 11 12  1  0
 11 30  1  6
 12 13  1  0
 12 31  1  0
 12 32  1  0
 13 14  2  0
 13 33  1  0
 14 15  1  0
 14 17  1  0
 15 16  1  0
 15 34  1  1
 16 35  1  0
 16 36  1  0
 17 37  1  6
 18 19  1  0
 18 38  1  6
 19 39  1  0
 19 40  1  0
 19 41  1  0
M  END
>  <i_m_ct_stereo_status>  (174) 
1

>  <s_m_source_file>  (174) 
/var/tmp/pbs.5076255.sched01/tmpmqqk35eb/391x3533zq.sdf

>  <i_m_source_file_index>  (174) 
31

>  <i_lp_mmshare_version>  (174) 
48012

>  <i_f3d_flags>  (174) 
0

>  <s_epik_input>  (174) 
W09IXVtDQEBIXTFbQ0gyXVtDQEhdKFtDQEBIXTJbQ0gzXSlDKD1bQ0gyXSlbQ0BASF0zQyhbQ0BIXTRDPTVbQ0BdMTIzKT1bQ0hdW0NIMl1bQ0BASF0oW0NIMl00KVtDSDJdW0NIXTU=

>  <s_epik_cmdline>  (174) 
J2VwaWtfcHl0aG9uJywgJy1waHQnLCAnMi4wJywgJy1waCcsICc3LjAnLCAnLXRuJywgJzgnLCAnLW1hJywgJzIwMCcsICctaW1hZScsICc8aW5maWxlLm1hZT4nLCAnLW9tYWUnLCAnPG91dGZpbGUubWFlPic=

>  <r_lp_tautomer_probability>  (174) 
1

>  <r_epik_Ionization_Penalty>  (174) 
5.5849e-07

>  <r_epik_Ionization_Penalty_Charging>  (174) 
0

>  <r_epik_Ionization_Penalty_Neutral>  (174) 
5.5849e-07

>  <r_epik_State_Penalty>  (174) 
-0

>  <r_epik_Charging_Adjusted_Penalty>  (174) 
0

>  <i_epik_Tot_Q>  (174) 
0

>  <i_epik_Tot_abs_Q>  (174) 
0

>  <s_lp_Force_Field>  (174) 
OPLS3e

>  <r_lp_Energy>  (174) 
75.3602

>  <b_lp_Chiralities_Consistent>  (174) 
1

>  <s_lp_Variant>  (174) 
55:0-1

>  <s_i_glide_gridfile>  (174) 
pfpi4k_grid

>  <i_i_glide_lignum>  (174) 
31

>  <i_i_glide_rotatable_bonds>  (174) 
1

>  <r_i_docking_score>  (174) 
-3.49301

>  <r_i_glide_ligand_efficiency>  (174) 
-0.183843

>  <r_i_glide_ligand_efficiency_sa>  (174) 
-0.490566

>  <r_i_glide_ligand_efficiency_ln>  (174) 
-0.885554

>  <r_i_glide_gscore>  (174) 
-3.49301

>  <r_i_glide_lipo>  (174) 
-0.620709

>  <r_i_glide_hbond>  (174) 
0

>  <r_i_glide_metal>  (174) 
-0

>  <r_i_glide_rewards>  (174) 
-1.67477

>  <r_i_glide_evdw>  (174) 
-22.9432

>  <r_i_glide_ecoul>  (174) 
-0.335808

>  <r_i_glide_erotb>  (174) 
0

>  <r_i_glide_esite>  (174) 
0

>  <r_i_glide_emodel>  (174) 
-27.9101

>  <r_i_glide_energy>  (174) 
-23.279

>  <r_i_glide_einternal>  (174) 
0.310133

>  <r_i_glide_intrahb_reward>  (174) 
-0

>  <i_i_glide_confnum>  (174) 
1

>  <i_i_glide_posenum>  (174) 
39

>  <r_i_glide_eff_state_penalty>  (174) 
0

>  <ligand_id>  (174) 
55

>  <original_smiles>  (174) 
C=C1C2CC(O)C3(C4=CCC5CC=C(C4C5)C13)C2C

>  <smiles>  (174) 
[H]OC1([H])C([H])([H])C2([H])C(=C([H])[H])C3([H])C4=C([H])C([H])([H])C5([H])C([H])([H])C([H])=C(C4([H])C5([H])[H])C31C2([H])C([H])([H])[H]

$$$$
55:0:1
     RDKit          3D

 41 45  0  0  1  0  0  0  0  0999 V2000
    5.7878   -0.8124    2.5388 C   0  0  0  0  0  0  0  0  0  0  0  0
    5.3436   -2.0382    2.2425 C   0  0  0  0  0  0  0  0  0  0  0  0
    4.3973   -2.9114    3.0396 C   0  0  2  0  0  0  0  0  0  0  0  0
    5.0132   -4.3399    3.2633 C   0  0  0  0  0  0  0  0  0  0  0  0
    4.9547   -5.0413    1.8658 C   0  0  1  0  0  0  0  0  0  0  0  0
    4.1047   -6.1707    1.8625 O   0  0  0  0  0  0  0  0  0  0  0  0
    4.4239   -3.8671    1.0251 C   0  0  2  0  0  0  0  0  0  0  0  0
    4.0955   -3.9989   -0.4773 C   0  0  0  0  0  0  0  0  0  0  0  0
    2.8726   -3.8087   -1.0111 C   0  0  0  0  0  0  0  0  0  0  0  0
    2.6649   -3.1098   -2.3645 C   0  0  0  0  0  0  0  0  0  0  0  0
    3.9232   -2.3536   -2.8850 C   0  0  1  0  0  0  0  0  0  0  0  0
    4.2220   -0.9927   -2.1837 C   0  0  0  0  0  0  0  0  0  0  0  0
    4.9257   -1.1082   -0.8258 C   0  0  0  0  0  0  0  0  0  0  0  0
    5.4335   -2.2869   -0.4111 C   0  0  0  0  0  0  0  0  0  0  0  0
    5.3146   -3.5280   -1.2424 C   0  0  2  0  0  0  0  0  0  0  0  0
    5.1260   -3.2669   -2.7354 C   0  0  0  0  0  0  0  0  0  0  0  0
    5.5909   -2.8271    0.9878 C   0  0  1  0  0  0  0  0  0  0  0  0
    3.3758   -3.1788    1.9506 C   0  0  1  0  0  0  0  0  0  0  0  0
    2.1466   -3.9518    2.4654 C   0  0  0  0  0  0  0  0  0  0  0  0
    6.4346   -0.2990    1.8508 H   0  0  0  0  0  0  0  0  0  0  0  0
    5.5214   -0.3228    3.4634 H   0  0  0  0  0  0  0  0  0  0  0  0
    4.0228   -2.4214    3.9367 H   0  0  0  0  0  0  0  0  0  0  0  0
    6.0433   -4.2749    3.6089 H   0  0  0  0  0  0  0  0  0  0  0  0
    4.4679   -4.9032    4.0202 H   0  0  0  0  0  0  0  0  0  0  0  0
    5.9379   -5.3855    1.5371 H   0  0  0  0  0  0  0  0  0  0  0  0
    3.2503   -5.8877    2.1615 H   0  0  0  0  0  0  0  0  0  0  0  0
    1.9792   -3.9499   -0.4268 H   0  0  0  0  0  0  0  0  0  0  0  0
    2.3779   -3.8607   -3.0948 H   0  0  0  0  0  0  0  0  0  0  0  0
    1.8143   -2.4304   -2.2988 H   0  0  0  0  0  0  0  0  0  0  0  0
    3.7544   -2.1428   -3.9400 H   0  0  0  0  0  0  0  0  0  0  0  0
    4.8337   -0.3529   -2.8173 H   0  0  0  0  0  0  0  0  0  0  0  0
    3.2655   -0.4933   -2.0513 H   0  0  0  0  0  0  0  0  0  0  0  0
    4.8034   -0.2809   -0.1392 H   0  0  0  0  0  0  0  0  0  0  0  0
    6.1639   -4.1940   -1.0748 H   0  0  0  0  0  0  0  0  0  0  0  0
    4.9762   -4.2032   -3.2733 H   0  0  0  0  0  0  0  0  0  0  0  0
    6.0173   -2.7921   -3.1468 H   0  0  0  0  0  0  0  0  0  0  0  0
    6.5760   -3.2926    1.0544 H   0  0  0  0  0  0  0  0  0  0  0  0
    3.0291   -2.2486    1.4891 H   0  0  0  0  0  0  0  0  0  0  0  0
    2.3681   -4.7797    3.1339 H   0  0  0  0  0  0  0  0  0  0  0  0
    1.5703   -4.3620    1.6467 H   0  0  0  0  0  0  0  0  0  0  0  0
    1.4989   -3.2721    3.0165 H   0  0  0  0  0  0  0  0  0  0  0  0
  1  2  2  0
  1 20  1  0
  1 21  1  0
  2 17  1  0
  2  3  1  0
  3 18  1  0
  3  4  1  0
  3 22  1  1
  4  5  1  0
  4 23  1  0
  4 24  1  0
  5  6  1  0
  5  7  1  0
  5 25  1  6
  6 26  1  0
  7 17  1  0
  7  8  1  6
  7 18  1  0
  8 15  1  0
  8  9  2  0
  9 10  1  0
  9 27  1  0
 10 11  1  0
 10 28  1  0
 10 29  1  0
 11 16  1  0
 11 12  1  0
 11 30  1  6
 12 13  1  0
 12 31  1  0
 12 32  1  0
 13 14  2  0
 13 33  1  0
 14 15  1  0
 14 17  1  0
 15 16  1  0
 15 34  1  6
 16 35  1  0
 16 36  1  0
 17 37  1  1
 18 19  1  0
 18 38  1  6
 19 39  1  0
 19 40  1  0
 19 41  1  0
M  END
>  <i_m_ct_stereo_status>  (175) 
1

>  <s_m_source_file>  (175) 
/var/tmp/pbs.5076255.sched01/tmpmqqk35eb/391x3533zq.sdf

>  <i_m_source_file_index>  (175) 
31

>  <i_lp_mmshare_version>  (175) 
48012

>  <i_f3d_flags>  (175) 
0

>  <s_epik_input>  (175) 
W09IXVtDQEBIXTFbQ0gyXVtDQEhdKFtDQEBIXTJbQ0gzXSlDKD1bQ0gyXSlbQ0BASF0zQyhbQ0BIXTRDPTVbQ0BdMTIzKT1bQ0hdW0NIMl1bQ0BASF0oW0NIMl00KVtDSDJdW0NIXTU=

>  <s_epik_cmdline>  (175) 
J2VwaWtfcHl0aG9uJywgJy1waHQnLCAnMi4wJywgJy1waCcsICc3LjAnLCAnLXRuJywgJzgnLCAnLW1hJywgJzIwMCcsICctaW1hZScsICc8aW5maWxlLm1hZT4nLCAnLW9tYWUnLCAnPG91dGZpbGUubWFlPic=

>  <r_lp_tautomer_probability>  (175) 
1

>  <r_epik_Ionization_Penalty>  (175) 
5.5849e-07

>  <r_epik_Ionization_Penalty_Charging>  (175) 
0

>  <r_epik_Ionization_Penalty_Neutral>  (175) 
5.5849e-07

>  <r_epik_State_Penalty>  (175) 
-0

>  <r_epik_Charging_Adjusted_Penalty>  (175) 
0

>  <i_epik_Tot_Q>  (175) 
0

>  <i_epik_Tot_abs_Q>  (175) 
0

>  <s_lp_Force_Field>  (175) 
OPLS3e

>  <r_lp_Energy>  (175) 
75.3602

>  <b_lp_Chiralities_Consistent>  (175) 
1

>  <s_lp_Variant>  (175) 
55:0-1

>  <s_i_glide_gridfile>  (175) 
pfpi4k_grid

>  <i_i_glide_lignum>  (175) 
31

>  <i_i_glide_rotatable_bonds>  (175) 
1

>  <r_i_docking_score>  (175) 
-3.39717

>  <r_i_glide_ligand_efficiency>  (175) 
-0.178798

>  <r_i_glide_ligand_efficiency_sa>  (175) 
-0.477106

>  <r_i_glide_ligand_efficiency_ln>  (175) 
-0.861255

>  <r_i_glide_gscore>  (175) 
-3.39717

>  <r_i_glide_lipo>  (175) 
-0.692639

>  <r_i_glide_hbond>  (175) 
0

>  <r_i_glide_metal>  (175) 
-0

>  <r_i_glide_rewards>  (175) 
-1.67477

>  <r_i_glide_evdw>  (175) 
-20.3418

>  <r_i_glide_ecoul>  (175) 
-0.0844368

>  <r_i_glide_erotb>  (175) 
0

>  <r_i_glide_esite>  (175) 
0

>  <r_i_glide_emodel>  (175) 
-25.0117

>  <r_i_glide_energy>  (175) 
-20.4263

>  <r_i_glide_einternal>  (175) 
0.0106233

>  <r_i_glide_intrahb_reward>  (175) 
-0

>  <i_i_glide_confnum>  (175) 
1

>  <i_i_glide_posenum>  (175) 
37

>  <r_i_glide_eff_state_penalty>  (175) 
0

>  <ligand_id>  (175) 
55

>  <original_smiles>  (175) 
C=C1C2CC(O)C3(C4=CCC5CC=C(C4C5)C13)C2C

>  <smiles>  (175) 
[H]OC1([H])C([H])([H])C2([H])C(=C([H])[H])C3([H])C4=C([H])C([H])([H])C5([H])C([H])([H])C([H])=C(C4([H])C5([H])[H])C31C2([H])C([H])([H])[H]

$$$$
55:0:2
     RDKit          3D

 41 45  0  0  1  0  0  0  0  0999 V2000
    5.6973   -5.7486    1.6238 C   0  0  0  0  0  0  0  0  0  0  0  0
    4.9336   -4.6516    1.7518 C   0  0  0  0  0  0  0  0  0  0  0  0
    5.0536   -3.5318    2.7693 C   0  0  2  0  0  0  0  0  0  0  0  0
    3.6833   -3.2904    3.4910 C   0  0  0  0  0  0  0  0  0  0  0  0
    2.7719   -2.6069    2.4235 C   0  0  1  0  0  0  0  0  0  0  0  0
    2.4089   -1.2902    2.7894 O   0  0  0  0  0  0  0  0  0  0  0  0
    3.7222   -2.6723    1.2121 C   0  0  2  0  0  0  0  0  0  0  0  0
    3.3770   -2.0699   -0.1619 C   0  0  0  0  0  0  0  0  0  0  0  0
    4.0457   -1.0661   -0.7701 C   0  0  0  0  0  0  0  0  0  0  0  0
    4.2605   -1.0389   -2.2851 C   0  0  0  0  0  0  0  0  0  0  0  0
    3.9909   -2.4038   -2.9952 C   0  0  1  0  0  0  0  0  0  0  0  0
    5.0812   -3.5097   -2.7888 C   0  0  0  0  0  0  0  0  0  0  0  0
    4.9898   -4.2529   -1.4452 C   0  0  0  0  0  0  0  0  0  0  0  0
    3.9171   -4.1020   -0.6441 C   0  0  0  0  0  0  0  0  0  0  0  0
    2.7944   -3.1867   -1.0000 C   0  0  2  0  0  0  0  0  0  0  0  0
    2.6536   -2.9260   -2.5029 C   0  0  0  0  0  0  0  0  0  0  0  0
    3.8206   -4.1931    0.8573 C   0  0  1  0  0  0  0  0  0  0  0  0
    5.1262   -2.3577    1.8024 C   0  0  1  0  0  0  0  0  0  0  0  0
    5.4144   -0.9971    2.4766 C   0  0  0  0  0  0  0  0  0  0  0  0
    5.5138   -6.4456    0.8226 H   0  0  0  0  0  0  0  0  0  0  0  0
    6.5044   -5.9578    2.3077 H   0  0  0  0  0  0  0  0  0  0  0  0
    5.8915   -3.6611    3.4435 H   0  0  0  0  0  0  0  0  0  0  0  0
    3.2478   -4.2331    3.8260 H   0  0  0  0  0  0  0  0  0  0  0  0
    3.8041   -2.6676    4.3769 H   0  0  0  0  0  0  0  0  0  0  0  0
    1.8439   -3.1595    2.2672 H   0  0  0  0  0  0  0  0  0  0  0  0
    3.1891   -0.7578    2.7767 H   0  0  0  0  0  0  0  0  0  0  0  0
    4.6250   -0.3560   -0.2081 H   0  0  0  0  0  0  0  0  0  0  0  0
    3.6111   -0.2682   -2.7012 H   0  0  0  0  0  0  0  0  0  0  0  0
    5.2877   -0.7292   -2.4750 H   0  0  0  0  0  0  0  0  0  0  0  0
    3.9170   -2.2097   -4.0646 H   0  0  0  0  0  0  0  0  0  0  0  0
    4.9968   -4.2615   -3.5733 H   0  0  0  0  0  0  0  0  0  0  0  0
    6.0741   -3.0686   -2.8825 H   0  0  0  0  0  0  0  0  0  0  0  0
    5.8677   -4.7435   -1.0768 H   0  0  0  0  0  0  0  0  0  0  0  0
    1.8488   -3.5407   -0.5908 H   0  0  0  0  0  0  0  0  0  0  0  0
    1.8545   -2.2100   -2.6868 H   0  0  0  0  0  0  0  0  0  0  0  0
    2.3759   -3.8475   -3.0223 H   0  0  0  0  0  0  0  0  0  0  0  0
    2.9182   -4.7519    1.1031 H   0  0  0  0  0  0  0  0  0  0  0  0
    5.8944   -2.5175    1.0403 H   0  0  0  0  0  0  0  0  0  0  0  0
    4.8515   -0.8295    3.3923 H   0  0  0  0  0  0  0  0  0  0  0  0
    5.2264   -0.1561    1.8141 H   0  0  0  0  0  0  0  0  0  0  0  0
    6.4636   -0.9482    2.7600 H   0  0  0  0  0  0  0  0  0  0  0  0
  1  2  2  0
  1 20  1  0
  1 21  1  0
  2 17  1  0
  2  3  1  0
  3 18  1  0
  3  4  1  0
  3 22  1  1
  4  5  1  0
  4 23  1  0
  4 24  1  0
  5  6  1  0
  5  7  1  0
  5 25  1  6
  6 26  1  0
  7 17  1  0
  7  8  1  6
  7 18  1  0
  8 15  1  0
  8  9  2  0
  9 10  1  0
  9 27  1  0
 10 11  1  0
 10 28  1  0
 10 29  1  0
 11 16  1  0
 11 12  1  0
 11 30  1  6
 12 13  1  0
 12 31  1  0
 12 32  1  0
 13 14  2  0
 13 33  1  0
 14 15  1  0
 14 17  1  0
 15 16  1  0
 15 34  1  1
 16 35  1  0
 16 36  1  0
 17 37  1  6
 18 19  1  0
 18 38  1  6
 19 39  1  0
 19 40  1  0
 19 41  1  0
M  END
>  <i_m_ct_stereo_status>  (176) 
1

>  <s_m_source_file>  (176) 
/var/tmp/pbs.5076255.sched01/tmpmqqk35eb/391x3533zq.sdf

>  <i_m_source_file_index>  (176) 
31

>  <i_lp_mmshare_version>  (176) 
48012

>  <i_f3d_flags>  (176) 
0

>  <s_epik_input>  (176) 
W09IXVtDQEBIXTFbQ0gyXVtDQEhdKFtDQEBIXTJbQ0gzXSlDKD1bQ0gyXSlbQ0BASF0zQyhbQ0BIXTRDPTVbQ0BdMTIzKT1bQ0hdW0NIMl1bQ0BASF0oW0NIMl00KVtDSDJdW0NIXTU=

>  <s_epik_cmdline>  (176) 
J2VwaWtfcHl0aG9uJywgJy1waHQnLCAnMi4wJywgJy1waCcsICc3LjAnLCAnLXRuJywgJzgnLCAnLW1hJywgJzIwMCcsICctaW1hZScsICc8aW5maWxlLm1hZT4nLCAnLW9tYWUnLCAnPG91dGZpbGUubWFlPic=

>  <r_lp_tautomer_probability>  (176) 
1

>  <r_epik_Ionization_Penalty>  (176) 
5.5849e-07

>  <r_epik_Ionization_Penalty_Charging>  (176) 
0

>  <r_epik_Ionization_Penalty_Neutral>  (176) 
5.5849e-07

>  <r_epik_State_Penalty>  (176) 
-0

>  <r_epik_Charging_Adjusted_Penalty>  (176) 
0

>  <i_epik_Tot_Q>  (176) 
0

>  <i_epik_Tot_abs_Q>  (176) 
0

>  <s_lp_Force_Field>  (176) 
OPLS3e

>  <r_lp_Energy>  (176) 
75.3602

>  <b_lp_Chiralities_Consistent>  (176) 
1

>  <s_lp_Variant>  (176) 
55:0-1

>  <s_i_glide_gridfile>  (176) 
pfpi4k_grid

>  <i_i_glide_lignum>  (176) 
31

>  <i_i_glide_rotatable_bonds>  (176) 
1

>  <r_i_docking_score>  (176) 
-3.15848

>  <r_i_glide_ligand_efficiency>  (176) 
-0.166236

>  <r_i_glide_ligand_efficiency_sa>  (176) 
-0.443584

>  <r_i_glide_ligand_efficiency_ln>  (176) 
-0.800742

>  <r_i_glide_gscore>  (176) 
-3.15848

>  <r_i_glide_lipo>  (176) 
-0.583833

>  <r_i_glide_hbond>  (176) 
0

>  <r_i_glide_metal>  (176) 
-0

>  <r_i_glide_rewards>  (176) 
-1.67477

>  <r_i_glide_evdw>  (176) 
-21.9506

>  <r_i_glide_ecoul>  (176) 
1.31773

>  <r_i_glide_erotb>  (176) 
0

>  <r_i_glide_esite>  (176) 
0

>  <r_i_glide_emodel>  (176) 
-24.8492

>  <r_i_glide_energy>  (176) 
-20.6329

>  <r_i_glide_einternal>  (176) 
0.0546025

>  <r_i_glide_intrahb_reward>  (176) 
-0

>  <i_i_glide_confnum>  (176) 
2

>  <i_i_glide_posenum>  (176) 
26

>  <r_i_glide_eff_state_penalty>  (176) 
0

>  <ligand_id>  (176) 
55

>  <original_smiles>  (176) 
C=C1C2CC(O)C3(C4=CCC5CC=C(C4C5)C13)C2C

>  <smiles>  (176) 
[H]OC1([H])C([H])([H])C2([H])C(=C([H])[H])C3([H])C4=C([H])C([H])([H])C5([H])C([H])([H])C([H])=C(C4([H])C5([H])[H])C31C2([H])C([H])([H])[H]

$$$$
58:0:0
     RDKit          3D

 31 35  0  0  1  0  0  0  0  0999 V2000
    0.3330    5.5687    3.9046 C   0  0  0  0  0  0  0  0  0  0  0  0
    0.3456    6.4742    4.9812 C   0  0  0  0  0  0  0  0  0  0  0  0
    0.0891    6.1122    6.2537 N   0  0  0  0  0  0  0  0  0  0  0  0
   -0.1672    4.8100    6.4992 C   0  0  0  0  0  0  0  0  0  0  0  0
   -0.2185    3.8231    5.4817 C   0  0  0  0  0  0  0  0  0  0  0  0
    0.0451    4.2122    4.1488 C   0  0  0  0  0  0  0  0  0  0  0  0
   -0.6163    2.4886    5.8568 N   0  0  0  0  0  0  0  0  0  0  0  0
   -1.2258    2.2687    7.0663 C   0  0  0  0  0  0  0  0  0  0  0  0
   -1.4941    0.9591    7.2102 N   0  0  0  0  0  0  0  0  0  0  0  0
   -0.9949    0.3584    6.0542 C   0  0  0  0  0  0  0  0  0  0  0  0
   -1.0459   -0.9561    5.7985 N   0  0  0  0  0  0  0  0  0  0  0  0
   -0.4540   -1.3578    4.6467 C   0  0  0  0  0  0  0  0  0  0  0  0
    0.1911   -0.4992    3.7294 C   0  0  0  0  0  0  0  0  0  0  0  0
    0.2188    0.8795    4.0045 C   0  0  0  0  0  0  0  0  0  0  0  0
   -0.3992    1.3150    5.1913 C   0  0  0  0  0  0  0  0  0  0  0  0
   -1.5403    3.3787    8.0291 C   0  0  0  0  0  0  0  0  0  0  0  0
   -2.9740    3.8262    8.1931 C   0  0  0  0  0  0  0  0  0  0  0  0
   -2.2690    3.1359    9.3345 C   0  0  0  0  0  0  0  0  0  0  0  0
   -0.4524    4.4375    7.9507 C   0  0  0  0  0  0  0  0  0  0  0  0
    0.5119    5.9200    2.8982 H   0  0  0  0  0  0  0  0  0  0  0  0
    0.5280    7.5246    4.8146 H   0  0  0  0  0  0  0  0  0  0  0  0
   -0.0107    3.5270    3.3199 H   0  0  0  0  0  0  0  0  0  0  0  0
   -0.5082   -2.4177    4.4428 H   0  0  0  0  0  0  0  0  0  0  0  0
    0.6337   -0.8912    2.8213 H   0  0  0  0  0  0  0  0  0  0  0  0
    0.7176    1.5534    3.3304 H   0  0  0  0  0  0  0  0  0  0  0  0
   -3.1576    4.8953    8.2814 H   0  0  0  0  0  0  0  0  0  0  0  0
   -3.7475    3.2590    7.6813 H   0  0  0  0  0  0  0  0  0  0  0  0
   -2.5890    2.1259    9.5721 H   0  0  0  0  0  0  0  0  0  0  0  0
   -1.9759    3.7448   10.1890 H   0  0  0  0  0  0  0  0  0  0  0  0
    0.4637    4.0188    8.3727 H   0  0  0  0  0  0  0  0  0  0  0  0
   -0.7199    5.3128    8.5489 H   0  0  0  0  0  0  0  0  0  0  0  0
  1  6  2  0
  1  2  1  0
  1 20  1  0
  2  3  2  0
  2 21  1  0
  3  4  1  0
  4 19  1  0
  4  5  2  0
  5  6  1  0
  5  7  1  0
  6 22  1  0
  7 15  1  0
  7  8  1  0
  8  9  2  0
  8 16  1  0
  9 10  1  0
 10 15  2  0
 10 11  1  0
 11 12  2  0
 12 13  1  0
 12 23  1  0
 13 14  2  0
 13 24  1  0
 14 15  1  0
 14 25  1  0
 16 18  1  0
 16 17  1  0
 16 19  1  0
 17 18  1  0
 17 26  1  0
 17 27  1  0
 18 28  1  0
 18 29  1  0
 19 30  1  0
 19 31  1  0
M  END
>  <i_m_ct_stereo_status>  (177) 
1

>  <s_m_source_file>  (177) 
/var/tmp/pbs.5076255.sched01/tmpmqqk35eb/391x3533zq.sdf

>  <i_m_source_file_index>  (177) 
35

>  <i_lp_mmshare_version>  (177) 
48012

>  <i_f3d_flags>  (177) 
0

>  <s_epik_input>  (177) 
W2NIXTFbY0hdW2NIXW5jKFtDSDJdMiljMW4oYzNDMjRbQ0gyXVtDSDJdNCljNWMobjMpbltjSF1bY0hdW2NIXTU=

>  <s_epik_cmdline>  (177) 
J2VwaWtfcHl0aG9uJywgJy1waHQnLCAnMi4wJywgJy1waCcsICc3LjAnLCAnLXRuJywgJzgnLCAnLW1hJywgJzIwMCcsICctaW1hZScsICc8aW5maWxlLm1hZT4nLCAnLW9tYWUnLCAnPG91dGZpbGUubWFlPic=

>  <r_lp_tautomer_probability>  (177) 
1

>  <r_epik_Ionization_Penalty>  (177) 
0.000544378

>  <r_epik_Ionization_Penalty_Charging>  (177) 
0

>  <r_epik_Ionization_Penalty_Neutral>  (177) 
0.000544378

>  <r_epik_State_Penalty>  (177) 
2.23629e-05

>  <r_epik_Charging_Adjusted_Penalty>  (177) 
2.23629e-05

>  <i_epik_Tot_Q>  (177) 
0

>  <i_epik_Tot_abs_Q>  (177) 
0

>  <s_lp_Force_Field>  (177) 
OPLS3e

>  <r_lp_Energy>  (177) 
21.1616

>  <b_lp_Chiralities_Consistent>  (177) 
1

>  <s_lp_Variant>  (177) 
58:0-1

>  <s_i_glide_gridfile>  (177) 
pfpi4k_grid

>  <i_i_glide_lignum>  (177) 
35

>  <i_i_glide_rotatable_bonds>  (177) 
0

>  <r_i_docking_score>  (177) 
-3.81461

>  <r_i_glide_ligand_efficiency>  (177) 
-0.200769

>  <r_i_glide_ligand_efficiency_sa>  (177) 
-0.535732

>  <r_i_glide_ligand_efficiency_ln>  (177) 
-0.967086

>  <r_i_glide_gscore>  (177) 
-3.81461

>  <r_i_glide_lipo>  (177) 
-0.104921

>  <r_i_glide_hbond>  (177) 
-0.16

>  <r_i_glide_metal>  (177) 
-0

>  <r_i_glide_rewards>  (177) 
-1.71626

>  <r_i_glide_evdw>  (177) 
-17.2744

>  <r_i_glide_ecoul>  (177) 
-6.08007

>  <r_i_glide_erotb>  (177) 
0

>  <r_i_glide_esite>  (177) 
-0.057702

>  <r_i_glide_emodel>  (177) 
-29.8312

>  <r_i_glide_energy>  (177) 
-23.3545

>  <r_i_glide_einternal>  (177) 
0

>  <r_i_glide_intrahb_reward>  (177) 
-0

>  <i_i_glide_confnum>  (177) 
1

>  <i_i_glide_posenum>  (177) 
1

>  <r_i_glide_eff_state_penalty>  (177) 
0

>  <ligand_id>  (177) 
58

>  <original_smiles>  (177) 
c1cnc2c(c1)-n1c(nc3ncccc31)C1(CC1)C2

>  <smiles>  (177) 
[H]c1nc2c(c([H])c1[H])-n1c(nc3nc([H])c([H])c([H])c31)C1(C2([H])[H])C([H])([H])C1([H])[H]

$$$$
58:0:1
     RDKit          3D

 31 35  0  0  1  0  0  0  0  0999 V2000
    1.8362   -5.9863    1.2455 C   0  0  0  0  0  0  0  0  0  0  0  0
    1.8418   -5.6354    2.6097 C   0  0  0  0  0  0  0  0  0  0  0  0
    2.2373   -4.4278    3.0583 N   0  0  0  0  0  0  0  0  0  0  0  0
    2.7000   -3.5330    2.1598 C   0  0  0  0  0  0  0  0  0  0  0  0
    2.7840   -3.8017    0.7709 C   0  0  0  0  0  0  0  0  0  0  0  0
    2.3309   -5.0549    0.3149 C   0  0  0  0  0  0  0  0  0  0  0  0
    3.3858   -2.8098   -0.0846 N   0  0  0  0  0  0  0  0  0  0  0  0
    4.1270   -1.8028    0.4679 C   0  0  0  0  0  0  0  0  0  0  0  0
    4.5901   -0.9916   -0.4943 N   0  0  0  0  0  0  0  0  0  0  0  0
    4.0363   -1.4737   -1.6770 C   0  0  0  0  0  0  0  0  0  0  0  0
    4.2123   -0.9331   -2.8901 N   0  0  0  0  0  0  0  0  0  0  0  0
    3.5600   -1.5314   -3.9170 C   0  0  0  0  0  0  0  0  0  0  0  0
    2.7259   -2.6631   -3.7894 C   0  0  0  0  0  0  0  0  0  0  0  0
    2.5445   -3.2154   -2.5088 C   0  0  0  0  0  0  0  0  0  0  0  0
    3.2406   -2.6263   -1.4332 C   0  0  0  0  0  0  0  0  0  0  0  0
    4.3955   -1.7097    1.9383 C   0  0  0  0  0  0  0  0  0  0  0  0
    5.7639   -2.0828    2.4421 C   0  0  0  0  0  0  0  0  0  0  0  0
    5.2959   -0.6499    2.5293 C   0  0  0  0  0  0  0  0  0  0  0  0
    3.1818   -2.2020    2.7118 C   0  0  0  0  0  0  0  0  0  0  0  0
    1.5028   -6.9618    0.9253 H   0  0  0  0  0  0  0  0  0  0  0  0
    1.5109   -6.3378    3.3527 H   0  0  0  0  0  0  0  0  0  0  0  0
    2.3710   -5.3302   -0.7200 H   0  0  0  0  0  0  0  0  0  0  0  0
    3.7121   -1.0833   -4.8882 H   0  0  0  0  0  0  0  0  0  0  0  0
    2.2224   -3.0920   -4.6466 H   0  0  0  0  0  0  0  0  0  0  0  0
    1.8795   -4.0538   -2.3761 H   0  0  0  0  0  0  0  0  0  0  0  0
    5.8084   -2.6526    3.3641 H   0  0  0  0  0  0  0  0  0  0  0  0
    6.5483   -2.2953    1.7159 H   0  0  0  0  0  0  0  0  0  0  0  0
    5.7575    0.0655    1.8504 H   0  0  0  0  0  0  0  0  0  0  0  0
    5.0268   -0.2613    3.5069 H   0  0  0  0  0  0  0  0  0  0  0  0
    2.3788   -1.4751    2.5791 H   0  0  0  0  0  0  0  0  0  0  0  0
    3.4104   -2.2706    3.7796 H   0  0  0  0  0  0  0  0  0  0  0  0
  1  6  2  0
  1  2  1  0
  1 20  1  0
  2  3  2  0
  2 21  1  0
  3  4  1  0
  4 19  1  0
  4  5  2  0
  5  6  1  0
  5  7  1  0
  6 22  1  0
  7 15  1  0
  7  8  1  0
  8  9  2  0
  8 16  1  0
  9 10  1  0
 10 15  2  0
 10 11  1  0
 11 12  2  0
 12 13  1  0
 12 23  1  0
 13 14  2  0
 13 24  1  0
 14 15  1  0
 14 25  1  0
 16 18  1  0
 16 17  1  0
 16 19  1  0
 17 18  1  0
 17 26  1  0
 17 27  1  0
 18 28  1  0
 18 29  1  0
 19 30  1  0
 19 31  1  0
M  END
>  <i_m_ct_stereo_status>  (178) 
1

>  <s_m_source_file>  (178) 
/var/tmp/pbs.5076255.sched01/tmpmqqk35eb/391x3533zq.sdf

>  <i_m_source_file_index>  (178) 
35

>  <i_lp_mmshare_version>  (178) 
48012

>  <i_f3d_flags>  (178) 
0

>  <s_epik_input>  (178) 
W2NIXTFbY0hdW2NIXW5jKFtDSDJdMiljMW4oYzNDMjRbQ0gyXVtDSDJdNCljNWMobjMpbltjSF1bY0hdW2NIXTU=

>  <s_epik_cmdline>  (178) 
J2VwaWtfcHl0aG9uJywgJy1waHQnLCAnMi4wJywgJy1waCcsICc3LjAnLCAnLXRuJywgJzgnLCAnLW1hJywgJzIwMCcsICctaW1hZScsICc8aW5maWxlLm1hZT4nLCAnLW9tYWUnLCAnPG91dGZpbGUubWFlPic=

>  <r_lp_tautomer_probability>  (178) 
1

>  <r_epik_Ionization_Penalty>  (178) 
0.000544378

>  <r_epik_Ionization_Penalty_Charging>  (178) 
0

>  <r_epik_Ionization_Penalty_Neutral>  (178) 
0.000544378

>  <r_epik_State_Penalty>  (178) 
2.23629e-05

>  <r_epik_Charging_Adjusted_Penalty>  (178) 
2.23629e-05

>  <i_epik_Tot_Q>  (178) 
0

>  <i_epik_Tot_abs_Q>  (178) 
0

>  <s_lp_Force_Field>  (178) 
OPLS3e

>  <r_lp_Energy>  (178) 
21.1616

>  <b_lp_Chiralities_Consistent>  (178) 
1

>  <s_lp_Variant>  (178) 
58:0-1

>  <s_i_glide_gridfile>  (178) 
pfpi4k_grid

>  <i_i_glide_lignum>  (178) 
35

>  <i_i_glide_rotatable_bonds>  (178) 
0

>  <r_i_docking_score>  (178) 
-3.69997

>  <r_i_glide_ligand_efficiency>  (178) 
-0.194735

>  <r_i_glide_ligand_efficiency_sa>  (178) 
-0.519632

>  <r_i_glide_ligand_efficiency_ln>  (178) 
-0.938021

>  <r_i_glide_gscore>  (178) 
-3.69997

>  <r_i_glide_lipo>  (178) 
-0.548486

>  <r_i_glide_hbond>  (178) 
0

>  <r_i_glide_metal>  (178) 
-0

>  <r_i_glide_rewards>  (178) 
-1.71626

>  <r_i_glide_evdw>  (178) 
-23.0562

>  <r_i_glide_ecoul>  (178) 
-1.26546

>  <r_i_glide_erotb>  (178) 
0

>  <r_i_glide_esite>  (178) 
-0.0925997

>  <r_i_glide_emodel>  (178) 
-30.5644

>  <r_i_glide_energy>  (178) 
-24.3216

>  <r_i_glide_einternal>  (178) 
0

>  <r_i_glide_intrahb_reward>  (178) 
-0

>  <i_i_glide_confnum>  (178) 
2

>  <i_i_glide_posenum>  (178) 
14

>  <r_i_glide_eff_state_penalty>  (178) 
0

>  <ligand_id>  (178) 
58

>  <original_smiles>  (178) 
c1cnc2c(c1)-n1c(nc3ncccc31)C1(CC1)C2

>  <smiles>  (178) 
[H]c1nc2c(c([H])c1[H])-n1c(nc3nc([H])c([H])c([H])c31)C1(C2([H])[H])C([H])([H])C1([H])[H]

$$$$
58:0:2
     RDKit          3D

 31 35  0  0  1  0  0  0  0  0999 V2000
    2.5913    0.1876    1.6929 C   0  0  0  0  0  0  0  0  0  0  0  0
    2.8984   -1.1858    1.6573 C   0  0  0  0  0  0  0  0  0  0  0  0
    2.3224   -2.0979    2.4664 N   0  0  0  0  0  0  0  0  0  0  0  0
    1.4115   -1.6552    3.3575 C   0  0  0  0  0  0  0  0  0  0  0  0
    1.0419   -0.2924    3.4869 C   0  0  0  0  0  0  0  0  0  0  0  0
    1.6399    0.6523    2.6232 C   0  0  0  0  0  0  0  0  0  0  0  0
    0.1370    0.0622    4.5522 N   0  0  0  0  0  0  0  0  0  0  0  0
   -0.0879   -0.8161    5.5809 C   0  0  0  0  0  0  0  0  0  0  0  0
   -0.9820   -0.2987    6.4398 N   0  0  0  0  0  0  0  0  0  0  0  0
   -1.3106    0.9502    5.9121 C   0  0  0  0  0  0  0  0  0  0  0  0
   -2.1799    1.8051    6.4623 N   0  0  0  0  0  0  0  0  0  0  0  0
   -2.4148    2.9434    5.7636 C   0  0  0  0  0  0  0  0  0  0  0  0
   -1.8281    3.2598    4.5159 C   0  0  0  0  0  0  0  0  0  0  0  0
   -0.9120    2.3531    3.9535 C   0  0  0  0  0  0  0  0  0  0  0  0
   -0.6383    1.1796    4.6808 C   0  0  0  0  0  0  0  0  0  0  0  0
    0.6116   -2.1424    5.6792 C   0  0  0  0  0  0  0  0  0  0  0  0
    1.7132   -2.3352    6.6981 C   0  0  0  0  0  0  0  0  0  0  0  0
    0.4054   -3.0795    6.8489 C   0  0  0  0  0  0  0  0  0  0  0  0
    0.8096   -2.7073    4.2827 C   0  0  0  0  0  0  0  0  0  0  0  0
    3.0870    0.8711    1.0246 H   0  0  0  0  0  0  0  0  0  0  0  0
    3.6342   -1.5636    0.9648 H   0  0  0  0  0  0  0  0  0  0  0  0
    1.4292    1.7070    2.6825 H   0  0  0  0  0  0  0  0  0  0  0  0
   -3.1165    3.6287    6.2150 H   0  0  0  0  0  0  0  0  0  0  0  0
   -2.0723    4.1701    3.9928 H   0  0  0  0  0  0  0  0  0  0  0  0
   -0.4726    2.5596    2.9908 H   0  0  0  0  0  0  0  0  0  0  0  0
    2.5884   -2.9015    6.3885 H   0  0  0  0  0  0  0  0  0  0  0  0
    1.9070   -1.5304    7.4037 H   0  0  0  0  0  0  0  0  0  0  0  0
   -0.2552   -2.7656    7.6540 H   0  0  0  0  0  0  0  0  0  0  0  0
    0.4044   -4.1463    6.6348 H   0  0  0  0  0  0  0  0  0  0  0  0
   -0.1689   -2.9757    3.8849 H   0  0  0  0  0  0  0  0  0  0  0  0
    1.4180   -3.6156    4.3161 H   0  0  0  0  0  0  0  0  0  0  0  0
  1  6  2  0
  1  2  1  0
  1 20  1  0
  2  3  2  0
  2 21  1  0
  3  4  1  0
  4 19  1  0
  4  5  2  0
  5  6  1  0
  5  7  1  0
  6 22  1  0
  7 15  1  0
  7  8  1  0
  8  9  2  0
  8 16  1  0
  9 10  1  0
 10 15  2  0
 10 11  1  0
 11 12  2  0
 12 13  1  0
 12 23  1  0
 13 14  2  0
 13 24  1  0
 14 15  1  0
 14 25  1  0
 16 18  1  0
 16 17  1  0
 16 19  1  0
 17 18  1  0
 17 26  1  0
 17 27  1  0
 18 28  1  0
 18 29  1  0
 19 30  1  0
 19 31  1  0
M  END
>  <i_m_ct_stereo_status>  (179) 
1

>  <s_m_source_file>  (179) 
/var/tmp/pbs.5076255.sched01/tmpmqqk35eb/391x3533zq.sdf

>  <i_m_source_file_index>  (179) 
35

>  <i_lp_mmshare_version>  (179) 
48012

>  <i_f3d_flags>  (179) 
0

>  <s_epik_input>  (179) 
W2NIXTFbY0hdW2NIXW5jKFtDSDJdMiljMW4oYzNDMjRbQ0gyXVtDSDJdNCljNWMobjMpbltjSF1bY0hdW2NIXTU=

>  <s_epik_cmdline>  (179) 
J2VwaWtfcHl0aG9uJywgJy1waHQnLCAnMi4wJywgJy1waCcsICc3LjAnLCAnLXRuJywgJzgnLCAnLW1hJywgJzIwMCcsICctaW1hZScsICc8aW5maWxlLm1hZT4nLCAnLW9tYWUnLCAnPG91dGZpbGUubWFlPic=

>  <r_lp_tautomer_probability>  (179) 
1

>  <r_epik_Ionization_Penalty>  (179) 
0.000544378

>  <r_epik_Ionization_Penalty_Charging>  (179) 
0

>  <r_epik_Ionization_Penalty_Neutral>  (179) 
0.000544378

>  <r_epik_State_Penalty>  (179) 
2.23629e-05

>  <r_epik_Charging_Adjusted_Penalty>  (179) 
2.23629e-05

>  <i_epik_Tot_Q>  (179) 
0

>  <i_epik_Tot_abs_Q>  (179) 
0

>  <s_lp_Force_Field>  (179) 
OPLS3e

>  <r_lp_Energy>  (179) 
21.1616

>  <b_lp_Chiralities_Consistent>  (179) 
1

>  <s_lp_Variant>  (179) 
58:0-1

>  <s_i_glide_gridfile>  (179) 
pfpi4k_grid

>  <i_i_glide_lignum>  (179) 
35

>  <i_i_glide_rotatable_bonds>  (179) 
0

>  <r_i_docking_score>  (179) 
-3.45462

>  <r_i_glide_ligand_efficiency>  (179) 
-0.181822

>  <r_i_glide_ligand_efficiency_sa>  (179) 
-0.485174

>  <r_i_glide_ligand_efficiency_ln>  (179) 
-0.87582

>  <r_i_glide_gscore>  (179) 
-3.45462

>  <r_i_glide_lipo>  (179) 
-0.073258

>  <r_i_glide_hbond>  (179) 
-0.0819866

>  <r_i_glide_metal>  (179) 
-0

>  <r_i_glide_rewards>  (179) 
-1.71626

>  <r_i_glide_evdw>  (179) 
-18.8694

>  <r_i_glide_ecoul>  (179) 
-3.79908

>  <r_i_glide_erotb>  (179) 
0

>  <r_i_glide_esite>  (179) 
-0.0697862

>  <r_i_glide_emodel>  (179) 
-28.5254

>  <r_i_glide_energy>  (179) 
-22.6685

>  <r_i_glide_einternal>  (179) 
0

>  <r_i_glide_intrahb_reward>  (179) 
-0

>  <i_i_glide_confnum>  (179) 
1

>  <i_i_glide_posenum>  (179) 
2

>  <r_i_glide_eff_state_penalty>  (179) 
0

>  <ligand_id>  (179) 
58

>  <original_smiles>  (179) 
c1cnc2c(c1)-n1c(nc3ncccc31)C1(CC1)C2

>  <smiles>  (179) 
[H]c1nc2c(c([H])c1[H])-n1c(nc3nc([H])c([H])c([H])c31)C1(C2([H])[H])C([H])([H])C1([H])[H]

$$$$
59:0:0
     RDKit          3D

 26 29  0  0  1  0  0  0  0  0999 V2000
    5.4179   -0.6237    2.8568 S   0  0  0  0  0  0  0  0  0  0  0  0
    4.8322   -1.7227    1.8680 C   0  0  0  0  0  0  0  0  0  0  0  0
    4.3689   -2.4883    1.0385 N   0  0  0  0  0  0  0  0  0  0  0  0
    3.7340   -2.5317   -0.2579 C   0  0  2  0  0  0  0  0  0  0  0  0
    4.1552   -3.8324   -1.0031 C   0  0  0  0  0  0  0  0  0  0  0  0
    4.8253   -3.4337   -2.3460 C   0  0  1  0  0  0  0  0  0  0  0  0
    5.5181   -2.2550   -1.6654 C   0  0  0  0  0  0  0  0  0  0  0  0
    4.2843   -1.4504   -1.2102 C   0  0  1  0  0  0  0  0  0  0  0  0
    3.3397   -1.1698   -2.4671 C   0  0  1  0  0  0  0  0  0  0  0  0
    4.1601   -1.2446   -3.7618 C   0  0  0  0  0  0  0  0  0  0  0  0
    4.5522   -2.7228   -3.7242 C   0  0  2  0  0  0  0  0  0  0  0  0
    3.4846   -3.4106   -3.1747 C   0  0  2  0  0  0  0  0  0  0  0  0
    2.4490   -2.3919   -2.8023 C   0  0  0  0  0  0  0  0  0  0  0  0
    2.6589   -2.4497   -0.1141 H   0  0  0  0  0  0  0  0  0  0  0  0
    4.8642   -4.4247   -0.4241 H   0  0  0  0  0  0  0  0  0  0  0  0
    3.2957   -4.4930   -1.1185 H   0  0  0  0  0  0  0  0  0  0  0  0
    6.1727   -2.5849   -0.8548 H   0  0  0  0  0  0  0  0  0  0  0  0
    6.1876   -1.7034   -2.3180 H   0  0  0  0  0  0  0  0  0  0  0  0
    4.5506   -0.5203   -0.7111 H   0  0  0  0  0  0  0  0  0  0  0  0
    2.7562   -0.2567   -2.3717 H   0  0  0  0  0  0  0  0  0  0  0  0
    3.5688   -1.0200   -4.6538 H   0  0  0  0  0  0  0  0  0  0  0  0
    5.0096   -0.5855   -3.7502 H   0  0  0  0  0  0  0  0  0  0  0  0
    4.9775   -3.1813   -4.6048 H   0  0  0  0  0  0  0  0  0  0  0  0
    3.1435   -4.2560   -3.7491 H   0  0  0  0  0  0  0  0  0  0  0  0
    1.7941   -2.7447   -2.0106 H   0  0  0  0  0  0  0  0  0  0  0  0
    1.8249   -2.2099   -3.6775 H   0  0  0  0  0  0  0  0  0  0  0  0
  1  2  2  0
  2  3  2  0
  3  4  1  0
  4  8  1  0
  4  5  1  0
  4 14  1  1
  6  5  1  1
  5 15  1  0
  5 16  1  0
  6 11  1  0
  6 12  1  0
  6  7  1  0
  7  8  1  0
  7 17  1  0
  7 18  1  0
  8  9  1  0
  8 19  1  1
  9 13  1  0
  9 10  1  0
  9 20  1  1
 10 11  1  0
 10 21  1  0
 10 22  1  0
 11 12  1  0
 11 23  1  6
 12 13  1  0
 12 24  1  6
 13 25  1  0
 13 26  1  0
M  END
>  <i_m_ct_stereo_status>  (180) 
1

>  <s_m_source_file>  (180) 
/var/tmp/pbs.5076255.sched01/tmpmqqk35eb/391x3533zq.sdf

>  <i_m_source_file_index>  (180) 
36

>  <i_lp_mmshare_version>  (180) 
48012

>  <i_f3d_flags>  (180) 
2

>  <s_epik_input>  (180) 
Uz1DPU5bQ0BIXShbQ0gyXTEpW0NAQEhdKFtDSDJdMilbQ0BASF0oW0NIMl0zKVtDSDJdW0NASF00W0NAQEhdM0MxMjQ=

>  <s_epik_cmdline>  (180) 
J2VwaWtfcHl0aG9uJywgJy1waHQnLCAnMi4wJywgJy1waCcsICc3LjAnLCAnLXRuJywgJzgnLCAnLW1hJywgJzIwMCcsICctaW1hZScsICc8aW5maWxlLm1hZT4nLCAnLW9tYWUnLCAnPG91dGZpbGUubWFlPic=

>  <r_lp_tautomer_probability>  (180) 
1

>  <r_epik_Ionization_Penalty>  (180) 
0

>  <r_epik_Ionization_Penalty_Charging>  (180) 
0

>  <r_epik_Ionization_Penalty_Neutral>  (180) 
0

>  <r_epik_State_Penalty>  (180) 
-0

>  <r_epik_Charging_Adjusted_Penalty>  (180) 
0

>  <i_epik_Tot_Q>  (180) 
0

>  <i_epik_Tot_abs_Q>  (180) 
0

>  <s_epik_Chemistry_Notes>  (180) 
This compound has an imine and may undergo hydrolysis.

>  <s_lp_Force_Field>  (180) 
OPLS3e

>  <r_lp_Energy>  (180) 
108.286

>  <b_lp_Chiralities_Consistent>  (180) 
0

>  <s_lp_Variant>  (180) 
59:0-1

>  <s_i_glide_gridfile>  (180) 
pfpi4k_grid

>  <i_i_glide_lignum>  (180) 
36

>  <i_i_glide_rotatable_bonds>  (180) 
1

>  <r_i_docking_score>  (180) 
-3.60643

>  <r_i_glide_ligand_efficiency>  (180) 
-0.277418

>  <r_i_glide_ligand_efficiency_sa>  (180) 
-0.652301

>  <r_i_glide_ligand_efficiency_ln>  (180) 
-1.01164

>  <r_i_glide_gscore>  (180) 
-3.60643

>  <r_i_glide_lipo>  (180) 
-0.401317

>  <r_i_glide_hbond>  (180) 
0

>  <r_i_glide_metal>  (180) 
-0

>  <r_i_glide_rewards>  (180) 
-2.33513

>  <r_i_glide_evdw>  (180) 
-16.6485

>  <r_i_glide_ecoul>  (180) 
-0.25039

>  <r_i_glide_erotb>  (180) 
0

>  <r_i_glide_esite>  (180) 
0

>  <r_i_glide_emodel>  (180) 
-21.4808

>  <r_i_glide_energy>  (180) 
-16.8989

>  <r_i_glide_einternal>  (180) 
0.498184

>  <r_i_glide_intrahb_reward>  (180) 
-0

>  <i_i_glide_confnum>  (180) 
2

>  <i_i_glide_posenum>  (180) 
3

>  <r_i_glide_eff_state_penalty>  (180) 
0

>  <ligand_id>  (180) 
59

>  <original_smiles>  (180) 
S=C=NC1CC23CC1C1CC2C3C1

>  <smiles>  (180) 
[H]C1([H])C2([H])C([H])([H])C3([H])C1([H])C31C([H])([H])C([H])(N=C=S)C2([H])C1([H])[H]

$$$$
59:0:1
     RDKit          3D

 26 29  0  0  1  0  0  0  0  0999 V2000
    1.5981   -6.8648    1.6660 S   0  0  0  0  0  0  0  0  0  0  0  0
    2.6402   -5.7290    1.2617 C   0  0  0  0  0  0  0  0  0  0  0  0
    3.4428   -4.8967    0.8746 N   0  0  0  0  0  0  0  0  0  0  0  0
    4.0605   -4.3735   -0.3223 C   0  0  2  0  0  0  0  0  0  0  0  0
    5.3179   -3.5192    0.0233 C   0  0  0  0  0  0  0  0  0  0  0  0
    5.1006   -2.0825   -0.5410 C   0  0  1  0  0  0  0  0  0  0  0  0
    3.6257   -2.1226   -0.1519 C   0  0  0  0  0  0  0  0  0  0  0  0
    3.1599   -3.3217   -1.0089 C   0  0  1  0  0  0  0  0  0  0  0  0
    3.5412   -3.0591   -2.5398 C   0  0  1  0  0  0  0  0  0  0  0  0
    3.6905   -1.5356   -2.7663 C   0  0  0  0  0  0  0  0  0  0  0  0
    4.9186   -1.2670   -1.8910 C   0  0  2  0  0  0  0  0  0  0  0  0
    5.7345   -2.4038   -1.9465 C   0  0  2  0  0  0  0  0  0  0  0  0
    5.0242   -3.4111   -2.8316 C   0  0  0  0  0  0  0  0  0  0  0  0
    4.2918   -5.2146   -0.9745 H   0  0  0  0  0  0  0  0  0  0  0  0
    5.4580   -3.4480    1.1025 H   0  0  0  0  0  0  0  0  0  0  0  0
    6.2321   -3.9934   -0.3414 H   0  0  0  0  0  0  0  0  0  0  0  0
    3.4902   -2.2685    0.9219 H   0  0  0  0  0  0  0  0  0  0  0  0
    3.0900   -1.1939   -0.3522 H   0  0  0  0  0  0  0  0  0  0  0  0
    2.0929   -3.5260   -0.8947 H   0  0  0  0  0  0  0  0  0  0  0  0
    2.8471   -3.5425   -3.2300 H   0  0  0  0  0  0  0  0  0  0  0  0
    3.9120   -1.2940   -3.8056 H   0  0  0  0  0  0  0  0  0  0  0  0
    2.8186   -0.9507   -2.4719 H   0  0  0  0  0  0  0  0  0  0  0  0
    5.3747   -0.2829   -1.9653 H   0  0  0  0  0  0  0  0  0  0  0  0
    6.8064   -2.2844   -2.0804 H   0  0  0  0  0  0  0  0  0  0  0  0
    5.3243   -4.4374   -2.6272 H   0  0  0  0  0  0  0  0  0  0  0  0
    5.2761   -3.2262   -3.8757 H   0  0  0  0  0  0  0  0  0  0  0  0
  1  2  2  0
  2  3  2  0
  3  4  1  0
  4  8  1  0
  4  5  1  0
  4 14  1  6
  6  5  1  6
  5 15  1  0
  5 16  1  0
  6 11  1  0
  6 12  1  0
  6  7  1  0
  7  8  1  0
  7 17  1  0
  7 18  1  0
  8  9  1  0
  8 19  1  6
  9 13  1  0
  9 10  1  0
  9 20  1  6
 10 11  1  0
 10 21  1  0
 10 22  1  0
 11 12  1  0
 11 23  1  1
 12 13  1  0
 12 24  1  1
 13 25  1  0
 13 26  1  0
M  END
>  <i_m_ct_stereo_status>  (181) 
1

>  <s_m_source_file>  (181) 
/var/tmp/pbs.5076255.sched01/tmpmqqk35eb/391x3533zq.sdf

>  <i_m_source_file_index>  (181) 
36

>  <i_lp_mmshare_version>  (181) 
48012

>  <i_f3d_flags>  (181) 
2

>  <s_epik_input>  (181) 
Uz1DPU5bQ0BIXShbQ0gyXTEpW0NAQEhdKFtDSDJdMilbQ0BASF0oW0NIMl0zKVtDSDJdW0NASF00W0NAQEhdM0MxMjQ=

>  <s_epik_cmdline>  (181) 
J2VwaWtfcHl0aG9uJywgJy1waHQnLCAnMi4wJywgJy1waCcsICc3LjAnLCAnLXRuJywgJzgnLCAnLW1hJywgJzIwMCcsICctaW1hZScsICc8aW5maWxlLm1hZT4nLCAnLW9tYWUnLCAnPG91dGZpbGUubWFlPic=

>  <r_lp_tautomer_probability>  (181) 
1

>  <r_epik_Ionization_Penalty>  (181) 
0

>  <r_epik_Ionization_Penalty_Charging>  (181) 
0

>  <r_epik_Ionization_Penalty_Neutral>  (181) 
0

>  <r_epik_State_Penalty>  (181) 
-0

>  <r_epik_Charging_Adjusted_Penalty>  (181) 
0

>  <i_epik_Tot_Q>  (181) 
0

>  <i_epik_Tot_abs_Q>  (181) 
0

>  <s_epik_Chemistry_Notes>  (181) 
This compound has an imine and may undergo hydrolysis.

>  <s_lp_Force_Field>  (181) 
OPLS3e

>  <r_lp_Energy>  (181) 
108.286

>  <b_lp_Chiralities_Consistent>  (181) 
0

>  <s_lp_Variant>  (181) 
59:0-1

>  <s_i_glide_gridfile>  (181) 
pfpi4k_grid

>  <i_i_glide_lignum>  (181) 
36

>  <i_i_glide_rotatable_bonds>  (181) 
1

>  <r_i_docking_score>  (181) 
-3.59932

>  <r_i_glide_ligand_efficiency>  (181) 
-0.276871

>  <r_i_glide_ligand_efficiency_sa>  (181) 
-0.651016

>  <r_i_glide_ligand_efficiency_ln>  (181) 
-1.00964

>  <r_i_glide_gscore>  (181) 
-3.59932

>  <r_i_glide_lipo>  (181) 
-0.319543

>  <r_i_glide_hbond>  (181) 
0

>  <r_i_glide_metal>  (181) 
-0

>  <r_i_glide_rewards>  (181) 
-2.10482

>  <r_i_glide_evdw>  (181) 
-21.8365

>  <r_i_glide_ecoul>  (181) 
-0.183774

>  <r_i_glide_erotb>  (181) 
0

>  <r_i_glide_esite>  (181) 
-0.055573

>  <r_i_glide_emodel>  (181) 
-26.8745

>  <r_i_glide_energy>  (181) 
-22.0202

>  <r_i_glide_einternal>  (181) 
0.0300304

>  <r_i_glide_intrahb_reward>  (181) 
-0

>  <i_i_glide_confnum>  (181) 
1

>  <i_i_glide_posenum>  (181) 
34

>  <r_i_glide_eff_state_penalty>  (181) 
0

>  <ligand_id>  (181) 
59

>  <original_smiles>  (181) 
S=C=NC1CC23CC1C1CC2C3C1

>  <smiles>  (181) 
[H]C1([H])C2([H])C([H])([H])C3([H])C1([H])C31C([H])([H])C([H])(N=C=S)C2([H])C1([H])[H]

$$$$
59:0:2
     RDKit          3D

 26 29  0  0  1  0  0  0  0  0999 V2000
    5.4127   -5.3441    3.7943 S   0  0  0  0  0  0  0  0  0  0  0  0
    4.8331   -4.4803    2.5906 C   0  0  0  0  0  0  0  0  0  0  0  0
    4.4708   -3.8182    1.6330 N   0  0  0  0  0  0  0  0  0  0  0  0
    4.5407   -3.7666    0.1899 C   0  0  2  0  0  0  0  0  0  0  0  0
    5.8128   -2.9903   -0.2751 C   0  0  0  0  0  0  0  0  0  0  0  0
    5.3543   -1.7868   -1.1553 C   0  0  1  0  0  0  0  0  0  0  0  0
    4.1584   -1.5369   -0.2409 C   0  0  0  0  0  0  0  0  0  0  0  0
    3.4196   -2.8860   -0.3976 C   0  0  1  0  0  0  0  0  0  0  0  0
    3.1574   -3.1583   -1.9510 C   0  0  1  0  0  0  0  0  0  0  0  0
    3.1652   -1.8180   -2.7168 C   0  0  0  0  0  0  0  0  0  0  0  0
    4.6298   -1.4216   -2.5212 C   0  0  2  0  0  0  0  0  0  0  0  0
    5.3863   -2.5966   -2.5024 C   0  0  2  0  0  0  0  0  0  0  0  0
    4.4172   -3.7403   -2.6546 C   0  0  0  0  0  0  0  0  0  0  0  0
    4.4987   -4.7903   -0.1811 H   0  0  0  0  0  0  0  0  0  0  0  0
    6.3681   -2.5958    0.5785 H   0  0  0  0  0  0  0  0  0  0  0  0
    6.5210   -3.6515   -0.7795 H   0  0  0  0  0  0  0  0  0  0  0  0
    4.4669   -1.3200    0.7870 H   0  0  0  0  0  0  0  0  0  0  0  0
    3.5644   -0.6659   -0.5170 H   0  0  0  0  0  0  0  0  0  0  0  0
    2.4935   -2.9198    0.1811 H   0  0  0  0  0  0  0  0  0  0  0  0
    2.2605   -3.7569   -2.1243 H   0  0  0  0  0  0  0  0  0  0  0  0
    2.9446   -1.9458   -3.7764 H   0  0  0  0  0  0  0  0  0  0  0  0
    2.4754   -1.0694   -2.3261 H   0  0  0  0  0  0  0  0  0  0  0  0
    4.9928   -0.5692   -3.0857 H   0  0  0  0  0  0  0  0  0  0  0  0
    6.3175   -2.6542   -3.0613 H   0  0  0  0  0  0  0  0  0  0  0  0
    4.8093   -4.6689   -2.2498 H   0  0  0  0  0  0  0  0  0  0  0  0
    4.2254   -3.9259   -3.7131 H   0  0  0  0  0  0  0  0  0  0  0  0
  1  2  2  0
  2  3  2  0
  3  4  1  0
  4  8  1  0
  4  5  1  0
  4 14  1  6
  6  5  1  6
  5 15  1  0
  5 16  1  0
  6 11  1  0
  6 12  1  0
  6  7  1  0
  7  8  1  0
  7 17  1  0
  7 18  1  0
  8  9  1  0
  8 19  1  1
  9 13  1  0
  9 10  1  0
  9 20  1  1
 10 11  1  0
 10 21  1  0
 10 22  1  0
 11 12  1  0
 11 23  1  6
 12 13  1  0
 12 24  1  6
 13 25  1  0
 13 26  1  0
M  END
>  <i_m_ct_stereo_status>  (182) 
1

>  <s_m_source_file>  (182) 
/var/tmp/pbs.5076255.sched01/tmpmqqk35eb/391x3533zq.sdf

>  <i_m_source_file_index>  (182) 
36

>  <i_lp_mmshare_version>  (182) 
48012

>  <i_f3d_flags>  (182) 
2

>  <s_epik_input>  (182) 
Uz1DPU5bQ0BIXShbQ0gyXTEpW0NAQEhdKFtDSDJdMilbQ0BASF0oW0NIMl0zKVtDSDJdW0NASF00W0NAQEhdM0MxMjQ=

>  <s_epik_cmdline>  (182) 
J2VwaWtfcHl0aG9uJywgJy1waHQnLCAnMi4wJywgJy1waCcsICc3LjAnLCAnLXRuJywgJzgnLCAnLW1hJywgJzIwMCcsICctaW1hZScsICc8aW5maWxlLm1hZT4nLCAnLW9tYWUnLCAnPG91dGZpbGUubWFlPic=

>  <r_lp_tautomer_probability>  (182) 
1

>  <r_epik_Ionization_Penalty>  (182) 
0

>  <r_epik_Ionization_Penalty_Charging>  (182) 
0

>  <r_epik_Ionization_Penalty_Neutral>  (182) 
0

>  <r_epik_State_Penalty>  (182) 
-0

>  <r_epik_Charging_Adjusted_Penalty>  (182) 
0

>  <i_epik_Tot_Q>  (182) 
0

>  <i_epik_Tot_abs_Q>  (182) 
0

>  <s_epik_Chemistry_Notes>  (182) 
This compound has an imine and may undergo hydrolysis.

>  <s_lp_Force_Field>  (182) 
OPLS3e

>  <r_lp_Energy>  (182) 
108.286

>  <b_lp_Chiralities_Consistent>  (182) 
0

>  <s_lp_Variant>  (182) 
59:0-1

>  <s_i_glide_gridfile>  (182) 
pfpi4k_grid

>  <i_i_glide_lignum>  (182) 
36

>  <i_i_glide_rotatable_bonds>  (182) 
1

>  <r_i_docking_score>  (182) 
-3.20072

>  <r_i_glide_ligand_efficiency>  (182) 
-0.24621

>  <r_i_glide_ligand_efficiency_sa>  (182) 
-0.578921

>  <r_i_glide_ligand_efficiency_ln>  (182) 
-0.897832

>  <r_i_glide_gscore>  (182) 
-3.20072

>  <r_i_glide_lipo>  (182) 
-0.184988

>  <r_i_glide_hbond>  (182) 
0

>  <r_i_glide_metal>  (182) 
-0

>  <r_i_glide_rewards>  (182) 
-2.12749

>  <r_i_glide_evdw>  (182) 
-16.833

>  <r_i_glide_ecoul>  (182) 
-0.310688

>  <r_i_glide_erotb>  (182) 
0

>  <r_i_glide_esite>  (182) 
0

>  <r_i_glide_emodel>  (182) 
-21.4752

>  <r_i_glide_energy>  (182) 
-17.1437

>  <r_i_glide_einternal>  (182) 
0.00132246

>  <r_i_glide_intrahb_reward>  (182) 
-0

>  <i_i_glide_confnum>  (182) 
2

>  <i_i_glide_posenum>  (182) 
40

>  <r_i_glide_eff_state_penalty>  (182) 
0

>  <ligand_id>  (182) 
59

>  <original_smiles>  (182) 
S=C=NC1CC23CC1C1CC2C3C1

>  <smiles>  (182) 
[H]C1([H])C2([H])C([H])([H])C3([H])C1([H])C31C([H])([H])C([H])(N=C=S)C2([H])C1([H])[H]

$$$$
60:0:0
     RDKit          3D

 64 72  0  0  1  0  0  0  0  0999 V2000
    3.8690   -5.1044    1.8278 C   0  0  0  0  0  0  0  0  0  0  0  0
    3.3714   -4.2204    2.5071 C   0  0  0  0  0  0  0  0  0  0  0  0
    2.7223   -3.2153    3.3535 C   0  0  0  0  0  0  0  0  0  0  0  0
    3.4005   -1.9618    3.2454 O   0  0  0  0  0  0  0  0  0  0  0  0
    2.7590   -0.8485    3.8872 C   0  0  2  0  0  0  0  0  0  0  0  0
    2.4673   -1.2297    5.4580 C   0  0  1  0  0  0  0  0  0  0  0  0
    1.6225   -2.0627    6.3412 O   0  0  0  0  0  0  0  0  0  0  0  0
    0.6307   -1.3347    7.0828 C   0  0  0  0  0  0  0  0  0  0  0  0
   -0.0634   -1.7061    8.0311 O   0  0  0  0  0  0  0  0  0  0  0  0
    0.5807    0.0158    6.3717 C   0  0  2  0  0  0  0  0  0  0  0  0
    2.1150   -0.0813    6.3866 C   0  0  2  0  0  0  0  0  0  0  0  0
    2.5049    1.3039    6.2494 C   0  0  2  0  0  0  0  0  0  0  0  0
    1.7045    1.8729    7.2704 O   0  0  0  0  0  0  0  0  0  0  0  0
    0.4568    1.6451    6.6566 C   0  0  2  0  0  0  0  0  0  0  0  0
   -0.7307    2.0846    7.5017 C   0  0  0  0  0  0  0  0  0  0  0  0
   -1.9792    2.3445    6.8896 C   0  0  0  0  0  0  0  0  0  0  0  0
   -3.0524    2.7459    7.7042 C   0  0  0  0  0  0  0  0  0  0  0  0
   -2.8423    2.8763    9.0861 C   0  0  0  0  0  0  0  0  0  0  0  0
   -1.6618    2.6148    9.6780 N   0  0  0  0  0  0  0  0  0  0  0  0
   -0.6309    2.2264    8.8988 C   0  0  0  0  0  0  0  0  0  0  0  0
    0.8541    2.6786    5.3580 C   0  0  2  0  0  0  0  0  0  0  0  0
    0.6168    2.7358    3.6872 C   0  0  2  0  0  0  0  0  0  0  0  0
    0.7622    1.2067    2.9703 C   0  0  2  0  0  0  0  0  0  0  0  0
    0.5996    0.8894    4.3109 C   0  0  2  0  0  0  0  0  0  0  0  0
    1.8824    1.7773    4.9664 C   0  0  2  0  0  0  0  0  0  0  0  0
    3.1081    2.5262    4.2424 C   0  0  0  0  0  0  0  0  0  0  0  0
    2.8149    3.4473    3.0375 C   0  0  0  0  0  0  0  0  0  0  0  0
    1.4067    3.8227    3.0194 N   0  0  2  0  0  0  0  0  0  0  0  0
    1.1768    5.1982    3.5498 C   0  0  0  0  0  0  0  0  0  0  0  0
   -0.0082   -0.2907    5.0405 C   0  0  1  0  0  0  0  0  0  0  0  0
   -0.7110   -1.5872    4.5978 C   0  0  0  0  0  0  0  0  0  0  0  0
   -1.4604   -0.4622    5.0036 O   0  0  0  0  0  0  0  0  0  0  0  0
    1.9035    0.0260    2.7378 C   0  0  1  0  0  0  0  0  0  0  0  0
    2.8750    0.4175    1.6040 C   0  0  0  0  0  0  0  0  0  0  0  0
    1.0830   -0.9290    2.0771 O   0  0  0  0  0  0  0  0  0  0  0  0
    4.2933   -5.8825    1.2370 H   0  0  0  0  0  0  0  0  0  0  0  0
    1.6796   -3.1509    3.0537 H   0  0  0  0  0  0  0  0  0  0  0  0
    2.7523   -3.5950    4.3731 H   0  0  0  0  0  0  0  0  0  0  0  0
    3.6297   -0.2160    4.0229 H   0  0  0  0  0  0  0  0  0  0  0  0
    1.6908   -1.6896    4.8750 H   0  0  0  0  0  0  0  0  0  0  0  0
    2.6445   -0.2673    7.3419 H   0  0  0  0  0  0  0  0  0  0  0  0
    3.5821    1.4499    6.3792 H   0  0  0  0  0  0  0  0  0  0  0  0
   -2.1120    2.2320    5.8277 H   0  0  0  0  0  0  0  0  0  0  0  0
   -4.0263    2.9451    7.2776 H   0  0  0  0  0  0  0  0  0  0  0  0
   -3.6483    3.1716    9.7429 H   0  0  0  0  0  0  0  0  0  0  0  0
    0.2957    2.0199    9.4144 H   0  0  0  0  0  0  0  0  0  0  0  0
    1.2097    3.6339    5.7560 H   0  0  0  0  0  0  0  0  0  0  0  0
   -0.4047    3.0856    3.5009 H   0  0  0  0  0  0  0  0  0  0  0  0
   -0.1133    1.0442    2.3485 H   0  0  0  0  0  0  0  0  0  0  0  0
   -0.4677    1.2018    4.4289 H   0  0  0  0  0  0  0  0  0  0  0  0
    3.5279    3.1992    4.9970 H   0  0  0  0  0  0  0  0  0  0  0  0
    3.9377    1.8652    3.9973 H   0  0  0  0  0  0  0  0  0  0  0  0
    3.4667    4.3306    3.0590 H   0  0  0  0  0  0  0  0  0  0  0  0
    3.0110    2.9671    2.0900 H   0  0  0  0  0  0  0  0  0  0  0  0
    1.6549    5.3528    4.5266 H   0  0  0  0  0  0  0  0  0  0  0  0
    0.1068    5.4206    3.6371 H   0  0  0  0  0  0  0  0  0  0  0  0
    1.6119    5.9393    2.8643 H   0  0  0  0  0  0  0  0  0  0  0  0
   -0.7005   -1.8355    3.5637 H   0  0  0  0  0  0  0  0  0  0  0  0
   -0.8393   -2.4383    5.2850 H   0  0  0  0  0  0  0  0  0  0  0  0
    3.7563    0.9546    1.9511 H   0  0  0  0  0  0  0  0  0  0  0  0
    2.3551    1.0508    0.8860 H   0  0  0  0  0  0  0  0  0  0  0  0
    3.2643   -0.4518    1.0666 H   0  0  0  0  0  0  0  0  0  0  0  0
    1.0445   -0.7309    1.1423 H   0  0  0  0  0  0  0  0  0  0  0  0
    1.0972    3.8806    2.0369 H   0  0  0  0  0  0  0  0  0  0  0  0
  1  2  3  0
  1 36  1  0
  2  3  1  0
  3  4  1  0
  3 37  1  0
  3 38  1  0
  4  5  1  0
  5 33  1  0
  5  6  1  0
  5 39  1  1
  6 11  1  0
  6  7  1  0
  6 40  1  1
  7  8  1  0
  8  9  2  0
 10  8  1  1
 10 14  1  0
 10 30  1  0
 10 11  1  0
 11 12  1  0
 11 41  1  1
 12 25  1  0
 12 13  1  0
 12 42  1  1
 13 14  1  0
 14 15  1  1
 14 21  1  0
 15 20  1  0
 15 16  2  0
 16 17  1  0
 16 43  1  0
 17 18  2  0
 17 44  1  0
 18 19  1  0
 18 45  1  0
 19 20  2  0
 20 46  1  0
 21 25  1  0
 21 22  1  0
 21 47  1  1
 22 28  1  0
 22 23  1  0
 22 48  1  1
 23 24  1  0
 23 33  1  0
 23 49  1  6
 24 25  1  0
 24 30  1  0
 24 50  1  1
 25 26  1  6
 26 27  1  0
 26 51  1  0
 26 52  1  0
 27 28  1  0
 27 53  1  0
 27 54  1  0
 28 29  1  0
 28 64  1  6
 29 55  1  0
 29 56  1  0
 29 57  1  0
 30 32  1  1
 30 31  1  0
 31 32  1  0
 31 58  1  0
 31 59  1  0
 33 34  1  0
 33 35  1  6
 34 60  1  0
 34 61  1  0
 34 62  1  0
 35 63  1  0
M  CHG  1  28   1
M  END
>  <i_m_ct_stereo_status>  (183) 
1

>  <s_m_source_file>  (183) 
/var/tmp/pbs.5076255.sched01/tmpmqqk35eb/391x3533zq.sdf

>  <i_m_source_file_index>  (183) 
37

>  <i_lp_mmshare_version>  (183) 
48012

>  <i_f3d_flags>  (183) 
0

>  <s_epik_input>  (183) 
TzFbQ0gyXVtDQEBdMShbQ0BAXTIzNClbQ0BIXTVbQ0BdNjdbQ0BASF04W0NAQEhdM1tDQEhdKE9DMj1PKVtDQEBIXShPW0NIMl1DI1tDSF0pW0NAQF0oW0NIM10pKFtPSF0pW0NAQEhdNVtDQEhdKE4oW0NIM10pW0NIMl1bQ0gyXTcpW0NASF02W0NAQF00KE84KWM5W2NIXVtjSF1bY0hdbltjSF05

>  <s_epik_cmdline>  (183) 
J2VwaWtfcHl0aG9uJywgJy1waHQnLCAnMi4wJywgJy1waCcsICc3LjAnLCAnLXRuJywgJzgnLCAnLW1hJywgJzIwMCcsICctaW1hZScsICc8aW5maWxlLm1hZT4nLCAnLW9tYWUnLCAnPG91dGZpbGUubWFlPic=

>  <r_epik_Ionization_Penalty>  (183) 
0.00803042

>  <r_epik_Ionization_Penalty_Charging>  (183) 
0.00635349

>  <r_epik_Ionization_Penalty_Neutral>  (183) 
0.00167694

>  <r_epik_State_Penalty>  (183) 
0.00469517

>  <r_epik_Charging_Adjusted_Penalty>  (183) 
0.0110487

>  <i_epik_Tot_Q>  (183) 
1

>  <i_epik_Tot_abs_Q>  (183) 
1

>  <s_epik_Chemistry_Notes>  (183) 
This compound has an ester and may undergo hydrolysis at high or low pH.

>  <s_lp_Force_Field>  (183) 
OPLS3e

>  <r_lp_Energy>  (183) 
456.049

>  <b_lp_Chiralities_Consistent>  (183) 
1

>  <s_lp_Variant>  (183) 
60:0-1

>  <s_i_glide_gridfile>  (183) 
pfpi4k_grid

>  <i_i_glide_lignum>  (183) 
37

>  <i_i_glide_rotatable_bonds>  (183) 
5

>  <r_i_docking_score>  (183) 
-2.89088

>  <r_i_glide_ligand_efficiency>  (183) 
-0.0825965

>  <r_i_glide_ligand_efficiency_sa>  (183) 
-0.270179

>  <r_i_glide_ligand_efficiency_ln>  (183) 
-0.634612

>  <r_i_glide_gscore>  (183) 
-2.89088

>  <r_i_glide_lipo>  (183) 
-0.219124

>  <r_i_glide_hbond>  (183) 
-0.295202

>  <r_i_glide_metal>  (183) 
-0

>  <r_i_glide_rewards>  (183) 
-0.153212

>  <r_i_glide_evdw>  (183) 
-19.8955

>  <r_i_glide_ecoul>  (183) 
-9.73661

>  <r_i_glide_erotb>  (183) 
0.355347

>  <r_i_glide_esite>  (183) 
-0.123421

>  <r_i_glide_emodel>  (183) 
-34.0285

>  <r_i_glide_energy>  (183) 
-29.6321

>  <r_i_glide_einternal>  (183) 
3.93356

>  <r_i_glide_intrahb_reward>  (183) 
-0

>  <i_i_glide_confnum>  (183) 
3

>  <i_i_glide_posenum>  (183) 
2

>  <r_i_glide_eff_state_penalty>  (183) 
0

>  <ligand_id>  (183) 
60

>  <original_smiles>  (183) 
C#CCOC1C2OC(=O)C34C2C2OC3(c3cccnc3)C3C5C(C(C23CCN5C)C42CO2)C1(C)O

>  <smiles>  (183) 
[H]C#CC([H])([H])OC1([H])C2([H])OC(=O)C34C5(c6c([H])nc([H])c([H])c6[H])OC([H])(C23[H])C23C([H])([H])C([H])([H])[N+]([H])(C([H])([H])[H])C([H])(C([H])(C2([H])C42OC2([H])[H])C1(O[H])C([H])([H])[H])C53[H]

$$$$
60:0:1
     RDKit          3D

 64 72  0  0  1  0  0  0  0  0999 V2000
    6.6427  -11.9521    1.7318 C   0  0  0  0  0  0  0  0  0  0  0  0
    6.7380  -11.6206    2.9256 C   0  0  0  0  0  0  0  0  0  0  0  0
    6.7897  -11.1976    4.3252 C   0  0  0  0  0  0  0  0  0  0  0  0
    5.4881  -11.1959    4.9279 O   0  0  0  0  0  0  0  0  0  0  0  0
    4.5255  -10.2262    4.4729 C   0  0  2  0  0  0  0  0  0  0  0  0
    5.2990   -8.8089    4.1675 C   0  0  1  0  0  0  0  0  0  0  0  0
    5.9791   -7.6456    4.7855 O   0  0  0  0  0  0  0  0  0  0  0  0
    5.2382   -6.4282    4.7389 C   0  0  0  0  0  0  0  0  0  0  0  0
    5.6285   -5.2616    4.9319 O   0  0  0  0  0  0  0  0  0  0  0  0
    3.8319   -6.8772    4.4246 C   0  0  2  0  0  0  0  0  0  0  0  0
    4.5062   -7.7793    3.3825 C   0  0  2  0  0  0  0  0  0  0  0  0
    3.4331   -8.0340    2.4448 C   0  0  2  0  0  0  0  0  0  0  0  0
    2.9847   -6.7125    2.2228 O   0  0  0  0  0  0  0  0  0  0  0  0
    2.4893   -6.4770    3.5191 C   0  0  2  0  0  0  0  0  0  0  0  0
    1.9488   -5.0678    3.7100 C   0  0  0  0  0  0  0  0  0  0  0  0
    2.4305   -3.9957    2.9050 C   0  0  0  0  0  0  0  0  0  0  0  0
    1.8900   -2.7138    3.1255 C   0  0  0  0  0  0  0  0  0  0  0  0
    0.9234   -2.5422    4.1162 C   0  0  0  0  0  0  0  0  0  0  0  0
    0.4654   -3.5509    4.8955 N   0  0  0  0  0  0  0  0  0  0  0  0
    0.9868   -4.7807    4.6815 C   0  0  0  0  0  0  0  0  0  0  0  0
    1.3087   -7.6901    3.3260 C   0  0  2  0  0  0  0  0  0  0  0  0
    0.5916   -8.8870    4.2683 C   0  0  2  0  0  0  0  0  0  0  0  0
    1.6912   -9.6505    5.2993 C   0  0  2  0  0  0  0  0  0  0  0  0
    2.3694   -8.4938    4.9381 C   0  0  2  0  0  0  0  0  0  0  0  0
    2.3421   -8.6677    3.2572 C   0  0  2  0  0  0  0  0  0  0  0  0
    1.9267   -9.9336    2.3485 C   0  0  0  0  0  0  0  0  0  0  0  0
    0.6052  -10.6688    2.6553 C   0  0  0  0  0  0  0  0  0  0  0  0
   -0.2567   -9.8185    3.4746 N   0  0  2  0  0  0  0  0  0  0  0  0
   -1.3311   -9.1683    2.6653 C   0  0  0  0  0  0  0  0  0  0  0  0
    3.4081   -7.6502    5.6437 C   0  0  1  0  0  0  0  0  0  0  0  0
    4.0395   -7.7007    7.0531 C   0  0  0  0  0  0  0  0  0  0  0  0
    2.9690   -6.8359    6.7765 O   0  0  0  0  0  0  0  0  0  0  0  0
    3.0606  -10.5839    5.2070 C   0  0  1  0  0  0  0  0  0  0  0  0
    2.6878  -12.0484    4.8803 C   0  0  0  0  0  0  0  0  0  0  0  0
    3.3926  -10.6684    6.5862 O   0  0  0  0  0  0  0  0  0  0  0  0
    6.4780  -12.2184    0.7264 H   0  0  0  0  0  0  0  0  0  0  0  0
    7.4144  -11.9020    4.8741 H   0  0  0  0  0  0  0  0  0  0  0  0
    7.3101  -10.2399    4.4026 H   0  0  0  0  0  0  0  0  0  0  0  0
    4.3286  -10.5589    3.4658 H   0  0  0  0  0  0  0  0  0  0  0  0
    5.2339   -8.8896    5.2448 H   0  0  0  0  0  0  0  0  0  0  0  0
    5.2003   -7.3423    2.6428 H   0  0  0  0  0  0  0  0  0  0  0  0
    3.7693   -8.5625    1.5464 H   0  0  0  0  0  0  0  0  0  0  0  0
    3.1833   -4.1626    2.1605 H   0  0  0  0  0  0  0  0  0  0  0  0
    2.2270   -1.8729    2.5254 H   0  0  0  0  0  0  0  0  0  0  0  0
    0.4824   -1.5742    4.2992 H   0  0  0  0  0  0  0  0  0  0  0  0
    0.5987   -5.5616    5.3309 H   0  0  0  0  0  0  0  0  0  0  0  0
    0.7767   -7.5265    2.3871 H   0  0  0  0  0  0  0  0  0  0  0  0
   -0.1635   -8.4079    4.8972 H   0  0  0  0  0  0  0  0  0  0  0  0
    1.2888   -9.6414    6.3111 H   0  0  0  0  0  0  0  0  0  0  0  0
    1.7352   -7.7408    5.4673 H   0  0  0  0  0  0  0  0  0  0  0  0
    1.7828   -9.5304    1.3391 H   0  0  0  0  0  0  0  0  0  0  0  0
    2.7199  -10.6719    2.2133 H   0  0  0  0  0  0  0  0  0  0  0  0
    0.1042  -10.9739    1.7287 H   0  0  0  0  0  0  0  0  0  0  0  0
    0.7691  -11.5982    3.1937 H   0  0  0  0  0  0  0  0  0  0  0  0
   -0.9429   -8.6561    1.7683 H   0  0  0  0  0  0  0  0  0  0  0  0
   -1.9094   -8.4517    3.2669 H   0  0  0  0  0  0  0  0  0  0  0  0
   -2.0417   -9.9230    2.2954 H   0  0  0  0  0  0  0  0  0  0  0  0
    3.8124   -8.5200    7.7197 H   0  0  0  0  0  0  0  0  0  0  0  0
    4.9375   -7.1288    7.3090 H   0  0  0  0  0  0  0  0  0  0  0  0
    2.6870  -12.2496    3.8123 H   0  0  0  0  0  0  0  0  0  0  0  0
    1.7067  -12.3177    5.2748 H   0  0  0  0  0  0  0  0  0  0  0  0
    3.4022  -12.7580    5.2978 H   0  0  0  0  0  0  0  0  0  0  0  0
    2.7789  -11.2734    7.0047 H   0  0  0  0  0  0  0  0  0  0  0  0
   -0.7575  -10.4239    4.1273 H   0  0  0  0  0  0  0  0  0  0  0  0
  1  2  3  0
  1 36  1  0
  2  3  1  0
  3  4  1  0
  3 37  1  0
  3 38  1  0
  4  5  1  0
  5 33  1  0
  5  6  1  0
  5 39  1  6
  6 11  1  0
  6  7  1  0
  6 40  1  6
  7  8  1  0
  8  9  2  0
 10  8  1  1
 10 14  1  0
 10 30  1  0
 10 11  1  0
 11 12  1  0
 11 41  1  6
 12 25  1  0
 12 13  1  0
 12 42  1  6
 13 14  1  0
 14 15  1  6
 14 21  1  0
 15 20  1  0
 15 16  2  0
 16 17  1  0
 16 43  1  0
 17 18  2  0
 17 44  1  0
 18 19  1  0
 18 45  1  0
 19 20  2  0
 20 46  1  0
 21 25  1  0
 21 22  1  0
 21 47  1  6
 22 28  1  0
 22 23  1  0
 22 48  1  1
 23 24  1  0
 23 33  1  0
 23 49  1  1
 24 25  1  0
 24 30  1  0
 24 50  1  6
 25 26  1  1
 26 27  1  0
 26 51  1  0
 26 52  1  0
 27 28  1  0
 27 53  1  0
 27 54  1  0
 28 29  1  0
 28 64  1  1
 29 55  1  0
 29 56  1  0
 29 57  1  0
 30 32  1  1
 30 31  1  0
 31 32  1  0
 31 58  1  0
 31 59  1  0
 33 34  1  0
 33 35  1  1
 34 60  1  0
 34 61  1  0
 34 62  1  0
 35 63  1  0
M  CHG  1  28   1
M  END
>  <i_m_ct_stereo_status>  (184) 
1

>  <s_m_source_file>  (184) 
/var/tmp/pbs.5076255.sched01/tmpmqqk35eb/391x3533zq.sdf

>  <i_m_source_file_index>  (184) 
37

>  <i_lp_mmshare_version>  (184) 
48012

>  <i_f3d_flags>  (184) 
0

>  <s_epik_input>  (184) 
TzFbQ0gyXVtDQEBdMShbQ0BAXTIzNClbQ0BIXTVbQ0BdNjdbQ0BASF04W0NAQEhdM1tDQEhdKE9DMj1PKVtDQEBIXShPW0NIMl1DI1tDSF0pW0NAQF0oW0NIM10pKFtPSF0pW0NAQEhdNVtDQEhdKE4oW0NIM10pW0NIMl1bQ0gyXTcpW0NASF02W0NAQF00KE84KWM5W2NIXVtjSF1bY0hdbltjSF05

>  <s_epik_cmdline>  (184) 
J2VwaWtfcHl0aG9uJywgJy1waHQnLCAnMi4wJywgJy1waCcsICc3LjAnLCAnLXRuJywgJzgnLCAnLW1hJywgJzIwMCcsICctaW1hZScsICc8aW5maWxlLm1hZT4nLCAnLW9tYWUnLCAnPG91dGZpbGUubWFlPic=

>  <r_epik_Ionization_Penalty>  (184) 
0.00803042

>  <r_epik_Ionization_Penalty_Charging>  (184) 
0.00635349

>  <r_epik_Ionization_Penalty_Neutral>  (184) 
0.00167694

>  <r_epik_State_Penalty>  (184) 
0.00469517

>  <r_epik_Charging_Adjusted_Penalty>  (184) 
0.0110487

>  <i_epik_Tot_Q>  (184) 
1

>  <i_epik_Tot_abs_Q>  (184) 
1

>  <s_epik_Chemistry_Notes>  (184) 
This compound has an ester and may undergo hydrolysis at high or low pH.

>  <s_lp_Force_Field>  (184) 
OPLS3e

>  <r_lp_Energy>  (184) 
456.049

>  <b_lp_Chiralities_Consistent>  (184) 
1

>  <s_lp_Variant>  (184) 
60:0-1

>  <s_i_glide_gridfile>  (184) 
pfpi4k_grid

>  <i_i_glide_lignum>  (184) 
37

>  <i_i_glide_rotatable_bonds>  (184) 
5

>  <r_i_docking_score>  (184) 
-2.65926

>  <r_i_glide_ligand_efficiency>  (184) 
-0.0759789

>  <r_i_glide_ligand_efficiency_sa>  (184) 
-0.248532

>  <r_i_glide_ligand_efficiency_ln>  (184) 
-0.583767

>  <r_i_glide_gscore>  (184) 
-2.65926

>  <r_i_glide_lipo>  (184) 
-0.342551

>  <r_i_glide_hbond>  (184) 
-0.2

>  <r_i_glide_metal>  (184) 
-0

>  <r_i_glide_rewards>  (184) 
-0.153212

>  <r_i_glide_evdw>  (184) 
-23.1157

>  <r_i_glide_ecoul>  (184) 
-7.36615

>  <r_i_glide_erotb>  (184) 
0.355347

>  <r_i_glide_esite>  (184) 
-0.0581389

>  <r_i_glide_emodel>  (184) 
-35.7921

>  <r_i_glide_energy>  (184) 
-30.4818

>  <r_i_glide_einternal>  (184) 
2.05889

>  <r_i_glide_intrahb_reward>  (184) 
-0

>  <i_i_glide_confnum>  (184) 
4

>  <i_i_glide_posenum>  (184) 
37

>  <r_i_glide_eff_state_penalty>  (184) 
0

>  <ligand_id>  (184) 
60

>  <original_smiles>  (184) 
C#CCOC1C2OC(=O)C34C2C2OC3(c3cccnc3)C3C5C(C(C23CCN5C)C42CO2)C1(C)O

>  <smiles>  (184) 
[H]C#CC([H])([H])OC1([H])C2([H])OC(=O)C34C5(c6c([H])nc([H])c([H])c6[H])OC([H])(C23[H])C23C([H])([H])C([H])([H])[N+]([H])(C([H])([H])[H])C([H])(C([H])(C2([H])C42OC2([H])[H])C1(O[H])C([H])([H])[H])C53[H]

$$$$
60:0:2
     RDKit          3D

 64 72  0  0  1  0  0  0  0  0999 V2000
    6.4593  -11.7724    2.0353 C   0  0  0  0  0  0  0  0  0  0  0  0
    6.6553  -11.3711    3.1746 C   0  0  0  0  0  0  0  0  0  0  0  0
    6.8295  -10.8545    4.5407 C   0  0  0  0  0  0  0  0  0  0  0  0
    5.6019  -10.9080    5.2649 O   0  0  0  0  0  0  0  0  0  0  0  0
    4.5742   -9.9610    4.9248 C   0  0  2  0  0  0  0  0  0  0  0  0
    5.2215   -8.4471    4.9366 C   0  0  1  0  0  0  0  0  0  0  0  0
    5.7191   -7.3450    5.7949 O   0  0  0  0  0  0  0  0  0  0  0  0
    4.8461   -6.2233    5.9109 C   0  0  0  0  0  0  0  0  0  0  0  0
    5.0776   -5.0707    6.3188 O   0  0  0  0  0  0  0  0  0  0  0  0
    3.5183   -6.7549    5.4083 C   0  0  2  0  0  0  0  0  0  0  0  0
    4.3600   -7.3751    4.2773 C   0  0  2  0  0  0  0  0  0  0  0  0
    3.3726   -7.5607    3.2314 C   0  0  2  0  0  0  0  0  0  0  0  0
    2.7938   -6.2696    3.2074 O   0  0  0  0  0  0  0  0  0  0  0  0
    2.1989   -6.3278    4.4866 C   0  0  2  0  0  0  0  0  0  0  0  0
    1.4929   -5.0342    4.8810 C   0  0  0  0  0  0  0  0  0  0  0  0
    0.7048   -4.9907    6.0609 C   0  0  0  0  0  0  0  0  0  0  0  0
    0.0746   -3.7748    6.4030 C   0  0  0  0  0  0  0  0  0  0  0  0
    0.2471   -2.6670    5.5612 C   0  0  0  0  0  0  0  0  0  0  0  0
    0.9865   -2.7001    4.4340 N   0  0  0  0  0  0  0  0  0  0  0  0
    1.5955   -3.8575    4.1147 C   0  0  0  0  0  0  0  0  0  0  0  0
    1.1765   -7.5921    3.9923 C   0  0  2  0  0  0  0  0  0  0  0  0
    0.5385   -9.0043    4.6563 C   0  0  2  0  0  0  0  0  0  0  0  0
    1.6566   -9.8301    5.6221 C   0  0  2  0  0  0  0  0  0  0  0  0
    2.2204   -8.5684    5.5184 C   0  0  2  0  0  0  0  0  0  0  0  0
    2.3112   -8.4353    3.8338 C   0  0  2  0  0  0  0  0  0  0  0  0
    2.0907   -9.5556    2.6929 C   0  0  0  0  0  0  0  0  0  0  0  0
    0.8428  -10.4611    2.7758 C   0  0  0  0  0  0  0  0  0  0  0  0
   -0.1567   -9.8552    3.6483 N   0  0  2  0  0  0  0  0  0  0  0  0
   -1.2457   -9.1925    2.8835 C   0  0  0  0  0  0  0  0  0  0  0  0
    3.1227   -7.7724    6.4278 C   0  0  1  0  0  0  0  0  0  0  0  0
    3.6688   -8.0165    7.8646 C   0  0  0  0  0  0  0  0  0  0  0  0
    2.5226   -7.2196    7.6538 O   0  0  0  0  0  0  0  0  0  0  0  0
    3.1308  -10.5888    5.4797 C   0  0  1  0  0  0  0  0  0  0  0  0
    2.9414  -12.0063    4.8792 C   0  0  0  0  0  0  0  0  0  0  0  0
    3.4192  -10.8886    6.8424 O   0  0  0  0  0  0  0  0  0  0  0  0
    6.2312  -12.0875    1.0432 H   0  0  0  0  0  0  0  0  0  0  0  0
    7.5502  -11.4963    5.0467 H   0  0  0  0  0  0  0  0  0  0  0  0
    7.2802   -9.8620    4.5054 H   0  0  0  0  0  0  0  0  0  0  0  0
    4.4498  -10.0960    3.8666 H   0  0  0  0  0  0  0  0  0  0  0  0
    5.1100   -8.7308    5.9746 H   0  0  0  0  0  0  0  0  0  0  0  0
    5.0390   -6.7428    3.6797 H   0  0  0  0  0  0  0  0  0  0  0  0
    3.8150   -7.8845    2.2805 H   0  0  0  0  0  0  0  0  0  0  0  0
    0.5935   -5.8501    6.6892 H   0  0  0  0  0  0  0  0  0  0  0  0
   -0.5197   -3.7046    7.3026 H   0  0  0  0  0  0  0  0  0  0  0  0
   -0.2161   -1.7217    5.7907 H   0  0  0  0  0  0  0  0  0  0  0  0
    2.1940   -3.8333    3.2090 H   0  0  0  0  0  0  0  0  0  0  0  0
    0.6792   -7.3158    3.0578 H   0  0  0  0  0  0  0  0  0  0  0  0
   -0.3009   -8.7264    5.2991 H   0  0  0  0  0  0  0  0  0  0  0  0
    1.2013  -10.0428    6.5807 H   0  0  0  0  0  0  0  0  0  0  0  0
    1.4804   -7.9855    6.1174 H   0  0  0  0  0  0  0  0  0  0  0  0
    1.9529   -8.9955    1.7629 H   0  0  0  0  0  0  0  0  0  0  0  0
    2.9646  -10.1746    2.4891 H   0  0  0  0  0  0  0  0  0  0  0  0
    0.4419  -10.6432    1.7689 H   0  0  0  0  0  0  0  0  0  0  0  0
    1.0842  -11.4520    3.1423 H   0  0  0  0  0  0  0  0  0  0  0  0
   -0.8611   -8.4900    2.1162 H   0  0  0  0  0  0  0  0  0  0  0  0
   -1.9405   -8.6591    3.5514 H   0  0  0  0  0  0  0  0  0  0  0  0
   -1.8311   -9.9475    2.3304 H   0  0  0  0  0  0  0  0  0  0  0  0
    3.4887   -8.9480    8.3569 H   0  0  0  0  0  0  0  0  0  0  0  0
    4.4788   -7.3924    8.2736 H   0  0  0  0  0  0  0  0  0  0  0  0
    3.0275  -12.0149    3.7940 H   0  0  0  0  0  0  0  0  0  0  0  0
    1.9788  -12.4459    5.1429 H   0  0  0  0  0  0  0  0  0  0  0  0
    3.7081  -12.6990    5.2253 H   0  0  0  0  0  0  0  0  0  0  0  0
    2.7627  -11.4918    7.1614 H   0  0  0  0  0  0  0  0  0  0  0  0
   -0.6378  -10.6103    4.1652 H   0  0  0  0  0  0  0  0  0  0  0  0
  1  2  3  0
  1 36  1  0
  2  3  1  0
  3  4  1  0
  3 37  1  0
  3 38  1  0
  4  5  1  0
  5 33  1  0
  5  6  1  0
  5 39  1  6
  6 11  1  0
  6  7  1  0
  6 40  1  6
  7  8  1  0
  8  9  2  0
 10  8  1  1
 10 14  1  0
 10 30  1  0
 10 11  1  0
 11 12  1  0
 11 41  1  6
 12 25  1  0
 12 13  1  0
 12 42  1  6
 13 14  1  0
 14 15  1  1
 14 21  1  0
 15 20  1  0
 15 16  2  0
 16 17  1  0
 16 43  1  0
 17 18  2  0
 17 44  1  0
 18 19  1  0
 18 45  1  0
 19 20  2  0
 20 46  1  0
 21 25  1  0
 21 22  1  0
 21 47  1  6
 22 28  1  0
 22 23  1  0
 22 48  1  1
 23 24  1  0
 23 33  1  0
 23 49  1  1
 24 25  1  0
 24 30  1  0
 24 50  1  1
 25 26  1  6
 26 27  1  0
 26 51  1  0
 26 52  1  0
 27 28  1  0
 27 53  1  0
 27 54  1  0
 28 29  1  0
 28 64  1  1
 29 55  1  0
 29 56  1  0
 29 57  1  0
 30 32  1  1
 30 31  1  0
 31 32  1  0
 31 58  1  0
 31 59  1  0
 33 34  1  0
 33 35  1  1
 34 60  1  0
 34 61  1  0
 34 62  1  0
 35 63  1  0
M  CHG  1  28   1
M  END
>  <i_m_ct_stereo_status>  (185) 
1

>  <s_m_source_file>  (185) 
/var/tmp/pbs.5076255.sched01/tmpmqqk35eb/391x3533zq.sdf

>  <i_m_source_file_index>  (185) 
37

>  <i_lp_mmshare_version>  (185) 
48012

>  <i_f3d_flags>  (185) 
0

>  <s_epik_input>  (185) 
TzFbQ0gyXVtDQEBdMShbQ0BAXTIzNClbQ0BIXTVbQ0BdNjdbQ0BASF04W0NAQEhdM1tDQEhdKE9DMj1PKVtDQEBIXShPW0NIMl1DI1tDSF0pW0NAQF0oW0NIM10pKFtPSF0pW0NAQEhdNVtDQEhdKE4oW0NIM10pW0NIMl1bQ0gyXTcpW0NASF02W0NAQF00KE84KWM5W2NIXVtjSF1bY0hdbltjSF05

>  <s_epik_cmdline>  (185) 
J2VwaWtfcHl0aG9uJywgJy1waHQnLCAnMi4wJywgJy1waCcsICc3LjAnLCAnLXRuJywgJzgnLCAnLW1hJywgJzIwMCcsICctaW1hZScsICc8aW5maWxlLm1hZT4nLCAnLW9tYWUnLCAnPG91dGZpbGUubWFlPic=

>  <r_epik_Ionization_Penalty>  (185) 
0.00803042

>  <r_epik_Ionization_Penalty_Charging>  (185) 
0.00635349

>  <r_epik_Ionization_Penalty_Neutral>  (185) 
0.00167694

>  <r_epik_State_Penalty>  (185) 
0.00469517

>  <r_epik_Charging_Adjusted_Penalty>  (185) 
0.0110487

>  <i_epik_Tot_Q>  (185) 
1

>  <i_epik_Tot_abs_Q>  (185) 
1

>  <s_epik_Chemistry_Notes>  (185) 
This compound has an ester and may undergo hydrolysis at high or low pH.

>  <s_lp_Force_Field>  (185) 
OPLS3e

>  <r_lp_Energy>  (185) 
456.049

>  <b_lp_Chiralities_Consistent>  (185) 
1

>  <s_lp_Variant>  (185) 
60:0-1

>  <s_i_glide_gridfile>  (185) 
pfpi4k_grid

>  <i_i_glide_lignum>  (185) 
37

>  <i_i_glide_rotatable_bonds>  (185) 
5

>  <r_i_docking_score>  (185) 
-2.28174

>  <r_i_glide_ligand_efficiency>  (185) 
-0.0651927

>  <r_i_glide_ligand_efficiency_sa>  (185) 
-0.21325

>  <r_i_glide_ligand_efficiency_ln>  (185) 
-0.500893

>  <r_i_glide_gscore>  (185) 
-2.28174

>  <r_i_glide_lipo>  (185) 
-0.204658

>  <r_i_glide_hbond>  (185) 
-0.180638

>  <r_i_glide_metal>  (185) 
-0

>  <r_i_glide_rewards>  (185) 
-0.153212

>  <r_i_glide_evdw>  (185) 
-19.8649

>  <r_i_glide_ecoul>  (185) 
-6.97805

>  <r_i_glide_erotb>  (185) 
0.355347

>  <r_i_glide_esite>  (185) 
-0.0586294

>  <r_i_glide_emodel>  (185) 
-31.7151

>  <r_i_glide_energy>  (185) 
-26.843

>  <r_i_glide_einternal>  (185) 
1.1464

>  <r_i_glide_intrahb_reward>  (185) 
-0

>  <i_i_glide_confnum>  (185) 
2

>  <i_i_glide_posenum>  (185) 
11

>  <r_i_glide_eff_state_penalty>  (185) 
0

>  <ligand_id>  (185) 
60

>  <original_smiles>  (185) 
C#CCOC1C2OC(=O)C34C2C2OC3(c3cccnc3)C3C5C(C(C23CCN5C)C42CO2)C1(C)O

>  <smiles>  (185) 
[H]C#CC([H])([H])OC1([H])C2([H])OC(=O)C34C5(c6c([H])nc([H])c([H])c6[H])OC([H])(C23[H])C23C([H])([H])C([H])([H])[N+]([H])(C([H])([H])[H])C([H])(C([H])(C2([H])C42OC2([H])[H])C1(O[H])C([H])([H])[H])C53[H]

$$$$
62:0:0
     RDKit          3D

 92 97  0  0  1  0  0  0  0  0999 V2000
    2.6318    1.7870    6.7611 C   0  0  0  0  0  0  0  0  0  0  0  0
    2.0069    1.5317    5.3654 C   0  0  0  0  0  0  0  0  0  0  0  0
    0.4868    1.3875    5.5956 C   0  0  0  0  0  0  0  0  0  0  0  0
    2.2572    2.7530    4.4152 C   0  0  1  0  0  0  0  0  0  0  0  0
    3.6208    3.1596    4.4993 O   0  0  0  0  0  0  0  0  0  0  0  0
    1.8820    2.4663    2.9318 C   0  0  1  0  0  0  0  0  0  0  0  0
    2.2101    3.5927    2.1450 O   0  0  0  0  0  0  0  0  0  0  0  0
    2.5346    1.1842    2.3493 C   0  0  0  0  0  0  0  0  0  0  0  0
    2.3044   -0.0482    3.2570 C   0  0  2  0  0  0  0  0  0  0  0  0
    0.9213   -0.3470    3.2074 O   0  0  0  0  0  0  0  0  0  0  0  0
    2.7001    0.2906    4.7029 C   0  0  2  0  0  0  0  0  0  0  0  0
    2.7938   -1.0596    5.4341 C   0  0  0  0  0  0  0  0  0  0  0  0
    2.9437   -2.0903    4.3244 C   0  0  0  0  0  0  0  0  0  0  0  0
    2.7727   -3.4377    4.4591 C   0  0  0  0  0  0  0  0  0  0  0  0
    2.4799   -4.0549    5.8263 C   0  0  0  0  0  0  0  0  0  0  0  0
    3.3145   -5.3060    6.0770 C   0  0  0  0  0  0  0  0  0  0  0  0
    3.8054   -5.4987    7.1956 O   0  0  0  0  0  0  0  0  0  0  0  0
    3.4019   -6.3231    4.9243 C   0  0  2  0  0  0  0  0  0  0  0  0
    4.0083   -7.7611    5.2716 C   0  0  1  0  0  0  0  0  0  0  0  0
    5.4926   -7.7221    5.7589 C   0  0  0  0  0  0  0  0  0  0  0  0
    3.1917   -8.4209    6.4437 C   0  0  0  0  0  0  0  0  0  0  0  0
    3.0742   -9.9555    6.4172 C   0  0  0  0  0  0  0  0  0  0  0  0
    2.6770  -10.5638    5.0500 C   0  0  1  0  0  0  0  0  0  0  0  0
    1.4502  -11.2513    5.1941 O   0  0  0  0  0  0  0  0  0  0  0  0
    2.6204   -9.5637    3.8579 C   0  0  1  0  0  0  0  0  0  0  0  0
    2.7061  -10.4116    2.5637 C   0  0  0  0  0  0  0  0  0  0  0  0
    1.2181   -8.8272    3.8713 C   0  0  0  0  0  0  0  0  0  0  0  0
    0.9042   -8.0829    2.6891 O   0  0  0  0  0  0  0  0  0  0  0  0
    3.9322   -8.6847    4.0052 C   0  0  1  0  0  0  0  0  0  0  0  0
    4.5092   -7.9779    2.7537 C   0  0  0  0  0  0  0  0  0  0  0  0
    3.8389   -6.6408    2.4061 C   0  0  0  0  0  0  0  0  0  0  0  0
    3.8087   -5.6027    3.5783 C   0  0  2  0  0  0  0  0  0  0  0  0
    5.2418   -5.0278    3.7134 C   0  0  0  0  0  0  0  0  0  0  0  0
    2.7617   -4.4222    3.2723 C   0  0  1  0  0  0  0  0  0  0  0  0
    1.2843   -4.9009    3.1571 C   0  0  0  0  0  0  0  0  0  0  0  0
    3.0892   -3.6817    1.9180 C   0  0  1  0  0  0  0  0  0  0  0  0
    2.6139   -4.3677    0.7721 O   0  0  0  0  0  0  0  0  0  0  0  0
    2.5426   -2.2444    1.8370 C   0  0  0  0  0  0  0  0  0  0  0  0
    3.1014   -1.3663    2.9877 C   0  0  1  0  0  0  0  0  0  0  0  0
    4.6063   -1.1022    2.7277 C   0  0  0  0  0  0  0  0  0  0  0  0
    2.2931    2.7298    7.1784 H   0  0  0  0  0  0  0  0  0  0  0  0
    3.7192    1.8147    6.7255 H   0  0  0  0  0  0  0  0  0  0  0  0
    2.3508    0.9979    7.4525 H   0  0  0  0  0  0  0  0  0  0  0  0
   -0.0847    1.4314    4.6735 H   0  0  0  0  0  0  0  0  0  0  0  0
    0.1133    2.1980    6.2192 H   0  0  0  0  0  0  0  0  0  0  0  0
    0.2446    0.4464    6.0891 H   0  0  0  0  0  0  0  0  0  0  0  0
    1.6667    3.6077    4.7654 H   0  0  0  0  0  0  0  0  0  0  0  0
    4.0961    2.7393    3.7942 H   0  0  0  0  0  0  0  0  0  0  0  0
    0.8082    2.3550    2.8677 H   0  0  0  0  0  0  0  0  0  0  0  0
    1.4744    3.8116    1.5730 H   0  0  0  0  0  0  0  0  0  0  0  0
    2.1385    0.9917    1.3446 H   0  0  0  0  0  0  0  0  0  0  0  0
    3.6156    1.3420    2.2138 H   0  0  0  0  0  0  0  0  0  0  0  0
    0.6531   -0.3491    2.2987 H   0  0  0  0  0  0  0  0  0  0  0  0
    3.7366    0.6099    4.6614 H   0  0  0  0  0  0  0  0  0  0  0  0
    3.6621   -1.0932    6.0877 H   0  0  0  0  0  0  0  0  0  0  0  0
    1.8996   -1.2828    6.0159 H   0  0  0  0  0  0  0  0  0  0  0  0
    2.6821   -3.3402    6.6308 H   0  0  0  0  0  0  0  0  0  0  0  0
    1.4182   -4.3202    5.9037 H   0  0  0  0  0  0  0  0  0  0  0  0
    2.3544   -6.5519    4.7863 H   0  0  0  0  0  0  0  0  0  0  0  0
    5.7671   -8.6255    6.3107 H   0  0  0  0  0  0  0  0  0  0  0  0
    5.7031   -6.8833    6.4196 H   0  0  0  0  0  0  0  0  0  0  0  0
    6.2156   -7.6627    4.9510 H   0  0  0  0  0  0  0  0  0  0  0  0
    3.6512   -8.1778    7.3879 H   0  0  0  0  0  0  0  0  0  0  0  0
    2.1807   -7.9913    6.5243 H   0  0  0  0  0  0  0  0  0  0  0  0
    4.0111  -10.4194    6.7476 H   0  0  0  0  0  0  0  0  0  0  0  0
    2.3543  -10.2426    7.1837 H   0  0  0  0  0  0  0  0  0  0  0  0
    3.4200  -11.3407    4.8405 H   0  0  0  0  0  0  0  0  0  0  0  0
    1.4736  -11.8108    5.9684 H   0  0  0  0  0  0  0  0  0  0  0  0
    2.5863   -9.8194    1.6572 H   0  0  0  0  0  0  0  0  0  0  0  0
    1.9326  -11.1813    2.5458 H   0  0  0  0  0  0  0  0  0  0  0  0
    3.6644  -10.9209    2.4851 H   0  0  0  0  0  0  0  0  0  0  0  0
    0.4204   -9.5660    3.9561 H   0  0  0  0  0  0  0  0  0  0  0  0
    1.0840   -8.1954    4.7395 H   0  0  0  0  0  0  0  0  0  0  0  0
    1.0656   -8.6530    1.9447 H   0  0  0  0  0  0  0  0  0  0  0  0
    4.6927   -9.4580    4.1796 H   0  0  0  0  0  0  0  0  0  0  0  0
    5.5693   -7.8067    2.8961 H   0  0  0  0  0  0  0  0  0  0  0  0
    4.4728   -8.6313    1.8910 H   0  0  0  0  0  0  0  0  0  0  0  0
    4.4194   -6.2207    1.5736 H   0  0  0  0  0  0  0  0  0  0  0  0
    2.8300   -6.8345    2.0056 H   0  0  0  0  0  0  0  0  0  0  0  0
    5.6380   -4.6862    2.7575 H   0  0  0  0  0  0  0  0  0  0  0  0
    5.9538   -5.7703    4.0516 H   0  0  0  0  0  0  0  0  0  0  0  0
    5.2975   -4.1958    4.4128 H   0  0  0  0  0  0  0  0  0  0  0  0
    1.1119   -5.5644    2.3151 H   0  0  0  0  0  0  0  0  0  0  0  0
    0.6441   -4.0400    2.9985 H   0  0  0  0  0  0  0  0  0  0  0  0
    0.8883   -5.3976    4.0359 H   0  0  0  0  0  0  0  0  0  0  0  0
    4.1610   -3.6152    1.7595 H   0  0  0  0  0  0  0  0  0  0  0  0
    3.2013   -5.0822    0.5699 H   0  0  0  0  0  0  0  0  0  0  0  0
    2.7983   -1.7957    0.8803 H   0  0  0  0  0  0  0  0  0  0  0  0
    1.4525   -2.2917    1.8441 H   0  0  0  0  0  0  0  0  0  0  0  0
    4.7650   -0.6407    1.7592 H   0  0  0  0  0  0  0  0  0  0  0  0
    5.1820   -2.0284    2.7484 H   0  0  0  0  0  0  0  0  0  0  0  0
    5.0682   -0.4752    3.4794 H   0  0  0  0  0  0  0  0  0  0  0  0
  1  2  1  0
  1 41  1  0
  1 42  1  0
  1 43  1  0
  2 11  1  0
  2  3  1  0
  2  4  1  0
  3 44  1  0
  3 45  1  0
  3 46  1  0
  4  5  1  0
  4  6  1  0
  4 47  1  1
  5 48  1  0
  6  7  1  0
  6  8  1  0
  6 49  1  1
  7 50  1  0
  8  9  1  0
  8 51  1  0
  8 52  1  0
  9 39  1  0
  9 10  1  1
  9 11  1  0
 10 53  1  0
 11 12  1  0
 11 54  1  6
 12 13  1  0
 12 55  1  0
 12 56  1  0
 13 39  1  0
 13 14  2  0
 14 34  1  0
 14 15  1  0
 15 16  1  0
 15 57  1  0
 15 58  1  0
 16 17  2  0
 16 18  1  0
 18 32  1  0
 18 19  1  0
 18 59  1  6
 19 29  1  0
 19 20  1  1
 19 21  1  0
 20 60  1  0
 20 61  1  0
 20 62  1  0
 21 22  1  0
 21 63  1  0
 21 64  1  0
 22 23  1  0
 22 65  1  0
 22 66  1  0
 23 24  1  0
 23 25  1  0
 23 67  1  6
 24 68  1  0
 25 26  1  6
 25 27  1  0
 25 29  1  0
 26 69  1  0
 26 70  1  0
 26 71  1  0
 27 28  1  0
 27 72  1  0
 27 73  1  0
 28 74  1  0
 29 30  1  0
 29 75  1  1
 30 31  1  0
 30 76  1  0
 30 77  1  0
 31 32  1  0
 31 78  1  0
 31 79  1  0
 32 33  1  1
 32 34  1  0
 33 80  1  0
 33 81  1  0
 33 82  1  0
 34 35  1  6
 34 36  1  0
 35 83  1  0
 35 84  1  0
 35 85  1  0
 36 37  1  0
 36 38  1  0
 36 86  1  6
 37 87  1  0
 38 39  1  0
 38 88  1  0
 38 89  1  0
 39 40  1  6
 40 90  1  0
 40 91  1  0
 40 92  1  0
M  END
>  <i_m_ct_stereo_status>  (186) 
1

>  <s_m_source_file>  (186) 
/var/tmp/pbs.5076255.sched01/tmprh8juyh8/78tr4t3sa2.sdf

>  <i_m_source_file_index>  (186) 
1

>  <i_lp_mmshare_version>  (186) 
48012

>  <i_f3d_flags>  (186) 
0

>  <s_epik_input>  (186) 
W09IXVtDQEBIXShbQ0gyXTEpW0NASF0oW09IXSlDKFtDSDNdKShbQ0gzXSlbQ0BIXShbQ0BAXTEyW09IXSlbQ0gyXUMzPUM0W0NAQF0oW0NIM10pKFtDQEBIXShbT0hdKVtDSDJdW0NAQF0yM1tDSDNdKVtDQEBdNShbQ0gzXSlbQ0BIXShDKD1PKVtDSDJdNClbQ0BdNihbQ0gzXSlbQ0BIXShbQ0gyXVtDSDJdNSlbQ0BdKFtDSDNdKShbQ0gyXVtPSF0pW0NASF0oW09IXSlbQ0gyXVtDSDJdNg==

>  <s_epik_cmdline>  (186) 
J2VwaWtfcHl0aG9uJywgJy1waHQnLCAnMi4wJywgJy1waCcsICc3LjAnLCAnLXRuJywgJzgnLCAnLW1hJywgJzIwMCcsICctaW1hZScsICc8aW5maWxlLm1hZT4nLCAnLW9tYWUnLCAnPG91dGZpbGUubWFlPic=

>  <r_lp_tautomer_probability>  (186) 
1

>  <r_epik_Ionization_Penalty>  (186) 
2.8808e-06

>  <r_epik_Ionization_Penalty_Charging>  (186) 
0

>  <r_epik_Ionization_Penalty_Neutral>  (186) 
2.8808e-06

>  <r_epik_State_Penalty>  (186) 
-0

>  <r_epik_Charging_Adjusted_Penalty>  (186) 
0

>  <i_epik_Tot_Q>  (186) 
0

>  <i_epik_Tot_abs_Q>  (186) 
0

>  <s_lp_Force_Field>  (186) 
OPLS3e

>  <r_lp_Energy>  (186) 
101.46

>  <b_lp_Chiralities_Consistent>  (186) 
1

>  <s_lp_Variant>  (186) 
62:0-1

>  <s_i_glide_gridfile>  (186) 
pfpi4k_grid

>  <i_i_glide_lignum>  (186) 
1

>  <i_i_glide_rotatable_bonds>  (186) 
7

>  <r_i_docking_score>  (186) 
-2.53431

>  <r_i_glide_ligand_efficiency>  (186) 
-0.0633578

>  <r_i_glide_ligand_efficiency_sa>  (186) 
-0.216681

>  <r_i_glide_ligand_efficiency_ln>  (186) 
-0.540494

>  <r_i_glide_gscore>  (186) 
-2.53431

>  <r_i_glide_lipo>  (186) 
-0.0821333

>  <r_i_glide_hbond>  (186) 
-0.147701

>  <r_i_glide_metal>  (186) 
-0

>  <r_i_glide_rewards>  (186) 
0

>  <r_i_glide_evdw>  (186) 
-17.8801

>  <r_i_glide_ecoul>  (186) 
-9.84396

>  <r_i_glide_erotb>  (186) 
0.0661215

>  <r_i_glide_esite>  (186) 
0

>  <r_i_glide_emodel>  (186) 
-30.6213

>  <r_i_glide_energy>  (186) 
-27.724

>  <r_i_glide_einternal>  (186) 
3.08977

>  <r_i_glide_intrahb_reward>  (186) 
-0

>  <i_i_glide_confnum>  (186) 
1

>  <i_i_glide_posenum>  (186) 
12

>  <r_i_glide_eff_state_penalty>  (186) 
0

>  <ligand_id>  (186) 
62

>  <original_smiles>  (186) 
CC1(C)C(O)C(O)CC2(O)C1CC1=C3CC(=O)C4C5(C)CCC(O)C(C)(CO)C5CCC4(C)C3(C)C(O)CC12C

>  <smiles>  (186) 
[H]OC([H])([H])C1(C([H])([H])[H])C([H])(O[H])C([H])([H])C([H])([H])C2(C([H])([H])[H])C3([H])C(=O)C([H])([H])C4=C5C([H])([H])C6([H])C(O[H])(C([H])([H])C([H])(O[H])C([H])(O[H])C6(C([H])([H])[H])C([H])([H])[H])C5(C([H])([H])[H])C([H])([H])C([H])(O[H])C4(C([H])([H])[H])C3(C([H])([H])[H])C([H])([H])C([H])([H])C12[H]

$$$$
62:0:1
     RDKit          3D

 92 97  0  0  1  0  0  0  0  0999 V2000
   -1.0793    1.8884    5.7597 C   0  0  0  0  0  0  0  0  0  0  0  0
   -0.3169    1.6127    4.4359 C   0  0  0  0  0  0  0  0  0  0  0  0
   -1.3932    1.3046    3.3756 C   0  0  0  0  0  0  0  0  0  0  0  0
    0.4701    2.8868    3.9725 C   0  0  1  0  0  0  0  0  0  0  0  0
    1.2023    3.4408    5.0532 O   0  0  0  0  0  0  0  0  0  0  0  0
    1.4671    2.6090    2.8110 C   0  0  1  0  0  0  0  0  0  0  0  0
    2.2029    3.7752    2.4827 O   0  0  0  0  0  0  0  0  0  0  0  0
    2.4287    1.4151    3.0558 C   0  0  0  0  0  0  0  0  0  0  0  0
    1.6678    0.1341    3.4862 C   0  0  2  0  0  0  0  0  0  0  0  0
    0.8775   -0.2977    2.3869 O   0  0  0  0  0  0  0  0  0  0  0  0
    0.7298    0.4724    4.6649 C   0  0  2  0  0  0  0  0  0  0  0  0
    0.3177   -0.8833    5.2622 C   0  0  0  0  0  0  0  0  0  0  0  0
    1.3768   -1.8663    4.7664 C   0  0  0  0  0  0  0  0  0  0  0  0
    1.2877   -3.2304    4.8033 C   0  0  0  0  0  0  0  0  0  0  0  0
    0.0839   -3.9172    5.4440 C   0  0  0  0  0  0  0  0  0  0  0  0
    0.4769   -5.0912    6.3375 C   0  0  0  0  0  0  0  0  0  0  0  0
   -0.0876   -5.2591    7.4170 O   0  0  0  0  0  0  0  0  0  0  0  0
    1.5329   -6.0653    5.7690 C   0  0  2  0  0  0  0  0  0  0  0  0
    1.7620   -7.4223    6.5827 C   0  0  1  0  0  0  0  0  0  0  0  0
    2.2893   -7.2260    8.0394 C   0  0  0  0  0  0  0  0  0  0  0  0
    0.3962   -8.1966    6.7206 C   0  0  0  0  0  0  0  0  0  0  0  0
    0.4748   -9.7485    6.6705 C   0  0  0  0  0  0  0  0  0  0  0  0
    1.3704  -10.3402    5.5466 C   0  0  1  0  0  0  0  0  0  0  0  0
    0.6558  -11.1751    4.6669 O   0  0  0  0  0  0  0  0  0  0  0  0
    2.1925   -9.2992    4.7323 C   0  0  1  0  0  0  0  0  0  0  0  0
    3.3511  -10.0845    4.0644 C   0  0  0  0  0  0  0  0  0  0  0  0
    1.3541   -8.6768    3.5645 C   0  0  0  0  0  0  0  0  0  0  0  0
    0.0166   -8.3408    3.8684 O   0  0  0  0  0  0  0  0  0  0  0  0
    2.7905   -8.3174    5.8093 C   0  0  1  0  0  0  0  0  0  0  0  0
    4.0607   -7.5175    5.4305 C   0  0  0  0  0  0  0  0  0  0  0  0
    3.7935   -6.2720    4.5881 C   0  0  0  0  0  0  0  0  0  0  0  0
    2.7851   -5.2689    5.2188 C   0  0  2  0  0  0  0  0  0  0  0  0
    3.5066   -4.5417    6.3973 C   0  0  0  0  0  0  0  0  0  0  0  0
    2.3115   -4.1849    4.1350 C   0  0  1  0  0  0  0  0  0  0  0  0
    1.5650   -4.8336    2.9301 C   0  0  0  0  0  0  0  0  0  0  0  0
    3.5194   -3.3610    3.5277 C   0  0  1  0  0  0  0  0  0  0  0  0
    4.1979   -4.0499    2.4932 O   0  0  0  0  0  0  0  0  0  0  0  0
    3.1256   -1.9809    2.9606 C   0  0  0  0  0  0  0  0  0  0  0  0
    2.4726   -1.0910    4.0417 C   0  0  1  0  0  0  0  0  0  0  0  0
    3.5631   -0.6593    5.0638 C   0  0  0  0  0  0  0  0  0  0  0  0
   -1.7021    2.7787    5.6871 H   0  0  0  0  0  0  0  0  0  0  0  0
   -0.4018    2.0300    6.6006 H   0  0  0  0  0  0  0  0  0  0  0  0
   -1.7316    1.0563    6.0060 H   0  0  0  0  0  0  0  0  0  0  0  0
   -1.0161    1.3244    2.3559 H   0  0  0  0  0  0  0  0  0  0  0  0
   -2.2029    2.0350    3.4090 H   0  0  0  0  0  0  0  0  0  0  0  0
   -1.8051    0.3202    3.5557 H   0  0  0  0  0  0  0  0  0  0  0  0
   -0.2332    3.6607    3.6515 H   0  0  0  0  0  0  0  0  0  0  0  0
    1.6511    4.2103    4.7220 H   0  0  0  0  0  0  0  0  0  0  0  0
    0.8928    2.3841    1.9207 H   0  0  0  0  0  0  0  0  0  0  0  0
    1.6461    4.2679    1.8891 H   0  0  0  0  0  0  0  0  0  0  0  0
    2.9956    1.2176    2.1398 H   0  0  0  0  0  0  0  0  0  0  0  0
    3.1662    1.7085    3.8106 H   0  0  0  0  0  0  0  0  0  0  0  0
    1.4001   -0.3024    1.5955 H   0  0  0  0  0  0  0  0  0  0  0  0
    1.3611    0.9050    5.4368 H   0  0  0  0  0  0  0  0  0  0  0  0
    0.3251   -0.8477    6.3521 H   0  0  0  0  0  0  0  0  0  0  0  0
   -0.6624   -1.2115    4.9280 H   0  0  0  0  0  0  0  0  0  0  0  0
   -0.4912   -3.2158    6.0420 H   0  0  0  0  0  0  0  0  0  0  0  0
   -0.5828   -4.2921    4.6717 H   0  0  0  0  0  0  0  0  0  0  0  0
    1.0414   -6.4374    4.8809 H   0  0  0  0  0  0  0  0  0  0  0  0
    2.0994   -8.1130    8.6483 H   0  0  0  0  0  0  0  0  0  0  0  0
    1.8134   -6.3924    8.5475 H   0  0  0  0  0  0  0  0  0  0  0  0
    3.3594   -7.0715    8.1065 H   0  0  0  0  0  0  0  0  0  0  0  0
   -0.0472   -7.9539    7.6992 H   0  0  0  0  0  0  0  0  0  0  0  0
   -0.2974   -7.8474    5.9555 H   0  0  0  0  0  0  0  0  0  0  0  0
    0.8275  -10.1330    7.6274 H   0  0  0  0  0  0  0  0  0  0  0  0
   -0.5354  -10.1463    6.5896 H   0  0  0  0  0  0  0  0  0  0  0  0
    2.0777  -11.0142    6.0452 H   0  0  0  0  0  0  0  0  0  0  0  0
   -0.2841  -11.1333    4.8943 H   0  0  0  0  0  0  0  0  0  0  0  0
    3.9125   -9.4604    3.3732 H   0  0  0  0  0  0  0  0  0  0  0  0
    2.9924  -10.9366    3.4876 H   0  0  0  0  0  0  0  0  0  0  0  0
    4.0500  -10.4760    4.8012 H   0  0  0  0  0  0  0  0  0  0  0  0
    1.8396   -7.7958    3.1582 H   0  0  0  0  0  0  0  0  0  0  0  0
    1.3393   -9.3811    2.7214 H   0  0  0  0  0  0  0  0  0  0  0  0
   -0.4113   -9.1082    4.2442 H   0  0  0  0  0  0  0  0  0  0  0  0
    3.1924   -9.0059    6.5576 H   0  0  0  0  0  0  0  0  0  0  0  0
    4.5877   -7.2009    6.3330 H   0  0  0  0  0  0  0  0  0  0  0  0
    4.8022   -8.1374    4.9310 H   0  0  0  0  0  0  0  0  0  0  0  0
    4.7534   -5.7794    4.4372 H   0  0  0  0  0  0  0  0  0  0  0  0
    3.4979   -6.5995    3.5985 H   0  0  0  0  0  0  0  0  0  0  0  0
    4.4708   -4.1293    6.1086 H   0  0  0  0  0  0  0  0  0  0  0  0
    3.7344   -5.2059    7.2205 H   0  0  0  0  0  0  0  0  0  0  0  0
    2.9139   -3.7285    6.8141 H   0  0  0  0  0  0  0  0  0  0  0  0
    2.1674   -5.5248    2.3476 H   0  0  0  0  0  0  0  0  0  0  0  0
    1.2921   -4.0430    2.2443 H   0  0  0  0  0  0  0  0  0  0  0  0
    0.6493   -5.3547    3.1929 H   0  0  0  0  0  0  0  0  0  0  0  0
    4.2804   -3.1813    4.2774 H   0  0  0  0  0  0  0  0  0  0  0  0
    4.5652   -4.8455    2.8510 H   0  0  0  0  0  0  0  0  0  0  0  0
    3.9997   -1.4787    2.5548 H   0  0  0  0  0  0  0  0  0  0  0  0
    2.4702   -2.1473    2.1059 H   0  0  0  0  0  0  0  0  0  0  0  0
    4.3880   -0.1513    4.5680 H   0  0  0  0  0  0  0  0  0  0  0  0
    3.9730   -1.5180    5.5890 H   0  0  0  0  0  0  0  0  0  0  0  0
    3.1879   -0.0047    5.8414 H   0  0  0  0  0  0  0  0  0  0  0  0
  1  2  1  0
  1 41  1  0
  1 42  1  0
  1 43  1  0
  2 11  1  0
  2  3  1  0
  2  4  1  0
  3 44  1  0
  3 45  1  0
  3 46  1  0
  4  5  1  0
  4  6  1  0
  4 47  1  6
  5 48  1  0
  6  7  1  0
  6  8  1  0
  6 49  1  6
  7 50  1  0
  8  9  1  0
  8 51  1  0
  8 52  1  0
  9 39  1  0
  9 10  1  6
  9 11  1  0
 10 53  1  0
 11 12  1  0
 11 54  1  1
 12 13  1  0
 12 55  1  0
 12 56  1  0
 13 39  1  0
 13 14  2  0
 14 34  1  0
 14 15  1  0
 15 16  1  0
 15 57  1  0
 15 58  1  0
 16 17  2  0
 16 18  1  0
 18 32  1  0
 18 19  1  0
 18 59  1  6
 19 29  1  0
 19 20  1  1
 19 21  1  0
 20 60  1  0
 20 61  1  0
 20 62  1  0
 21 22  1  0
 21 63  1  0
 21 64  1  0
 22 23  1  0
 22 65  1  0
 22 66  1  0
 23 24  1  0
 23 25  1  0
 23 67  1  1
 24 68  1  0
 25 26  1  6
 25 27  1  0
 25 29  1  0
 26 69  1  0
 26 70  1  0
 26 71  1  0
 27 28  1  0
 27 72  1  0
 27 73  1  0
 28 74  1  0
 29 30  1  0
 29 75  1  1
 30 31  1  0
 30 76  1  0
 30 77  1  0
 31 32  1  0
 31 78  1  0
 31 79  1  0
 32 33  1  1
 32 34  1  0
 33 80  1  0
 33 81  1  0
 33 82  1  0
 34 35  1  6
 34 36  1  0
 35 83  1  0
 35 84  1  0
 35 85  1  0
 36 37  1  0
 36 38  1  0
 36 86  1  1
 37 87  1  0
 38 39  1  0
 38 88  1  0
 38 89  1  0
 39 40  1  1
 40 90  1  0
 40 91  1  0
 40 92  1  0
M  END
>  <i_m_ct_stereo_status>  (187) 
1

>  <s_m_source_file>  (187) 
/var/tmp/pbs.5076255.sched01/tmprh8juyh8/78tr4t3sa2.sdf

>  <i_m_source_file_index>  (187) 
1

>  <i_lp_mmshare_version>  (187) 
48012

>  <i_f3d_flags>  (187) 
0

>  <s_epik_input>  (187) 
W09IXVtDQEBIXShbQ0gyXTEpW0NASF0oW09IXSlDKFtDSDNdKShbQ0gzXSlbQ0BIXShbQ0BAXTEyW09IXSlbQ0gyXUMzPUM0W0NAQF0oW0NIM10pKFtDQEBIXShbT0hdKVtDSDJdW0NAQF0yM1tDSDNdKVtDQEBdNShbQ0gzXSlbQ0BIXShDKD1PKVtDSDJdNClbQ0BdNihbQ0gzXSlbQ0BIXShbQ0gyXVtDSDJdNSlbQ0BdKFtDSDNdKShbQ0gyXVtPSF0pW0NASF0oW09IXSlbQ0gyXVtDSDJdNg==

>  <s_epik_cmdline>  (187) 
J2VwaWtfcHl0aG9uJywgJy1waHQnLCAnMi4wJywgJy1waCcsICc3LjAnLCAnLXRuJywgJzgnLCAnLW1hJywgJzIwMCcsICctaW1hZScsICc8aW5maWxlLm1hZT4nLCAnLW9tYWUnLCAnPG91dGZpbGUubWFlPic=

>  <r_lp_tautomer_probability>  (187) 
1

>  <r_epik_Ionization_Penalty>  (187) 
2.8808e-06

>  <r_epik_Ionization_Penalty_Charging>  (187) 
0

>  <r_epik_Ionization_Penalty_Neutral>  (187) 
2.8808e-06

>  <r_epik_State_Penalty>  (187) 
-0

>  <r_epik_Charging_Adjusted_Penalty>  (187) 
0

>  <i_epik_Tot_Q>  (187) 
0

>  <i_epik_Tot_abs_Q>  (187) 
0

>  <s_lp_Force_Field>  (187) 
OPLS3e

>  <r_lp_Energy>  (187) 
101.46

>  <b_lp_Chiralities_Consistent>  (187) 
1

>  <s_lp_Variant>  (187) 
62:0-1

>  <s_i_glide_gridfile>  (187) 
pfpi4k_grid

>  <i_i_glide_lignum>  (187) 
1

>  <i_i_glide_rotatable_bonds>  (187) 
7

>  <r_i_docking_score>  (187) 
-2.12406

>  <r_i_glide_ligand_efficiency>  (187) 
-0.0531016

>  <r_i_glide_ligand_efficiency_sa>  (187) 
-0.181605

>  <r_i_glide_ligand_efficiency_ln>  (187) 
-0.453

>  <r_i_glide_gscore>  (187) 
-2.12406

>  <r_i_glide_lipo>  (187) 
-0.010728

>  <r_i_glide_hbond>  (187) 
0

>  <r_i_glide_metal>  (187) 
-0

>  <r_i_glide_rewards>  (187) 
0

>  <r_i_glide_evdw>  (187) 
-23.9513

>  <r_i_glide_ecoul>  (187) 
-6.53267

>  <r_i_glide_erotb>  (187) 
0.0661215

>  <r_i_glide_esite>  (187) 
-0.00199115

>  <r_i_glide_emodel>  (187) 
-31.8832

>  <r_i_glide_energy>  (187) 
-30.484

>  <r_i_glide_einternal>  (187) 
5.06058

>  <r_i_glide_intrahb_reward>  (187) 
-0

>  <i_i_glide_confnum>  (187) 
6

>  <i_i_glide_posenum>  (187) 
16

>  <r_i_glide_eff_state_penalty>  (187) 
0

>  <ligand_id>  (187) 
62

>  <original_smiles>  (187) 
CC1(C)C(O)C(O)CC2(O)C1CC1=C3CC(=O)C4C5(C)CCC(O)C(C)(CO)C5CCC4(C)C3(C)C(O)CC12C

>  <smiles>  (187) 
[H]OC([H])([H])C1(C([H])([H])[H])C([H])(O[H])C([H])([H])C([H])([H])C2(C([H])([H])[H])C3([H])C(=O)C([H])([H])C4=C5C([H])([H])C6([H])C(O[H])(C([H])([H])C([H])(O[H])C([H])(O[H])C6(C([H])([H])[H])C([H])([H])[H])C5(C([H])([H])[H])C([H])([H])C([H])(O[H])C4(C([H])([H])[H])C3(C([H])([H])[H])C([H])([H])C([H])([H])C12[H]

$$$$
62:0:2
     RDKit          3D

 92 97  0  0  1  0  0  0  0  0999 V2000
   -1.3518    1.9737    5.3070 C   0  0  0  0  0  0  0  0  0  0  0  0
   -0.4328    1.7015    4.0921 C   0  0  0  0  0  0  0  0  0  0  0  0
   -1.3605    1.3145    2.9165 C   0  0  0  0  0  0  0  0  0  0  0  0
    0.3319    3.0019    3.6933 C   0  0  1  0  0  0  0  0  0  0  0  0
    0.9030    3.6247    4.8393 O   0  0  0  0  0  0  0  0  0  0  0  0
    1.4564    2.7578    2.6724 C   0  0  1  0  0  0  0  0  0  0  0  0
    2.0547    4.0150    2.5024 O   0  0  0  0  0  0  0  0  0  0  0  0
    2.4694    1.6438    3.0515 C   0  0  0  0  0  0  0  0  0  0  0  0
    1.7384    0.3244    3.4326 C   0  0  2  0  0  0  0  0  0  0  0  0
    1.1061   -0.1968    2.2680 O   0  0  0  0  0  0  0  0  0  0  0  0
    0.6447    0.6315    4.4765 C   0  0  2  0  0  0  0  0  0  0  0  0
    0.2425   -0.7277    5.0637 C   0  0  0  0  0  0  0  0  0  0  0  0
    1.4062   -1.6637    4.7298 C   0  0  0  0  0  0  0  0  0  0  0  0
    1.3772   -3.0179    4.7913 C   0  0  0  0  0  0  0  0  0  0  0  0
    0.1461   -3.7559    5.3102 C   0  0  0  0  0  0  0  0  0  0  0  0
    0.4978   -4.8795    6.2756 C   0  0  0  0  0  0  0  0  0  0  0  0
   -0.1859   -5.0554    7.2890 O   0  0  0  0  0  0  0  0  0  0  0  0
    1.6588   -5.8129    5.8725 C   0  0  2  0  0  0  0  0  0  0  0  0
    1.8584   -7.1358    6.7470 C   0  0  1  0  0  0  0  0  0  0  0  0
    2.1942   -6.8770    8.2502 C   0  0  0  0  0  0  0  0  0  0  0  0
    0.5232   -7.9795    6.7548 C   0  0  0  0  0  0  0  0  0  0  0  0
    0.6904   -9.5263    6.7629 C   0  0  0  0  0  0  0  0  0  0  0  0
    1.7349  -10.0930    5.7750 C   0  0  1  0  0  0  0  0  0  0  0  0
    1.1238  -11.0069    4.8863 O   0  0  0  0  0  0  0  0  0  0  0  0
    2.5925   -9.0388    5.0221 C   0  0  1  0  0  0  0  0  0  0  0  0
    3.8608   -9.7704    4.5163 C   0  0  0  0  0  0  0  0  0  0  0  0
    1.8768   -8.4977    3.7316 C   0  0  0  0  0  0  0  0  0  0  0  0
    0.4963   -8.2059    3.8534 O   0  0  0  0  0  0  0  0  0  0  0  0
    3.0105   -7.9920    6.1250 C   0  0  1  0  0  0  0  0  0  0  0  0
    4.2731   -7.1343    5.8748 C   0  0  0  0  0  0  0  0  0  0  0  0
    4.0453   -5.9271    4.9658 C   0  0  0  0  0  0  0  0  0  0  0  0
    2.9177   -4.9634    5.4423 C   0  0  2  0  0  0  0  0  0  0  0  0
    3.4582   -4.1695    6.6739 C   0  0  0  0  0  0  0  0  0  0  0  0
    2.5207   -3.9355    4.2721 C   0  0  1  0  0  0  0  0  0  0  0  0
    1.9485   -4.6455    3.0042 C   0  0  0  0  0  0  0  0  0  0  0  0
    3.7472   -3.0600    3.7944 C   0  0  1  0  0  0  0  0  0  0  0  0
    4.5800   -3.7376    2.8696 O   0  0  0  0  0  0  0  0  0  0  0  0
    3.3593   -1.7234    3.1410 C   0  0  0  0  0  0  0  0  0  0  0  0
    2.5372   -0.8384    4.1107 C   0  0  1  0  0  0  0  0  0  0  0  0
    3.4707   -0.3267    5.2354 C   0  0  0  0  0  0  0  0  0  0  0  0
   -2.0016    2.8276    5.1285 H   0  0  0  0  0  0  0  0  0  0  0  0
   -0.7809    2.1765    6.2121 H   0  0  0  0  0  0  0  0  0  0  0  0
   -1.9841    1.1119    5.4994 H   0  0  0  0  0  0  0  0  0  0  0  0
   -0.8575    1.3260    1.9550 H   0  0  0  0  0  0  0  0  0  0  0  0
   -2.1872    2.0199    2.8275 H   0  0  0  0  0  0  0  0  0  0  0  0
   -1.7787    0.3264    3.0676 H   0  0  0  0  0  0  0  0  0  0  0  0
   -0.3627    3.7327    3.2604 H   0  0  0  0  0  0  0  0  0  0  0  0
    1.3825    4.3775    4.5122 H   0  0  0  0  0  0  0  0  0  0  0  0
    1.0358    2.4920    1.7110 H   0  0  0  0  0  0  0  0  0  0  0  0
    1.5685    4.4398    1.8014 H   0  0  0  0  0  0  0  0  0  0  0  0
    3.1488    1.4499    2.2141 H   0  0  0  0  0  0  0  0  0  0  0  0
    3.1033    1.9894    3.8813 H   0  0  0  0  0  0  0  0  0  0  0  0
    1.7258   -0.2431    1.5521 H   0  0  0  0  0  0  0  0  0  0  0  0
    1.1579    1.1204    5.3014 H   0  0  0  0  0  0  0  0  0  0  0  0
    0.1169   -0.6631    6.1410 H   0  0  0  0  0  0  0  0  0  0  0  0
   -0.6704   -1.1188    4.6200 H   0  0  0  0  0  0  0  0  0  0  0  0
   -0.5340   -3.0722    5.8148 H   0  0  0  0  0  0  0  0  0  0  0  0
   -0.4021   -4.1901    4.4775 H   0  0  0  0  0  0  0  0  0  0  0  0
    1.2983   -6.2304    4.9404 H   0  0  0  0  0  0  0  0  0  0  0  0
    1.9801   -7.7576    8.8563 H   0  0  0  0  0  0  0  0  0  0  0  0
    1.6192   -6.0601    8.6698 H   0  0  0  0  0  0  0  0  0  0  0  0
    3.2379   -6.6617    8.4353 H   0  0  0  0  0  0  0  0  0  0  0  0
   -0.0318   -7.7454    7.6743 H   0  0  0  0  0  0  0  0  0  0  0  0
   -0.1172   -7.6750    5.9079 H   0  0  0  0  0  0  0  0  0  0  0  0
    0.9506   -9.8656    7.7674 H   0  0  0  0  0  0  0  0  0  0  0  0
   -0.2763   -9.9805    6.5679 H   0  0  0  0  0  0  0  0  0  0  0  0
    2.4239  -10.6997    6.3690 H   0  0  0  0  0  0  0  0  0  0  0  0
    0.8887  -11.7675    5.4009 H   0  0  0  0  0  0  0  0  0  0  0  0
    4.4701   -9.1326    3.8791 H   0  0  0  0  0  0  0  0  0  0  0  0
    3.6204  -10.6544    3.9266 H   0  0  0  0  0  0  0  0  0  0  0  0
    4.4886  -10.1015    5.3393 H   0  0  0  0  0  0  0  0  0  0  0  0
    2.3876   -7.6200    3.3445 H   0  0  0  0  0  0  0  0  0  0  0  0
    1.9836   -9.2448    2.9293 H   0  0  0  0  0  0  0  0  0  0  0  0
    0.0769   -8.9755    4.2339 H   0  0  0  0  0  0  0  0  0  0  0  0
    3.3569   -8.6393    6.9336 H   0  0  0  0  0  0  0  0  0  0  0  0
    4.6738   -6.7679    6.8223 H   0  0  0  0  0  0  0  0  0  0  0  0
    5.1002   -7.7238    5.4844 H   0  0  0  0  0  0  0  0  0  0  0  0
    4.9900   -5.3891    4.9222 H   0  0  0  0  0  0  0  0  0  0  0  0
    3.8858   -6.2933    3.9585 H   0  0  0  0  0  0  0  0  0  0  0  0
    4.4267   -3.7142    6.4910 H   0  0  0  0  0  0  0  0  0  0  0  0
    3.6202   -4.7997    7.5377 H   0  0  0  0  0  0  0  0  0  0  0  0
    2.7788   -3.3821    6.9954 H   0  0  0  0  0  0  0  0  0  0  0  0
    2.6563   -5.3136    2.5214 H   0  0  0  0  0  0  0  0  0  0  0  0
    1.6811   -3.9078    2.2525 H   0  0  0  0  0  0  0  0  0  0  0  0
    1.0508   -5.2226    3.1856 H   0  0  0  0  0  0  0  0  0  0  0  0
    4.4039   -2.8222    4.6256 H   0  0  0  0  0  0  0  0  0  0  0  0
    4.9333   -4.5097    3.2887 H   0  0  0  0  0  0  0  0  0  0  0  0
    4.2485   -1.1806    2.8272 H   0  0  0  0  0  0  0  0  0  0  0  0
    2.8195   -1.9496    2.2202 H   0  0  0  0  0  0  0  0  0  0  0  0
    4.3221    0.2136    4.8270 H   0  0  0  0  0  0  0  0  0  0  0  0
    3.8594   -1.1461    5.8343 H   0  0  0  0  0  0  0  0  0  0  0  0
    2.9727    0.3247    5.9444 H   0  0  0  0  0  0  0  0  0  0  0  0
  1  2  1  0
  1 41  1  0
  1 42  1  0
  1 43  1  0
  2 11  1  0
  2  3  1  0
  2  4  1  0
  3 44  1  0
  3 45  1  0
  3 46  1  0
  4  5  1  0
  4  6  1  0
  4 47  1  6
  5 48  1  0
  6  7  1  0
  6  8  1  0
  6 49  1  6
  7 50  1  0
  8  9  1  0
  8 51  1  0
  8 52  1  0
  9 39  1  0
  9 10  1  6
  9 11  1  0
 10 53  1  0
 11 12  1  0
 11 54  1  1
 12 13  1  0
 12 55  1  0
 12 56  1  0
 13 39  1  0
 13 14  2  0
 14 34  1  0
 14 15  1  0
 15 16  1  0
 15 57  1  0
 15 58  1  0
 16 17  2  0
 16 18  1  0
 18 32  1  0
 18 19  1  0
 18 59  1  6
 19 29  1  0
 19 20  1  1
 19 21  1  0
 20 60  1  0
 20 61  1  0
 20 62  1  0
 21 22  1  0
 21 63  1  0
 21 64  1  0
 22 23  1  0
 22 65  1  0
 22 66  1  0
 23 24  1  0
 23 25  1  0
 23 67  1  1
 24 68  1  0
 25 26  1  6
 25 27  1  0
 25 29  1  0
 26 69  1  0
 26 70  1  0
 26 71  1  0
 27 28  1  0
 27 72  1  0
 27 73  1  0
 28 74  1  0
 29 30  1  0
 29 75  1  1
 30 31  1  0
 30 76  1  0
 30 77  1  0
 31 32  1  0
 31 78  1  0
 31 79  1  0
 32 33  1  1
 32 34  1  0
 33 80  1  0
 33 81  1  0
 33 82  1  0
 34 35  1  6
 34 36  1  0
 35 83  1  0
 35 84  1  0
 35 85  1  0
 36 37  1  0
 36 38  1  0
 36 86  1  1
 37 87  1  0
 38 39  1  0
 38 88  1  0
 38 89  1  0
 39 40  1  1
 40 90  1  0
 40 91  1  0
 40 92  1  0
M  END
>  <i_m_ct_stereo_status>  (188) 
1

>  <s_m_source_file>  (188) 
/var/tmp/pbs.5076255.sched01/tmprh8juyh8/78tr4t3sa2.sdf

>  <i_m_source_file_index>  (188) 
1

>  <i_lp_mmshare_version>  (188) 
48012

>  <i_f3d_flags>  (188) 
0

>  <s_epik_input>  (188) 
W09IXVtDQEBIXShbQ0gyXTEpW0NASF0oW09IXSlDKFtDSDNdKShbQ0gzXSlbQ0BIXShbQ0BAXTEyW09IXSlbQ0gyXUMzPUM0W0NAQF0oW0NIM10pKFtDQEBIXShbT0hdKVtDSDJdW0NAQF0yM1tDSDNdKVtDQEBdNShbQ0gzXSlbQ0BIXShDKD1PKVtDSDJdNClbQ0BdNihbQ0gzXSlbQ0BIXShbQ0gyXVtDSDJdNSlbQ0BdKFtDSDNdKShbQ0gyXVtPSF0pW0NASF0oW09IXSlbQ0gyXVtDSDJdNg==

>  <s_epik_cmdline>  (188) 
J2VwaWtfcHl0aG9uJywgJy1waHQnLCAnMi4wJywgJy1waCcsICc3LjAnLCAnLXRuJywgJzgnLCAnLW1hJywgJzIwMCcsICctaW1hZScsICc8aW5maWxlLm1hZT4nLCAnLW9tYWUnLCAnPG91dGZpbGUubWFlPic=

>  <r_lp_tautomer_probability>  (188) 
1

>  <r_epik_Ionization_Penalty>  (188) 
2.8808e-06

>  <r_epik_Ionization_Penalty_Charging>  (188) 
0

>  <r_epik_Ionization_Penalty_Neutral>  (188) 
2.8808e-06

>  <r_epik_State_Penalty>  (188) 
-0

>  <r_epik_Charging_Adjusted_Penalty>  (188) 
0

>  <i_epik_Tot_Q>  (188) 
0

>  <i_epik_Tot_abs_Q>  (188) 
0

>  <s_lp_Force_Field>  (188) 
OPLS3e

>  <r_lp_Energy>  (188) 
101.46

>  <b_lp_Chiralities_Consistent>  (188) 
1

>  <s_lp_Variant>  (188) 
62:0-1

>  <s_i_glide_gridfile>  (188) 
pfpi4k_grid

>  <i_i_glide_lignum>  (188) 
1

>  <i_i_glide_rotatable_bonds>  (188) 
7

>  <r_i_docking_score>  (188) 
-1.96362

>  <r_i_glide_ligand_efficiency>  (188) 
-0.0490905

>  <r_i_glide_ligand_efficiency_sa>  (188) 
-0.167887

>  <r_i_glide_ligand_efficiency_ln>  (188) 
-0.418783

>  <r_i_glide_gscore>  (188) 
-1.96362

>  <r_i_glide_lipo>  (188) 
-0.00742183

>  <r_i_glide_hbond>  (188) 
0

>  <r_i_glide_metal>  (188) 
-0

>  <r_i_glide_rewards>  (188) 
0

>  <r_i_glide_evdw>  (188) 
-23.4845

>  <r_i_glide_ecoul>  (188) 
-5.63802

>  <r_i_glide_erotb>  (188) 
0.0661215

>  <r_i_glide_esite>  (188) 
-0.00239107

>  <r_i_glide_emodel>  (188) 
-30.015

>  <r_i_glide_energy>  (188) 
-29.1225

>  <r_i_glide_einternal>  (188) 
3.85179

>  <r_i_glide_intrahb_reward>  (188) 
-0

>  <i_i_glide_confnum>  (188) 
6

>  <i_i_glide_posenum>  (188) 
1

>  <r_i_glide_eff_state_penalty>  (188) 
0

>  <ligand_id>  (188) 
62

>  <original_smiles>  (188) 
CC1(C)C(O)C(O)CC2(O)C1CC1=C3CC(=O)C4C5(C)CCC(O)C(C)(CO)C5CCC4(C)C3(C)C(O)CC12C

>  <smiles>  (188) 
[H]OC([H])([H])C1(C([H])([H])[H])C([H])(O[H])C([H])([H])C([H])([H])C2(C([H])([H])[H])C3([H])C(=O)C([H])([H])C4=C5C([H])([H])C6([H])C(O[H])(C([H])([H])C([H])(O[H])C([H])(O[H])C6(C([H])([H])[H])C([H])([H])[H])C5(C([H])([H])[H])C([H])([H])C([H])(O[H])C4(C([H])([H])[H])C3(C([H])([H])[H])C([H])([H])C([H])([H])C12[H]

$$$$
65:0:0
     RDKit          3D

 53 57  0  0  1  0  0  0  0  0999 V2000
    4.3609   -3.6169   -1.4737 C   0  0  0  0  0  0  0  0  0  0  0  0
    4.7272   -2.8265   -0.4177 C   0  0  0  0  0  0  0  0  0  0  0  0
    5.1115   -1.3475   -0.5926 C   0  0  1  0  0  0  0  0  0  0  0  0
    4.6911   -0.8098   -1.9589 C   0  0  0  0  0  0  0  0  0  0  0  0
    4.5466   -0.4417    0.5389 C   0  0  0  0  0  0  0  0  0  0  0  0
    4.8405   -0.9800    1.9434 C   0  0  0  0  0  0  0  0  0  0  0  0
    4.2433   -2.3647    2.0856 C   0  0  1  0  0  0  0  0  0  0  0  0
    2.6943   -2.2572    2.1130 C   0  0  0  0  0  0  0  0  0  0  0  0
    4.7774   -3.3815    1.0332 C   0  0  1  0  0  0  0  0  0  0  0  0
    4.1127   -4.7973    1.1713 C   0  0  2  0  0  0  0  0  0  0  0  0
    2.6597   -4.9442    0.6023 C   0  0  0  0  0  0  0  0  0  0  0  0
    1.7932   -5.5803    1.7392 C   0  0  1  0  0  0  0  0  0  0  0  0
    0.7516   -6.4015    1.2259 O   0  0  0  0  0  0  0  0  0  0  0  0
    2.7468   -6.2574    2.6770 C   0  0  2  0  0  0  0  0  0  0  0  0
    3.2441   -7.5189    2.2342 O   0  0  0  0  0  0  0  0  0  0  0  0
    4.4826   -7.7419    2.9127 C   0  0  1  0  0  0  0  0  0  0  0  0
    4.2873   -8.7903    4.0226 C   0  0  0  0  0  0  0  0  0  0  0  0
    5.6002   -8.1056    1.9128 C   0  0  0  0  0  0  0  0  0  0  0  0
    5.3859   -9.4577    1.2213 C   0  0  0  0  0  0  0  0  0  0  0  0
    4.5618   -6.3900    3.4631 C   0  0  2  0  0  0  0  0  0  0  0  0
    3.2405   -5.9015    4.1010 C   0  0  1  0  0  0  0  0  0  0  0  0
    3.5273   -4.6005    3.7397 O   0  0  0  0  0  0  0  0  0  0  0  0
    3.9723   -5.2961    2.5749 C   0  0  1  0  0  0  0  0  0  0  0  0
    4.1564   -4.6634   -1.3675 H   0  0  0  0  0  0  0  0  0  0  0  0
    4.2522   -3.2166   -2.4618 H   0  0  0  0  0  0  0  0  0  0  0  0
    6.2028   -1.3090   -0.4797 H   0  0  0  0  0  0  0  0  0  0  0  0
    5.1626   -1.3566   -2.7450 H   0  0  0  0  0  0  0  0  0  0  0  0
    4.9382    0.2609   -2.1170 H   0  0  0  0  0  0  0  0  0  0  0  0
    3.6286   -0.9020   -2.0603 H   0  0  0  0  0  0  0  0  0  0  0  0
    4.9447    0.5652    0.4763 H   0  0  0  0  0  0  0  0  0  0  0  0
    3.4687   -0.3218    0.3928 H   0  0  0  0  0  0  0  0  0  0  0  0
    5.9131   -0.9659    2.1476 H   0  0  0  0  0  0  0  0  0  0  0  0
    4.3882   -0.3189    2.6822 H   0  0  0  0  0  0  0  0  0  0  0  0
    4.5931   -2.6583    3.0664 H   0  0  0  0  0  0  0  0  0  0  0  0
    2.3063   -2.0290    1.1082 H   0  0  0  0  0  0  0  0  0  0  0  0
    2.3538   -1.4965    2.7822 H   0  0  0  0  0  0  0  0  0  0  0  0
    2.2240   -3.1740    2.3707 H   0  0  0  0  0  0  0  0  0  0  0  0
    5.8434   -3.5146    1.2512 H   0  0  0  0  0  0  0  0  0  0  0  0
    4.7490   -5.4948    0.6117 H   0  0  0  0  0  0  0  0  0  0  0  0
    2.2271   -3.9871    0.2814 H   0  0  0  0  0  0  0  0  0  0  0  0
    2.6794   -5.6356   -0.2387 H   0  0  0  0  0  0  0  0  0  0  0  0
    1.2711   -4.7894    2.2947 H   0  0  0  0  0  0  0  0  0  0  0  0
    1.1472   -7.1981    0.8886 H   0  0  0  0  0  0  0  0  0  0  0  0
    5.2180   -8.9404    4.5812 H   0  0  0  0  0  0  0  0  0  0  0  0
    3.9459   -9.7522    3.6285 H   0  0  0  0  0  0  0  0  0  0  0  0
    3.5319   -8.4642    4.7455 H   0  0  0  0  0  0  0  0  0  0  0  0
    5.6759   -7.3473    1.1417 H   0  0  0  0  0  0  0  0  0  0  0  0
    6.5684   -8.1033    2.4200 H   0  0  0  0  0  0  0  0  0  0  0  0
    6.1681   -9.6399    0.4847 H   0  0  0  0  0  0  0  0  0  0  0  0
    4.4194   -9.4937    0.7164 H   0  0  0  0  0  0  0  0  0  0  0  0
    5.4235  -10.2809    1.9336 H   0  0  0  0  0  0  0  0  0  0  0  0
    5.5084   -6.0916    3.9956 H   0  0  0  0  0  0  0  0  0  0  0  0
    2.8008   -6.2012    5.0696 H   0  0  0  0  0  0  0  0  0  0  0  0
  1  2  2  0
  1 24  1  0
  1 25  1  0
  2  9  1  0
  2  3  1  0
  3  4  1  0
  3  5  1  0
  3 26  1  6
  4 27  1  0
  4 28  1  0
  4 29  1  0
  5  6  1  0
  5 30  1  0
  5 31  1  0
  6  7  1  0
  6 32  1  0
  6 33  1  0
  7  8  1  0
  7  9  1  0
  7 34  1  1
  8 35  1  0
  8 36  1  0
  8 37  1  0
  9 10  1  0
  9 38  1  1
 10 23  1  0
 10 11  1  0
 10 39  1  6
 11 12  1  0
 11 40  1  0
 11 41  1  0
 12 13  1  0
 12 14  1  0
 12 42  1  1
 13 43  1  0
 14 21  1  0
 14 23  1  0
 14 15  1  6
 15 16  1  0
 16 17  1  1
 16 18  1  0
 16 20  1  0
 17 44  1  0
 17 45  1  0
 17 46  1  0
 18 19  1  0
 18 47  1  0
 18 48  1  0
 19 49  1  0
 19 50  1  0
 19 51  1  0
 20 23  1  0
 20 21  1  0
 20 52  1  1
 21 22  1  0
 21 53  1  1
 23 22  1  1
M  END
>  <i_m_ct_stereo_status>  (189) 
1

>  <s_m_source_file>  (189) 
/var/tmp/pbs.5076255.sched01/tmprh8juyh8/78tr4t3sa2.sdf

>  <i_m_source_file_index>  (189) 
4

>  <i_lp_mmshare_version>  (189) 
48012

>  <i_f3d_flags>  (189) 
2

>  <s_epik_input>  (189) 
W0NIMl09QzFbQ0BASF0oW0NIM10pW0NIMl1bQ0gyXVtDQEBIXShbQ0gzXSlbQ0BIXTFbQ0BIXShbQ0gyXVtDQEhdMltPSF0pW0NAQF0zKFtDQF0yNDUpW0NASF0oW0NAQEhdNU8zKVtDQF0oTzQpKFtDSDNdKVtDSDJdW0NIM10=

>  <s_epik_cmdline>  (189) 
J2VwaWtfcHl0aG9uJywgJy1waHQnLCAnMi4wJywgJy1waCcsICc3LjAnLCAnLXRuJywgJzgnLCAnLW1hJywgJzIwMCcsICctaW1hZScsICc8aW5maWxlLm1hZT4nLCAnLW9tYWUnLCAnPG91dGZpbGUubWFlPic=

>  <r_lp_tautomer_probability>  (189) 
1

>  <r_epik_Ionization_Penalty>  (189) 
4.29084e-08

>  <r_epik_Ionization_Penalty_Charging>  (189) 
0

>  <r_epik_Ionization_Penalty_Neutral>  (189) 
4.29084e-08

>  <r_epik_State_Penalty>  (189) 
-0

>  <r_epik_Charging_Adjusted_Penalty>  (189) 
0

>  <i_epik_Tot_Q>  (189) 
0

>  <i_epik_Tot_abs_Q>  (189) 
0

>  <s_lp_Force_Field>  (189) 
OPLS3e

>  <r_lp_Energy>  (189) 
144.372

>  <b_lp_Chiralities_Consistent>  (189) 
0

>  <s_lp_Variant>  (189) 
65:0-1

>  <s_i_glide_gridfile>  (189) 
pfpi4k_grid

>  <i_i_glide_lignum>  (189) 
4

>  <i_i_glide_rotatable_bonds>  (189) 
3

>  <r_i_docking_score>  (189) 
-2.84112

>  <r_i_glide_ligand_efficiency>  (189) 
-0.123527

>  <r_i_glide_ligand_efficiency_sa>  (189) 
-0.351295

>  <r_i_glide_ligand_efficiency_ln>  (189) 
-0.687009

>  <r_i_glide_gscore>  (189) 
-2.84112

>  <r_i_glide_lipo>  (189) 
-0.353595

>  <r_i_glide_hbond>  (189) 
0

>  <r_i_glide_metal>  (189) 
-0

>  <r_i_glide_rewards>  (189) 
-1.23784

>  <r_i_glide_evdw>  (189) 
-16.3652

>  <r_i_glide_ecoul>  (189) 
-4.1019

>  <r_i_glide_erotb>  (189) 
0.183857

>  <r_i_glide_esite>  (189) 
0

>  <r_i_glide_emodel>  (189) 
-15.5033

>  <r_i_glide_energy>  (189) 
-20.4671

>  <r_i_glide_einternal>  (189) 
13.6358

>  <r_i_glide_intrahb_reward>  (189) 
-0

>  <i_i_glide_confnum>  (189) 
3

>  <i_i_glide_posenum>  (189) 
40

>  <r_i_glide_eff_state_penalty>  (189) 
0

>  <ligand_id>  (189) 
65

>  <original_smiles>  (189) 
C=C1C(C)CCC(C)C1C1CC(O)C23OC(C)(CC)C4C2OC143

>  <smiles>  (189) 
[H]OC1([H])C([H])([H])C([H])(C2([H])C(=C([H])[H])C([H])(C([H])([H])[H])C([H])([H])C([H])([H])C2([H])C([H])([H])[H])C23OC4([H])C2([H])C(C([H])([H])[H])(C([H])([H])C([H])([H])[H])OC143

$$$$
65:0:1
     RDKit          3D

 53 57  0  0  1  0  0  0  0  0999 V2000
    1.9120   -4.9956    2.7034 C   0  0  0  0  0  0  0  0  0  0  0  0
    3.0523   -5.6970    2.6460 C   0  0  0  0  0  0  0  0  0  0  0  0
    3.0261   -7.1620    2.9372 C   0  0  1  0  0  0  0  0  0  0  0  0
    1.5581   -7.6498    2.9938 C   0  0  0  0  0  0  0  0  0  0  0  0
    3.8089   -7.9816    1.8976 C   0  0  0  0  0  0  0  0  0  0  0  0
    5.2377   -7.4507    1.6910 C   0  0  0  0  0  0  0  0  0  0  0  0
    5.2041   -6.0054    1.2387 C   0  0  1  0  0  0  0  0  0  0  0  0
    4.6195   -5.9979   -0.1472 C   0  0  0  0  0  0  0  0  0  0  0  0
    4.4155   -5.0586    2.2244 C   0  0  1  0  0  0  0  0  0  0  0  0
    4.2788   -3.6058    1.6760 C   0  0  2  0  0  0  0  0  0  0  0  0
    3.5990   -2.5469    2.6011 C   0  0  0  0  0  0  0  0  0  0  0  0
    2.4300   -1.8863    1.7584 C   0  0  1  0  0  0  0  0  0  0  0  0
    2.1764   -0.5511    2.0659 O   0  0  0  0  0  0  0  0  0  0  0  0
    2.7365   -2.1769    0.2739 C   0  0  2  0  0  0  0  0  0  0  0  0
    3.7374   -1.3190   -0.3062 O   0  0  0  0  0  0  0  0  0  0  0  0
    4.2893   -2.0162   -1.4115 C   0  0  1  0  0  0  0  0  0  0  0  0
    3.7669   -1.4566   -2.7340 C   0  0  0  0  0  0  0  0  0  0  0  0
    5.8267   -2.0555   -1.2904 C   0  0  0  0  0  0  0  0  0  0  0  0
    6.5580   -2.9350   -2.3159 C   0  0  0  0  0  0  0  0  0  0  0  0
    3.5893   -3.2857   -1.0934 C   0  0  2  0  0  0  0  0  0  0  0  0
    2.1094   -3.1326   -0.7693 C   0  0  1  0  0  0  0  0  0  0  0  0
    2.2555   -4.2175    0.1386 O   0  0  0  0  0  0  0  0  0  0  0  0
    3.4113   -3.5102    0.3964 C   0  0  1  0  0  0  0  0  0  0  0  0
    1.8787   -4.0489    2.4053 H   0  0  0  0  0  0  0  0  0  0  0  0
    0.9155   -5.3288    2.9522 H   0  0  0  0  0  0  0  0  0  0  0  0
    3.4828   -7.2755    3.9208 H   0  0  0  0  0  0  0  0  0  0  0  0
    1.0047   -7.1225    3.7723 H   0  0  0  0  0  0  0  0  0  0  0  0
    1.4878   -8.6986    3.2367 H   0  0  0  0  0  0  0  0  0  0  0  0
    1.0570   -7.4598    2.0370 H   0  0  0  0  0  0  0  0  0  0  0  0
    3.8505   -9.0212    2.2219 H   0  0  0  0  0  0  0  0  0  0  0  0
    3.2617   -7.9905    0.9518 H   0  0  0  0  0  0  0  0  0  0  0  0
    5.8274   -7.5403    2.6028 H   0  0  0  0  0  0  0  0  0  0  0  0
    5.7356   -8.0406    0.9174 H   0  0  0  0  0  0  0  0  0  0  0  0
    6.2276   -5.6203    1.1344 H   0  0  0  0  0  0  0  0  0  0  0  0
    3.5385   -6.1168   -0.1575 H   0  0  0  0  0  0  0  0  0  0  0  0
    5.0151   -6.6456   -0.9124 H   0  0  0  0  0  0  0  0  0  0  0  0
    4.9879   -5.0598   -0.4781 H   0  0  0  0  0  0  0  0  0  0  0  0
    5.0255   -4.9951    3.1371 H   0  0  0  0  0  0  0  0  0  0  0  0
    5.2851   -3.2268    1.4687 H   0  0  0  0  0  0  0  0  0  0  0  0
    3.2551   -2.9909    3.5336 H   0  0  0  0  0  0  0  0  0  0  0  0
    4.3249   -1.8030    2.9477 H   0  0  0  0  0  0  0  0  0  0  0  0
    1.4321   -2.2870    1.9606 H   0  0  0  0  0  0  0  0  0  0  0  0
    1.5551   -0.2557    1.4032 H   0  0  0  0  0  0  0  0  0  0  0  0
    4.1615   -2.0220   -3.5802 H   0  0  0  0  0  0  0  0  0  0  0  0
    4.0489   -0.4148   -2.8277 H   0  0  0  0  0  0  0  0  0  0  0  0
    2.6788   -1.5237   -2.7929 H   0  0  0  0  0  0  0  0  0  0  0  0
    6.1908   -1.0492   -1.3762 H   0  0  0  0  0  0  0  0  0  0  0  0
    6.1307   -2.3862   -0.2960 H   0  0  0  0  0  0  0  0  0  0  0  0
    7.6398   -2.8268   -2.2223 H   0  0  0  0  0  0  0  0  0  0  0  0
    6.2921   -2.6642   -3.3335 H   0  0  0  0  0  0  0  0  0  0  0  0
    6.3110   -3.9832   -2.1874 H   0  0  0  0  0  0  0  0  0  0  0  0
    3.7843   -4.1212   -1.7750 H   0  0  0  0  0  0  0  0  0  0  0  0
    1.2843   -3.0492   -1.4694 H   0  0  0  0  0  0  0  0  0  0  0  0
  1  2  2  0
  1 24  1  0
  1 25  1  0
  2  9  1  0
  2  3  1  0
  3  4  1  0
  3  5  1  0
  3 26  1  1
  4 27  1  0
  4 28  1  0
  4 29  1  0
  5  6  1  0
  5 30  1  0
  5 31  1  0
  6  7  1  0
  6 32  1  0
  6 33  1  0
  7  8  1  0
  7  9  1  0
  7 34  1  6
  8 35  1  0
  8 36  1  0
  8 37  1  0
  9 10  1  0
  9 38  1  1
 10 23  1  0
 10 11  1  0
 10 39  1  6
 11 12  1  0
 11 40  1  0
 11 41  1  0
 12 13  1  0
 12 14  1  0
 12 42  1  1
 13 43  1  0
 14 21  1  0
 14 23  1  0
 14 15  1  6
 15 16  1  0
 16 17  1  6
 16 18  1  0
 16 20  1  0
 17 44  1  0
 17 45  1  0
 17 46  1  0
 18 19  1  0
 18 47  1  0
 18 48  1  0
 19 49  1  0
 19 50  1  0
 19 51  1  0
 20 23  1  0
 20 21  1  0
 20 52  1  6
 21 22  1  0
 21 53  1  6
 23 22  1  6
M  END
>  <i_m_ct_stereo_status>  (190) 
1

>  <s_m_source_file>  (190) 
/var/tmp/pbs.5076255.sched01/tmprh8juyh8/78tr4t3sa2.sdf

>  <i_m_source_file_index>  (190) 
4

>  <i_lp_mmshare_version>  (190) 
48012

>  <i_f3d_flags>  (190) 
2

>  <s_epik_input>  (190) 
W0NIMl09QzFbQ0BASF0oW0NIM10pW0NIMl1bQ0gyXVtDQEBIXShbQ0gzXSlbQ0BIXTFbQ0BIXShbQ0gyXVtDQEhdMltPSF0pW0NAQF0zKFtDQF0yNDUpW0NASF0oW0NAQEhdNU8zKVtDQF0oTzQpKFtDSDNdKVtDSDJdW0NIM10=

>  <s_epik_cmdline>  (190) 
J2VwaWtfcHl0aG9uJywgJy1waHQnLCAnMi4wJywgJy1waCcsICc3LjAnLCAnLXRuJywgJzgnLCAnLW1hJywgJzIwMCcsICctaW1hZScsICc8aW5maWxlLm1hZT4nLCAnLW9tYWUnLCAnPG91dGZpbGUubWFlPic=

>  <r_lp_tautomer_probability>  (190) 
1

>  <r_epik_Ionization_Penalty>  (190) 
4.29084e-08

>  <r_epik_Ionization_Penalty_Charging>  (190) 
0

>  <r_epik_Ionization_Penalty_Neutral>  (190) 
4.29084e-08

>  <r_epik_State_Penalty>  (190) 
-0

>  <r_epik_Charging_Adjusted_Penalty>  (190) 
0

>  <i_epik_Tot_Q>  (190) 
0

>  <i_epik_Tot_abs_Q>  (190) 
0

>  <s_lp_Force_Field>  (190) 
OPLS3e

>  <r_lp_Energy>  (190) 
144.372

>  <b_lp_Chiralities_Consistent>  (190) 
0

>  <s_lp_Variant>  (190) 
65:0-1

>  <s_i_glide_gridfile>  (190) 
pfpi4k_grid

>  <i_i_glide_lignum>  (190) 
4

>  <i_i_glide_rotatable_bonds>  (190) 
3

>  <r_i_docking_score>  (190) 
-1.57962

>  <r_i_glide_ligand_efficiency>  (190) 
-0.068679

>  <r_i_glide_ligand_efficiency_sa>  (190) 
-0.195314

>  <r_i_glide_ligand_efficiency_ln>  (190) 
-0.381966

>  <r_i_glide_gscore>  (190) 
-1.57962

>  <r_i_glide_lipo>  (190) 
-0.205158

>  <r_i_glide_hbond>  (190) 
-0.000140161

>  <r_i_glide_metal>  (190) 
-0

>  <r_i_glide_rewards>  (190) 
-1.23784

>  <r_i_glide_evdw>  (190) 
-17.8821

>  <r_i_glide_ecoul>  (190) 
-2.60029

>  <r_i_glide_erotb>  (190) 
0.183857

>  <r_i_glide_esite>  (190) 
0

>  <r_i_glide_emodel>  (190) 
-8.70283

>  <r_i_glide_energy>  (190) 
-20.4824

>  <r_i_glide_einternal>  (190) 
15.4503

>  <r_i_glide_intrahb_reward>  (190) 
-0

>  <i_i_glide_confnum>  (190) 
3

>  <i_i_glide_posenum>  (190) 
1

>  <r_i_glide_eff_state_penalty>  (190) 
0

>  <ligand_id>  (190) 
65

>  <original_smiles>  (190) 
C=C1C(C)CCC(C)C1C1CC(O)C23OC(C)(CC)C4C2OC143

>  <smiles>  (190) 
[H]OC1([H])C([H])([H])C([H])(C2([H])C(=C([H])[H])C([H])(C([H])([H])[H])C([H])([H])C([H])([H])C2([H])C([H])([H])[H])C23OC4([H])C2([H])C(C([H])([H])[H])(C([H])([H])C([H])([H])[H])OC143

$$$$
66:0:0
     RDKit          3D

 70 74  0  0  1  0  0  0  0  0999 V2000
    0.7131   -3.0803    5.5174 C   0  0  0  0  0  0  0  0  0  0  0  0
    2.1534   -3.6466    5.4857 C   0  0  0  0  0  0  0  0  0  0  0  0
    2.9784   -3.0211    6.6356 C   0  0  0  0  0  0  0  0  0  0  0  0
    1.9959   -5.1606    5.7516 C   0  0  0  0  0  0  0  0  0  0  0  0
    1.6682   -5.5287    6.8785 O   0  0  0  0  0  0  0  0  0  0  0  0
    2.1758   -6.1172    4.6578 C   0  0  0  0  0  0  0  0  0  0  0  0
    2.9176   -5.7955    3.5901 C   0  0  0  0  0  0  0  0  0  0  0  0
    3.6307   -4.4564    3.3950 C   0  0  2  0  0  0  0  0  0  0  0  0
    4.9770   -4.5461    4.1735 C   0  0  0  0  0  0  0  0  0  0  0  0
    2.8269   -3.3578    4.1201 C   0  0  0  0  0  0  0  0  0  0  0  0
    2.7610   -2.1538    3.5263 C   0  0  0  0  0  0  0  0  0  0  0  0
    2.3806   -0.7529    3.9495 C   0  0  0  0  0  0  0  0  0  0  0  0
    3.5845   -0.4126    3.0245 C   0  0  1  0  0  0  0  0  0  0  0  0
    4.8502   -0.2949    3.6462 O   0  0  0  0  0  0  0  0  0  0  0  0
    3.3030   -1.6997    2.2104 C   0  0  1  0  0  0  0  0  0  0  0  0
    4.3615   -2.6493    1.5958 C   0  0  2  0  0  0  0  0  0  0  0  0
    4.6484   -2.2138    0.0875 C   0  0  1  0  0  0  0  0  0  0  0  0
    4.8962   -0.6779    0.1242 C   0  0  0  0  0  0  0  0  0  0  0  0
    5.9555   -2.8370   -0.4977 C   0  0  0  0  0  0  0  0  0  0  0  0
    6.2023   -2.5197   -1.9776 C   0  0  0  0  0  0  0  0  0  0  0  0
    5.0159   -2.8717   -2.8843 C   0  0  1  0  0  0  0  0  0  0  0  0
    5.0092   -4.2545   -3.0362 O   0  0  0  0  0  0  0  0  0  0  0  0
    3.6474   -2.3328   -2.4020 C   0  0  0  0  0  0  0  0  0  0  0  0
    3.6068   -0.8329   -2.7922 C   0  0  0  0  0  0  0  0  0  0  0  0
    2.5017   -2.9487   -3.2562 C   0  0  0  0  0  0  0  0  0  0  0  0
    3.4231   -2.5603   -0.8434 C   0  0  1  0  0  0  0  0  0  0  0  0
    2.8497   -3.9676   -0.5184 C   0  0  0  0  0  0  0  0  0  0  0  0
    2.6414   -4.3335    0.9708 C   0  0  0  0  0  0  0  0  0  0  0  0
    3.9122   -4.1539    1.8409 C   0  0  2  0  0  0  0  0  0  0  0  0
    4.9761   -5.2010    1.3777 C   0  0  0  0  0  0  0  0  0  0  0  0
    0.1323   -3.4692    4.6794 H   0  0  0  0  0  0  0  0  0  0  0  0
    0.6730   -1.9942    5.4764 H   0  0  0  0  0  0  0  0  0  0  0  0
    0.1858   -3.3722    6.4261 H   0  0  0  0  0  0  0  0  0  0  0  0
    3.9600   -3.4843    6.7190 H   0  0  0  0  0  0  0  0  0  0  0  0
    2.4953   -3.1391    7.6066 H   0  0  0  0  0  0  0  0  0  0  0  0
    3.1477   -1.9572    6.4861 H   0  0  0  0  0  0  0  0  0  0  0  0
    1.7268   -7.0952    4.7640 H   0  0  0  0  0  0  0  0  0  0  0  0
    3.0362   -6.5395    2.8145 H   0  0  0  0  0  0  0  0  0  0  0  0
    4.8169   -4.8123    5.2179 H   0  0  0  0  0  0  0  0  0  0  0  0
    5.5081   -3.5915    4.1651 H   0  0  0  0  0  0  0  0  0  0  0  0
    5.6538   -5.3146    3.8018 H   0  0  0  0  0  0  0  0  0  0  0  0
    1.4539   -0.3418    3.5512 H   0  0  0  0  0  0  0  0  0  0  0  0
    2.5449   -0.4284    4.9734 H   0  0  0  0  0  0  0  0  0  0  0  0
    3.3824    0.4810    2.4348 H   0  0  0  0  0  0  0  0  0  0  0  0
    4.8633    0.5407    4.0839 H   0  0  0  0  0  0  0  0  0  0  0  0
    2.4947   -1.4666    1.5121 H   0  0  0  0  0  0  0  0  0  0  0  0
    5.3028   -2.5112    2.1304 H   0  0  0  0  0  0  0  0  0  0  0  0
    5.4369   -0.2881   -0.7263 H   0  0  0  0  0  0  0  0  0  0  0  0
    5.5034   -0.4004    0.9836 H   0  0  0  0  0  0  0  0  0  0  0  0
    3.9602   -0.1156    0.1685 H   0  0  0  0  0  0  0  0  0  0  0  0
    6.8166   -2.5288    0.0928 H   0  0  0  0  0  0  0  0  0  0  0  0
    5.9428   -3.9156   -0.4767 H   0  0  0  0  0  0  0  0  0  0  0  0
    6.4341   -1.4700   -2.1067 H   0  0  0  0  0  0  0  0  0  0  0  0
    7.0909   -3.0570   -2.3216 H   0  0  0  0  0  0  0  0  0  0  0  0
    5.1943   -2.4959   -3.8879 H   0  0  0  0  0  0  0  0  0  0  0  0
    4.1848   -4.6021   -2.7168 H   0  0  0  0  0  0  0  0  0  0  0  0
    2.8114   -0.3189   -2.2614 H   0  0  0  0  0  0  0  0  0  0  0  0
    3.3911   -0.6862   -3.8513 H   0  0  0  0  0  0  0  0  0  0  0  0
    4.5502   -0.3166   -2.6167 H   0  0  0  0  0  0  0  0  0  0  0  0
    1.5257   -2.5712   -2.9443 H   0  0  0  0  0  0  0  0  0  0  0  0
    2.4427   -4.0327   -3.1925 H   0  0  0  0  0  0  0  0  0  0  0  0
    2.6268   -2.7260   -4.3173 H   0  0  0  0  0  0  0  0  0  0  0  0
    2.6150   -1.8847   -0.5741 H   0  0  0  0  0  0  0  0  0  0  0  0
    1.8768   -4.0846   -0.9906 H   0  0  0  0  0  0  0  0  0  0  0  0
    3.4936   -4.7027   -0.9835 H   0  0  0  0  0  0  0  0  0  0  0  0
    1.8281   -3.7277    1.3729 H   0  0  0  0  0  0  0  0  0  0  0  0
    2.2852   -5.3618    1.0216 H   0  0  0  0  0  0  0  0  0  0  0  0
    4.9036   -5.4771    0.3313 H   0  0  0  0  0  0  0  0  0  0  0  0
    4.8891   -6.1588    1.8854 H   0  0  0  0  0  0  0  0  0  0  0  0
    5.9879   -4.8407    1.5694 H   0  0  0  0  0  0  0  0  0  0  0  0
  1  2  1  0
  1 31  1  0
  1 32  1  0
  1 33  1  0
  2 10  1  0
  2  3  1  0
  2  4  1  0
  3 34  1  0
  3 35  1  0
  3 36  1  0
  4  5  2  0
  4  6  1  0
  6  7  2  0
  6 37  1  0
  7  8  1  0
  7 38  1  0
  8 29  1  0
  8  9  1  1
  8 10  1  0
  9 39  1  0
  9 40  1  0
  9 41  1  0
 10 11  2  0
 11 15  1  0
 11 12  1  0
 12 13  1  0
 12 42  1  0
 12 43  1  0
 13 14  1  0
 13 15  1  0
 13 44  1  6
 14 45  1  0
 15 16  1  0
 15 46  1  6
 16 29  1  0
 16 17  1  0
 16 47  1  1
 17 26  1  0
 17 18  1  1
 17 19  1  0
 18 48  1  0
 18 49  1  0
 18 50  1  0
 19 20  1  0
 19 51  1  0
 19 52  1  0
 20 21  1  0
 20 53  1  0
 20 54  1  0
 21 22  1  0
 21 23  1  0
 21 55  1  6
 22 56  1  0
 23 24  1  0
 23 25  1  0
 23 26  1  0
 24 57  1  0
 24 58  1  0
 24 59  1  0
 25 60  1  0
 25 61  1  0
 25 62  1  0
 26 27  1  0
 26 63  1  1
 27 28  1  0
 27 64  1  0
 27 65  1  0
 28 29  1  0
 28 66  1  0
 28 67  1  0
 29 30  1  6
 30 68  1  0
 30 69  1  0
 30 70  1  0
M  END
>  <i_m_ct_stereo_status>  (191) 
1

>  <s_m_source_file>  (191) 
/var/tmp/pbs.5076255.sched01/tmprh8juyh8/78tr4t3sa2.sdf

>  <i_m_source_file_index>  (191) 
5

>  <i_lp_mmshare_version>  (191) 
48012

>  <i_f3d_flags>  (191) 
0

>  <s_epik_input>  (191) 
W0NIXTE9W0NIXUMoPU8pQyhbQ0gzXSkoW0NIM10pQyhbQ0BAXTEyW0NIM10pPUMzW0NAQEhdKFtDQEBIXShbQ0gyXTMpW09IXSlbQ0BASF00W0NAXTUoW0NIM10pW0NAQEhdKEMoW0NIM10pKFtDSDNdKVtDQEhdKFtPSF0pW0NIMl1bQ0gyXTUpW0NIMl1bQ0gyXVtDQF0yNFtDSDNd

>  <s_epik_cmdline>  (191) 
J2VwaWtfcHl0aG9uJywgJy1waHQnLCAnMi4wJywgJy1waCcsICc3LjAnLCAnLXRuJywgJzgnLCAnLW1hJywgJzIwMCcsICctaW1hZScsICc8aW5maWxlLm1hZT4nLCAnLW9tYWUnLCAnPG91dGZpbGUubWFlPic=

>  <r_lp_tautomer_probability>  (191) 
1

>  <r_epik_Ionization_Penalty>  (191) 
2.64785e-06

>  <r_epik_Ionization_Penalty_Charging>  (191) 
0

>  <r_epik_Ionization_Penalty_Neutral>  (191) 
2.64785e-06

>  <r_epik_State_Penalty>  (191) 
-0

>  <r_epik_Charging_Adjusted_Penalty>  (191) 
0

>  <i_epik_Tot_Q>  (191) 
0

>  <i_epik_Tot_abs_Q>  (191) 
0

>  <s_lp_Force_Field>  (191) 
OPLS3e

>  <r_lp_Energy>  (191) 
90.3831

>  <b_lp_Chiralities_Consistent>  (191) 
1

>  <s_lp_Variant>  (191) 
66:0-1

>  <s_i_glide_gridfile>  (191) 
pfpi4k_grid

>  <i_i_glide_lignum>  (191) 
5

>  <i_i_glide_rotatable_bonds>  (191) 
2

>  <r_i_docking_score>  (191) 
-3.34012

>  <r_i_glide_ligand_efficiency>  (191) 
-0.111337

>  <r_i_glide_ligand_efficiency_sa>  (191) 
-0.345951

>  <r_i_glide_ligand_efficiency_ln>  (191) 
-0.758913

>  <r_i_glide_gscore>  (191) 
-3.34012

>  <r_i_glide_lipo>  (191) 
-0.473264

>  <r_i_glide_hbond>  (191) 
-0.300288

>  <r_i_glide_metal>  (191) 
-0

>  <r_i_glide_rewards>  (191) 
-0.595877

>  <r_i_glide_evdw>  (191) 
-27.5124

>  <r_i_glide_ecoul>  (191) 
-3.96717

>  <r_i_glide_erotb>  (191) 
0

>  <r_i_glide_esite>  (191) 
0

>  <r_i_glide_emodel>  (191) 
-35.708

>  <r_i_glide_energy>  (191) 
-31.4796

>  <r_i_glide_einternal>  (191) 
2.60565

>  <r_i_glide_intrahb_reward>  (191) 
-0

>  <i_i_glide_confnum>  (191) 
1

>  <i_i_glide_posenum>  (191) 
1

>  <r_i_glide_eff_state_penalty>  (191) 
0

>  <ligand_id>  (191) 
66

>  <original_smiles>  (191) 
CC1(C)C(=O)C=CC2(C)C1=C1CC(O)C1C1C3(C)CCC(O)C(C)(C)C3CCC12C

>  <smiles>  (191) 
[H]OC1([H])C([H])([H])C2=C3C(C([H])([H])[H])(C([H])([H])[H])C(=O)C([H])=C([H])C3(C([H])([H])[H])C3(C([H])([H])[H])C([H])([H])C([H])([H])C4([H])C(C([H])([H])[H])(C([H])([H])[H])C([H])(O[H])C([H])([H])C([H])([H])C4(C([H])([H])[H])C3([H])C21[H]

$$$$
66:0:1
     RDKit          3D

 70 74  0  0  1  0  0  0  0  0999 V2000
    0.6975   -2.8533    5.4911 C   0  0  0  0  0  0  0  0  0  0  0  0
    2.1217   -3.4618    5.4828 C   0  0  0  0  0  0  0  0  0  0  0  0
    2.9600   -2.8360    6.6240 C   0  0  0  0  0  0  0  0  0  0  0  0
    1.9184   -4.9659    5.7775 C   0  0  0  0  0  0  0  0  0  0  0  0
    1.5745   -5.3001    6.9104 O   0  0  0  0  0  0  0  0  0  0  0  0
    2.0783   -5.9469    4.7054 C   0  0  0  0  0  0  0  0  0  0  0  0
    2.8379   -5.6673    3.6329 C   0  0  0  0  0  0  0  0  0  0  0  0
    3.5875   -4.3536    3.4212 C   0  0  2  0  0  0  0  0  0  0  0  0
    4.9254   -4.4676    4.2072 C   0  0  0  0  0  0  0  0  0  0  0  0
    2.8142   -3.2171    4.1153 C   0  0  0  0  0  0  0  0  0  0  0  0
    2.7881   -2.0269    3.4977 C   0  0  0  0  0  0  0  0  0  0  0  0
    2.4446   -0.6092    3.8875 C   0  0  0  0  0  0  0  0  0  0  0  0
    3.6584   -0.3177    2.9617 C   0  0  1  0  0  0  0  0  0  0  0  0
    4.9190   -0.2003    3.5916 O   0  0  0  0  0  0  0  0  0  0  0  0
    3.3538   -1.6097    2.1743 C   0  0  1  0  0  0  0  0  0  0  0  0
    4.3867   -2.6096    1.5848 C   0  0  2  0  0  0  0  0  0  0  0  0
    4.6909   -2.2092    0.0698 C   0  0  1  0  0  0  0  0  0  0  0  0
    4.9808   -0.6787    0.0817 C   0  0  0  0  0  0  0  0  0  0  0  0
    5.9779   -2.8797   -0.4949 C   0  0  0  0  0  0  0  0  0  0  0  0
    6.2452   -2.6011   -1.9838 C   0  0  0  0  0  0  0  0  0  0  0  0
    5.0498   -2.9448   -2.8856 C   0  0  1  0  0  0  0  0  0  0  0  0
    5.0072   -4.3346   -2.9675 O   0  0  0  0  0  0  0  0  0  0  0  0
    3.7005   -2.3497   -2.4213 C   0  0  0  0  0  0  0  0  0  0  0  0
    3.7050   -0.8566   -2.8380 C   0  0  0  0  0  0  0  0  0  0  0  0
    2.5438   -2.9523   -3.2690 C   0  0  0  0  0  0  0  0  0  0  0  0
    3.4572   -2.5428   -0.8606 C   0  0  1  0  0  0  0  0  0  0  0  0
    2.8464   -3.9264   -0.5124 C   0  0  0  0  0  0  0  0  0  0  0  0
    2.6212   -4.2536    0.9829 C   0  0  0  0  0  0  0  0  0  0  0  0
    3.8893   -4.0955    1.8613 C   0  0  2  0  0  0  0  0  0  0  0  0
    4.9258   -5.1793    1.4251 C   0  0  0  0  0  0  0  0  0  0  0  0
    0.1121   -3.2412    4.6590 H   0  0  0  0  0  0  0  0  0  0  0  0
    0.6904   -1.7665    5.4286 H   0  0  0  0  0  0  0  0  0  0  0  0
    0.1582   -3.1095    6.4027 H   0  0  0  0  0  0  0  0  0  0  0  0
    3.9252   -3.3243    6.7244 H   0  0  0  0  0  0  0  0  0  0  0  0
    2.4659   -2.9189    7.5929 H   0  0  0  0  0  0  0  0  0  0  0  0
    3.1578   -1.7788    6.4551 H   0  0  0  0  0  0  0  0  0  0  0  0
    1.6005   -6.9081    4.8269 H   0  0  0  0  0  0  0  0  0  0  0  0
    2.9371   -6.4333    2.8771 H   0  0  0  0  0  0  0  0  0  0  0  0
    4.7532   -4.7078    5.2556 H   0  0  0  0  0  0  0  0  0  0  0  0
    5.4880   -3.5313    4.1829 H   0  0  0  0  0  0  0  0  0  0  0  0
    5.5841   -5.2640    3.8567 H   0  0  0  0  0  0  0  0  0  0  0  0
    1.5320   -0.1748    3.4750 H   0  0  0  0  0  0  0  0  0  0  0  0
    2.6107   -0.2593    4.9107 H   0  0  0  0  0  0  0  0  0  0  0  0
    3.4774    0.5659    2.3462 H   0  0  0  0  0  0  0  0  0  0  0  0
    4.9790   -0.9224    4.2099 H   0  0  0  0  0  0  0  0  0  0  0  0
    2.5553   -1.3772    1.4690 H   0  0  0  0  0  0  0  0  0  0  0  0
    5.3269   -2.4850    2.1225 H   0  0  0  0  0  0  0  0  0  0  0  0
    5.5381   -0.3193   -0.7723 H   0  0  0  0  0  0  0  0  0  0  0  0
    5.5920   -0.4009    0.9395 H   0  0  0  0  0  0  0  0  0  0  0  0
    4.0635   -0.0894    0.1090 H   0  0  0  0  0  0  0  0  0  0  0  0
    6.8497   -2.5883    0.0957 H   0  0  0  0  0  0  0  0  0  0  0  0
    5.9387   -3.9564   -0.4499 H   0  0  0  0  0  0  0  0  0  0  0  0
    6.5146   -1.5639   -2.1286 H   0  0  0  0  0  0  0  0  0  0  0  0
    7.1215   -3.1689   -2.3131 H   0  0  0  0  0  0  0  0  0  0  0  0
    5.2461   -2.6005   -3.8986 H   0  0  0  0  0  0  0  0  0  0  0  0
    4.1157   -4.6571   -2.9289 H   0  0  0  0  0  0  0  0  0  0  0  0
    2.9237   -0.2949   -2.3285 H   0  0  0  0  0  0  0  0  0  0  0  0
    3.5022   -0.7282   -3.9061 H   0  0  0  0  0  0  0  0  0  0  0  0
    4.6636   -0.3661   -2.6697 H   0  0  0  0  0  0  0  0  0  0  0  0
    1.5787   -2.5363   -2.9739 H   0  0  0  0  0  0  0  0  0  0  0  0
    2.4501   -4.0306   -3.1811 H   0  0  0  0  0  0  0  0  0  0  0  0
    2.6831   -2.7573   -4.3343 H   0  0  0  0  0  0  0  0  0  0  0  0
    2.6551   -1.8508   -0.6109 H   0  0  0  0  0  0  0  0  0  0  0  0
    1.8737   -4.0236   -0.9845 H   0  0  0  0  0  0  0  0  0  0  0  0
    3.4683   -4.6874   -0.9614 H   0  0  0  0  0  0  0  0  0  0  0  0
    1.8259   -3.6164    1.3683 H   0  0  0  0  0  0  0  0  0  0  0  0
    2.2355   -5.2717    1.0542 H   0  0  0  0  0  0  0  0  0  0  0  0
    4.8517   -5.4754    0.3827 H   0  0  0  0  0  0  0  0  0  0  0  0
    4.8084   -6.1239    1.9505 H   0  0  0  0  0  0  0  0  0  0  0  0
    5.9488   -4.8467    1.6151 H   0  0  0  0  0  0  0  0  0  0  0  0
  1  2  1  0
  1 31  1  0
  1 32  1  0
  1 33  1  0
  2 10  1  0
  2  3  1  0
  2  4  1  0
  3 34  1  0
  3 35  1  0
  3 36  1  0
  4  5  2  0
  4  6  1  0
  6  7  2  0
  6 37  1  0
  7  8  1  0
  7 38  1  0
  8 29  1  0
  8  9  1  1
  8 10  1  0
  9 39  1  0
  9 40  1  0
  9 41  1  0
 10 11  2  0
 11 15  1  0
 11 12  1  0
 12 13  1  0
 12 42  1  0
 12 43  1  0
 13 14  1  0
 13 15  1  0
 13 44  1  6
 14 45  1  0
 15 16  1  0
 15 46  1  6
 16 29  1  0
 16 17  1  0
 16 47  1  1
 17 26  1  0
 17 18  1  1
 17 19  1  0
 18 48  1  0
 18 49  1  0
 18 50  1  0
 19 20  1  0
 19 51  1  0
 19 52  1  0
 20 21  1  0
 20 53  1  0
 20 54  1  0
 21 22  1  0
 21 23  1  0
 21 55  1  6
 22 56  1  0
 23 24  1  0
 23 25  1  0
 23 26  1  0
 24 57  1  0
 24 58  1  0
 24 59  1  0
 25 60  1  0
 25 61  1  0
 25 62  1  0
 26 27  1  0
 26 63  1  1
 27 28  1  0
 27 64  1  0
 27 65  1  0
 28 29  1  0
 28 66  1  0
 28 67  1  0
 29 30  1  6
 30 68  1  0
 30 69  1  0
 30 70  1  0
M  END
>  <i_m_ct_stereo_status>  (192) 
1

>  <s_m_source_file>  (192) 
/var/tmp/pbs.5076255.sched01/tmprh8juyh8/78tr4t3sa2.sdf

>  <i_m_source_file_index>  (192) 
5

>  <i_lp_mmshare_version>  (192) 
48012

>  <i_f3d_flags>  (192) 
0

>  <s_epik_input>  (192) 
W0NIXTE9W0NIXUMoPU8pQyhbQ0gzXSkoW0NIM10pQyhbQ0BAXTEyW0NIM10pPUMzW0NAQEhdKFtDQEBIXShbQ0gyXTMpW09IXSlbQ0BASF00W0NAXTUoW0NIM10pW0NAQEhdKEMoW0NIM10pKFtDSDNdKVtDQEhdKFtPSF0pW0NIMl1bQ0gyXTUpW0NIMl1bQ0gyXVtDQF0yNFtDSDNd

>  <s_epik_cmdline>  (192) 
J2VwaWtfcHl0aG9uJywgJy1waHQnLCAnMi4wJywgJy1waCcsICc3LjAnLCAnLXRuJywgJzgnLCAnLW1hJywgJzIwMCcsICctaW1hZScsICc8aW5maWxlLm1hZT4nLCAnLW9tYWUnLCAnPG91dGZpbGUubWFlPic=

>  <r_lp_tautomer_probability>  (192) 
1

>  <r_epik_Ionization_Penalty>  (192) 
2.64785e-06

>  <r_epik_Ionization_Penalty_Charging>  (192) 
0

>  <r_epik_Ionization_Penalty_Neutral>  (192) 
2.64785e-06

>  <r_epik_State_Penalty>  (192) 
-0

>  <r_epik_Charging_Adjusted_Penalty>  (192) 
0

>  <i_epik_Tot_Q>  (192) 
0

>  <i_epik_Tot_abs_Q>  (192) 
0

>  <s_lp_Force_Field>  (192) 
OPLS3e

>  <r_lp_Energy>  (192) 
90.3831

>  <b_lp_Chiralities_Consistent>  (192) 
1

>  <s_lp_Variant>  (192) 
66:0-1

>  <s_i_glide_gridfile>  (192) 
pfpi4k_grid

>  <i_i_glide_lignum>  (192) 
5

>  <i_i_glide_rotatable_bonds>  (192) 
2

>  <r_i_docking_score>  (192) 
-3.27338

>  <r_i_glide_ligand_efficiency>  (192) 
-0.109113

>  <r_i_glide_ligand_efficiency_sa>  (192) 
-0.339039

>  <r_i_glide_ligand_efficiency_ln>  (192) 
-0.743748

>  <r_i_glide_gscore>  (192) 
-3.27338

>  <r_i_glide_lipo>  (192) 
-0.491477

>  <r_i_glide_hbond>  (192) 
-0.302843

>  <r_i_glide_metal>  (192) 
-0

>  <r_i_glide_rewards>  (192) 
-0.595877

>  <r_i_glide_evdw>  (192) 
-26.8144

>  <r_i_glide_ecoul>  (192) 
-3.61644

>  <r_i_glide_erotb>  (192) 
0

>  <r_i_glide_esite>  (192) 
0

>  <r_i_glide_emodel>  (192) 
-34.9637

>  <r_i_glide_energy>  (192) 
-30.4308

>  <r_i_glide_einternal>  (192) 
1.42261

>  <r_i_glide_intrahb_reward>  (192) 
-0

>  <i_i_glide_confnum>  (192) 
1

>  <i_i_glide_posenum>  (192) 
11

>  <r_i_glide_eff_state_penalty>  (192) 
0

>  <ligand_id>  (192) 
66

>  <original_smiles>  (192) 
CC1(C)C(=O)C=CC2(C)C1=C1CC(O)C1C1C3(C)CCC(O)C(C)(C)C3CCC12C

>  <smiles>  (192) 
[H]OC1([H])C([H])([H])C2=C3C(C([H])([H])[H])(C([H])([H])[H])C(=O)C([H])=C([H])C3(C([H])([H])[H])C3(C([H])([H])[H])C([H])([H])C([H])([H])C4([H])C(C([H])([H])[H])(C([H])([H])[H])C([H])(O[H])C([H])([H])C([H])([H])C4(C([H])([H])[H])C3([H])C21[H]

$$$$
66:0:2
     RDKit          3D

 70 74  0  0  1  0  0  0  0  0999 V2000
    1.0464   -2.1543    5.5395 C   0  0  0  0  0  0  0  0  0  0  0  0
    2.3657   -2.9683    5.5272 C   0  0  0  0  0  0  0  0  0  0  0  0
    3.2955   -2.4623    6.6557 C   0  0  0  0  0  0  0  0  0  0  0  0
    1.9424   -4.4201    5.8357 C   0  0  0  0  0  0  0  0  0  0  0  0
    1.5601   -4.6929    6.9744 O   0  0  0  0  0  0  0  0  0  0  0  0
    1.9429   -5.4287    4.7756 C   0  0  0  0  0  0  0  0  0  0  0  0
    2.7268   -5.2702    3.6952 C   0  0  0  0  0  0  0  0  0  0  0  0
    3.6642   -4.0885    3.4620 C   0  0  2  0  0  0  0  0  0  0  0  0
    4.9779   -4.3882    4.2405 C   0  0  0  0  0  0  0  0  0  0  0  0
    3.0732   -2.8438    4.1551 C   0  0  0  0  0  0  0  0  0  0  0  0
    3.2136   -1.6695    3.5206 C   0  0  0  0  0  0  0  0  0  0  0  0
    3.0910   -0.2129    3.9089 C   0  0  0  0  0  0  0  0  0  0  0  0
    4.3212   -0.1245    2.9684 C   0  0  1  0  0  0  0  0  0  0  0  0
    5.5996   -0.2024    3.5755 O   0  0  0  0  0  0  0  0  0  0  0  0
    3.8188   -1.3606    2.1946 C   0  0  1  0  0  0  0  0  0  0  0  0
    4.6878   -2.4953    1.6026 C   0  0  2  0  0  0  0  0  0  0  0  0
    5.0377   -2.1575    0.0833 C   0  0  1  0  0  0  0  0  0  0  0  0
    5.5503   -0.6888    0.0876 C   0  0  0  0  0  0  0  0  0  0  0  0
    6.2173   -3.0116   -0.4829 C   0  0  0  0  0  0  0  0  0  0  0  0
    6.5091   -2.7972   -1.9736 C   0  0  0  0  0  0  0  0  0  0  0  0
    5.2599   -2.9686   -2.8584 C   0  0  1  0  0  0  0  0  0  0  0  0
    5.0102   -4.3277   -2.9670 O   0  0  0  0  0  0  0  0  0  0  0  0
    4.0175   -2.1707   -2.3990 C   0  0  0  0  0  0  0  0  0  0  0  0
    4.2471   -0.7026   -2.8421 C   0  0  0  0  0  0  0  0  0  0  0  0
    2.7812   -2.6189   -3.2327 C   0  0  0  0  0  0  0  0  0  0  0  0
    3.7613   -2.3129   -0.8375 C   0  0  1  0  0  0  0  0  0  0  0  0
    2.9592   -3.6009   -0.4756 C   0  0  0  0  0  0  0  0  0  0  0  0
    2.6988   -3.8675    1.0265 C   0  0  0  0  0  0  0  0  0  0  0  0
    3.9822   -3.8845    1.8953 C   0  0  2  0  0  0  0  0  0  0  0  0
    4.8455   -5.1122    1.4637 C   0  0  0  0  0  0  0  0  0  0  0  0
    0.4029   -2.4604    4.7146 H   0  0  0  0  0  0  0  0  0  0  0  0
    1.2003   -1.0822    5.4612 H   0  0  0  0  0  0  0  0  0  0  0  0
    0.4804   -2.3186    6.4586 H   0  0  0  0  0  0  0  0  0  0  0  0
    4.1799   -3.0889    6.7548 H   0  0  0  0  0  0  0  0  0  0  0  0
    2.8051   -2.4632    7.6319 H   0  0  0  0  0  0  0  0  0  0  0  0
    3.6520   -1.4514    6.4713 H   0  0  0  0  0  0  0  0  0  0  0  0
    1.3286   -6.3045    4.9068 H   0  0  0  0  0  0  0  0  0  0  0  0
    2.7056   -6.0461    2.9435 H   0  0  0  0  0  0  0  0  0  0  0  0
    4.7824   -4.5903    5.2905 H   0  0  0  0  0  0  0  0  0  0  0  0
    5.6680   -3.5463    4.2058 H   0  0  0  0  0  0  0  0  0  0  0  0
    5.5049   -5.2744    3.8926 H   0  0  0  0  0  0  0  0  0  0  0  0
    2.2552    0.3511    3.4942 H   0  0  0  0  0  0  0  0  0  0  0  0
    3.3284    0.1181    4.9162 H   0  0  0  0  0  0  0  0  0  0  0  0
    4.2476    0.7717    2.3531 H   0  0  0  0  0  0  0  0  0  0  0  0
    6.2386   -0.2490    2.8830 H   0  0  0  0  0  0  0  0  0  0  0  0
    3.0605   -1.0099    1.4917 H   0  0  0  0  0  0  0  0  0  0  0  0
    5.6409   -2.5081    2.1355 H   0  0  0  0  0  0  0  0  0  0  0  0
    6.1503   -0.4321   -0.7698 H   0  0  0  0  0  0  0  0  0  0  0  0
    6.2076   -0.4912    0.9318 H   0  0  0  0  0  0  0  0  0  0  0  0
    4.7336    0.0364    0.1092 H   0  0  0  0  0  0  0  0  0  0  0  0
    7.1221   -2.8499    0.0986 H   0  0  0  0  0  0  0  0  0  0  0  0
    6.0133   -4.0693   -0.4304 H   0  0  0  0  0  0  0  0  0  0  0  0
    6.9465   -1.8300   -2.1497 H   0  0  0  0  0  0  0  0  0  0  0  0
    7.2884   -3.4857   -2.3078 H   0  0  0  0  0  0  0  0  0  0  0  0
    5.4775   -2.6729   -3.8790 H   0  0  0  0  0  0  0  0  0  0  0  0
    4.1569   -4.5273   -2.6154 H   0  0  0  0  0  0  0  0  0  0  0  0
    3.6002   -0.0136   -2.3303 H   0  0  0  0  0  0  0  0  0  0  0  0
    4.0727   -0.5599   -3.9131 H   0  0  0  0  0  0  0  0  0  0  0  0
    5.2732   -0.3810   -2.6730 H   0  0  0  0  0  0  0  0  0  0  0  0
    1.8947   -2.0633   -2.9297 H   0  0  0  0  0  0  0  0  0  0  0  0
    2.5417   -3.6781   -3.1258 H   0  0  0  0  0  0  0  0  0  0  0  0
    2.9316   -2.4529   -4.2987 H   0  0  0  0  0  0  0  0  0  0  0  0
    3.0723   -1.5009   -0.5996 H   0  0  0  0  0  0  0  0  0  0  0  0
    1.9744   -3.5414   -0.9341 H   0  0  0  0  0  0  0  0  0  0  0  0
    3.4237   -4.4727   -0.9226 H   0  0  0  0  0  0  0  0  0  0  0  0
    2.0067   -3.1100    1.3953 H   0  0  0  0  0  0  0  0  0  0  0  0
    2.1673   -4.8114    1.1132 H   0  0  0  0  0  0  0  0  0  0  0  0
    4.7193   -5.4024    0.4263 H   0  0  0  0  0  0  0  0  0  0  0  0
    4.5941   -6.0237    2.0025 H   0  0  0  0  0  0  0  0  0  0  0  0
    5.9040   -4.9323    1.6435 H   0  0  0  0  0  0  0  0  0  0  0  0
  1  2  1  0
  1 31  1  0
  1 32  1  0
  1 33  1  0
  2 10  1  0
  2  3  1  0
  2  4  1  0
  3 34  1  0
  3 35  1  0
  3 36  1  0
  4  5  2  0
  4  6  1  0
  6  7  2  0
  6 37  1  0
  7  8  1  0
  7 38  1  0
  8 29  1  0
  8  9  1  1
  8 10  1  0
  9 39  1  0
  9 40  1  0
  9 41  1  0
 10 11  2  0
 11 15  1  0
 11 12  1  0
 12 13  1  0
 12 42  1  0
 12 43  1  0
 13 14  1  0
 13 15  1  0
 13 44  1  6
 14 45  1  0
 15 16  1  0
 15 46  1  6
 16 29  1  0
 16 17  1  0
 16 47  1  1
 17 26  1  0
 17 18  1  1
 17 19  1  0
 18 48  1  0
 18 49  1  0
 18 50  1  0
 19 20  1  0
 19 51  1  0
 19 52  1  0
 20 21  1  0
 20 53  1  0
 20 54  1  0
 21 22  1  0
 21 23  1  0
 21 55  1  6
 22 56  1  0
 23 24  1  0
 23 25  1  0
 23 26  1  0
 24 57  1  0
 24 58  1  0
 24 59  1  0
 25 60  1  0
 25 61  1  0
 25 62  1  0
 26 27  1  0
 26 63  1  1
 27 28  1  0
 27 64  1  0
 27 65  1  0
 28 29  1  0
 28 66  1  0
 28 67  1  0
 29 30  1  6
 30 68  1  0
 30 69  1  0
 30 70  1  0
M  END
>  <i_m_ct_stereo_status>  (193) 
1

>  <s_m_source_file>  (193) 
/var/tmp/pbs.5076255.sched01/tmprh8juyh8/78tr4t3sa2.sdf

>  <i_m_source_file_index>  (193) 
5

>  <i_lp_mmshare_version>  (193) 
48012

>  <i_f3d_flags>  (193) 
0

>  <s_epik_input>  (193) 
W0NIXTE9W0NIXUMoPU8pQyhbQ0gzXSkoW0NIM10pQyhbQ0BAXTEyW0NIM10pPUMzW0NAQEhdKFtDQEBIXShbQ0gyXTMpW09IXSlbQ0BASF00W0NAXTUoW0NIM10pW0NAQEhdKEMoW0NIM10pKFtDSDNdKVtDQEhdKFtPSF0pW0NIMl1bQ0gyXTUpW0NIMl1bQ0gyXVtDQF0yNFtDSDNd

>  <s_epik_cmdline>  (193) 
J2VwaWtfcHl0aG9uJywgJy1waHQnLCAnMi4wJywgJy1waCcsICc3LjAnLCAnLXRuJywgJzgnLCAnLW1hJywgJzIwMCcsICctaW1hZScsICc8aW5maWxlLm1hZT4nLCAnLW9tYWUnLCAnPG91dGZpbGUubWFlPic=

>  <r_lp_tautomer_probability>  (193) 
1

>  <r_epik_Ionization_Penalty>  (193) 
2.64785e-06

>  <r_epik_Ionization_Penalty_Charging>  (193) 
0

>  <r_epik_Ionization_Penalty_Neutral>  (193) 
2.64785e-06

>  <r_epik_State_Penalty>  (193) 
-0

>  <r_epik_Charging_Adjusted_Penalty>  (193) 
0

>  <i_epik_Tot_Q>  (193) 
0

>  <i_epik_Tot_abs_Q>  (193) 
0

>  <s_lp_Force_Field>  (193) 
OPLS3e

>  <r_lp_Energy>  (193) 
90.3831

>  <b_lp_Chiralities_Consistent>  (193) 
1

>  <s_lp_Variant>  (193) 
66:0-1

>  <s_i_glide_gridfile>  (193) 
pfpi4k_grid

>  <i_i_glide_lignum>  (193) 
5

>  <i_i_glide_rotatable_bonds>  (193) 
2

>  <r_i_docking_score>  (193) 
-3.2338

>  <r_i_glide_ligand_efficiency>  (193) 
-0.107793

>  <r_i_glide_ligand_efficiency_sa>  (193) 
-0.334939

>  <r_i_glide_ligand_efficiency_ln>  (193) 
-0.734755

>  <r_i_glide_gscore>  (193) 
-3.2338

>  <r_i_glide_lipo>  (193) 
-0.598932

>  <r_i_glide_hbond>  (193) 
-0.221573

>  <r_i_glide_metal>  (193) 
-0

>  <r_i_glide_rewards>  (193) 
-0.595877

>  <r_i_glide_evdw>  (193) 
-26.4357

>  <r_i_glide_ecoul>  (193) 
-3.30424

>  <r_i_glide_erotb>  (193) 
0

>  <r_i_glide_esite>  (193) 
0

>  <r_i_glide_emodel>  (193) 
-33.7434

>  <r_i_glide_energy>  (193) 
-29.74

>  <r_i_glide_einternal>  (193) 
2.56229

>  <r_i_glide_intrahb_reward>  (193) 
-0

>  <i_i_glide_confnum>  (193) 
2

>  <i_i_glide_posenum>  (193) 
16

>  <r_i_glide_eff_state_penalty>  (193) 
0

>  <ligand_id>  (193) 
66

>  <original_smiles>  (193) 
CC1(C)C(=O)C=CC2(C)C1=C1CC(O)C1C1C3(C)CCC(O)C(C)(C)C3CCC12C

>  <smiles>  (193) 
[H]OC1([H])C([H])([H])C2=C3C(C([H])([H])[H])(C([H])([H])[H])C(=O)C([H])=C([H])C3(C([H])([H])[H])C3(C([H])([H])[H])C([H])([H])C([H])([H])C4([H])C(C([H])([H])[H])(C([H])([H])[H])C([H])(O[H])C([H])([H])C([H])([H])C4(C([H])([H])[H])C3([H])C21[H]

$$$$
67:0:0
     RDKit          3D

 71 76  0  0  1  0  0  0  0  0999 V2000
    2.4530   -9.0963    3.1171 C   0  0  0  0  0  0  0  0  0  0  0  0
    3.9472   -8.8634    3.3987 C   0  0  2  0  0  0  0  0  0  0  0  0
    4.2643   -7.9751    4.6336 C   0  0  0  0  0  0  0  0  0  0  0  0
    3.6816   -6.5084    4.7230 C   0  0  1  0  0  0  0  0  0  0  0  0
    3.3518   -6.2670    6.2153 C   0  0  0  0  0  0  0  0  0  0  0  0
    4.4835   -5.3102    3.9350 C   0  0  1  0  0  0  0  0  0  0  0  0
    4.5629   -4.0959    4.9575 C   0  0  0  0  0  0  0  0  0  0  0  0
    6.0535   -5.5781    3.9526 C   0  0  0  0  0  0  0  0  0  0  0  0
    6.6589   -6.0741    2.6485 C   0  0  1  0  0  0  0  0  0  0  0  0
    7.5461   -7.3269    2.8174 C   0  0  0  0  0  0  0  0  0  0  0  0
    5.5504   -6.1176    1.6333 C   0  0  1  0  0  0  0  0  0  0  0  0
    4.6860   -7.3032    1.5794 C   0  0  0  0  0  0  0  0  0  0  0  0
    4.7094   -8.5258    2.2164 N   0  0  0  0  0  0  0  0  0  0  0  0
    4.0661   -6.3173    2.1892 C   0  0  0  0  0  0  0  0  0  0  0  0
    3.8752   -4.8427    2.3846 C   0  0  2  0  0  0  0  0  0  0  0  0
    2.7845   -3.8540    2.7861 C   0  0  0  0  0  0  0  0  0  0  0  0
    3.4810   -2.5486    2.2433 C   0  0  0  0  0  0  0  0  0  0  0  0
    4.1086   -2.6794    0.7803 C   0  0  2  0  0  0  0  0  0  0  0  0
    4.1017   -1.2278    0.2218 C   0  0  0  0  0  0  0  0  0  0  0  0
    3.0130   -3.5390    0.1397 C   0  0  1  0  0  0  0  0  0  0  0  0
    2.7254   -3.3178   -1.3818 C   0  0  0  0  0  0  0  0  0  0  0  0
    3.2967   -4.9768    0.7382 C   0  0  2  0  0  0  0  0  0  0  0  0
    1.9944   -5.8320    0.5089 C   0  0  0  0  0  0  0  0  0  0  0  0
    4.3838   -5.4188   -0.3004 C   0  0  0  0  0  0  0  0  0  0  0  0
    5.6210   -5.0733    0.4450 C   0  0  1  0  0  0  0  0  0  0  0  0
    5.5747   -3.4262    0.5861 C   0  0  0  0  0  0  0  0  0  0  0  0
    6.2575   -2.9262   -0.7299 C   0  0  0  0  0  0  0  0  0  0  0  0
    6.5150   -2.9142    1.6734 C   0  0  0  0  0  0  0  0  0  0  0  0
    1.9412   -9.4389    4.0157 H   0  0  0  0  0  0  0  0  0  0  0  0
    2.2837   -9.8632    2.3596 H   0  0  0  0  0  0  0  0  0  0  0  0
    1.9540   -8.1901    2.7871 H   0  0  0  0  0  0  0  0  0  0  0  0
    4.3309   -9.8499    3.6417 H   0  0  0  0  0  0  0  0  0  0  0  0
    3.8540   -8.5606    5.4636 H   0  0  0  0  0  0  0  0  0  0  0  0
    5.3361   -8.0054    4.8133 H   0  0  0  0  0  0  0  0  0  0  0  0
    2.6852   -6.5372    4.2952 H   0  0  0  0  0  0  0  0  0  0  0  0
    4.2500   -6.1925    6.8287 H   0  0  0  0  0  0  0  0  0  0  0  0
    2.7601   -7.0922    6.6156 H   0  0  0  0  0  0  0  0  0  0  0  0
    2.7301   -5.3863    6.3683 H   0  0  0  0  0  0  0  0  0  0  0  0
    5.0482   -3.2131    4.5406 H   0  0  0  0  0  0  0  0  0  0  0  0
    5.1614   -4.3433    5.8374 H   0  0  0  0  0  0  0  0  0  0  0  0
    3.6334   -3.7435    5.3929 H   0  0  0  0  0  0  0  0  0  0  0  0
    6.6135   -4.6752    4.1692 H   0  0  0  0  0  0  0  0  0  0  0  0
    6.3569   -6.1952    4.7954 H   0  0  0  0  0  0  0  0  0  0  0  0
    7.3651   -5.3342    2.3054 H   0  0  0  0  0  0  0  0  0  0  0  0
    7.0234   -8.1629    3.2653 H   0  0  0  0  0  0  0  0  0  0  0  0
    8.3917   -7.1190    3.4746 H   0  0  0  0  0  0  0  0  0  0  0  0
    7.9747   -7.6562    1.8748 H   0  0  0  0  0  0  0  0  0  0  0  0
    1.8153   -4.0284    2.3471 H   0  0  0  0  0  0  0  0  0  0  0  0
    2.4852   -3.7787    3.8150 H   0  0  0  0  0  0  0  0  0  0  0  0
    2.7076   -1.7782    2.2416 H   0  0  0  0  0  0  0  0  0  0  0  0
    4.2252   -2.1481    2.9262 H   0  0  0  0  0  0  0  0  0  0  0  0
    4.3126   -1.1712   -0.8447 H   0  0  0  0  0  0  0  0  0  0  0  0
    4.8221   -0.5943    0.7366 H   0  0  0  0  0  0  0  0  0  0  0  0
    3.1244   -0.7596    0.3444 H   0  0  0  0  0  0  0  0  0  0  0  0
    2.0524   -3.1786    0.4956 H   0  0  0  0  0  0  0  0  0  0  0  0
    3.5990   -3.2880   -2.0282 H   0  0  0  0  0  0  0  0  0  0  0  0
    2.2424   -2.3563   -1.5402 H   0  0  0  0  0  0  0  0  0  0  0  0
    2.0384   -4.0626   -1.7797 H   0  0  0  0  0  0  0  0  0  0  0  0
    1.7906   -5.9102   -0.5580 H   0  0  0  0  0  0  0  0  0  0  0  0
    1.1210   -5.3951    0.9725 H   0  0  0  0  0  0  0  0  0  0  0  0
    2.0321   -6.8499    0.8935 H   0  0  0  0  0  0  0  0  0  0  0  0
    4.3024   -6.4527   -0.6229 H   0  0  0  0  0  0  0  0  0  0  0  0
    4.4170   -4.9635   -1.2750 H   0  0  0  0  0  0  0  0  0  0  0  0
    6.4881   -5.3888   -0.1217 H   0  0  0  0  0  0  0  0  0  0  0  0
    7.2425   -3.3721   -0.8774 H   0  0  0  0  0  0  0  0  0  0  0  0
    6.4288   -1.8513   -0.7242 H   0  0  0  0  0  0  0  0  0  0  0  0
    5.6875   -3.1539   -1.6251 H   0  0  0  0  0  0  0  0  0  0  0  0
    7.5219   -3.3052    1.5199 H   0  0  0  0  0  0  0  0  0  0  0  0
    6.1665   -3.2103    2.6521 H   0  0  0  0  0  0  0  0  0  0  0  0
    6.5843   -1.8229    1.6630 H   0  0  0  0  0  0  0  0  0  0  0  0
    4.6843   -9.3122    1.5822 H   0  0  0  0  0  0  0  0  0  0  0  0
  1  2  1  0
  1 29  1  0
  1 30  1  0
  1 31  1  0
  2 13  1  0
  2  3  1  0
  2 32  1  1
  3  4  1  0
  3 33  1  0
  3 34  1  0
  4  5  1  0
  4  6  1  0
  4 35  1  6
  5 36  1  0
  5 37  1  0
  5 38  1  0
  6 15  1  0
  6  7  1  1
  6  8  1  0
  7 39  1  0
  7 40  1  0
  7 41  1  0
  8  9  1  0
  8 42  1  0
  8 43  1  0
  9 10  1  0
  9 11  1  0
  9 44  1  6
 10 45  1  0
 10 46  1  0
 10 47  1  0
 11 14  1  0
 11 25  1  0
 11 12  1  6
 12 13  1  0
 12 14  2  0
 13 71  1  0
 14 15  1  0
 15 22  1  0
 15 16  1  6
 16 17  1  0
 16 48  1  0
 16 49  1  0
 17 18  1  0
 17 50  1  0
 17 51  1  0
 18 26  1  0
 18 19  1  6
 18 20  1  0
 19 52  1  0
 19 53  1  0
 19 54  1  0
 20 21  1  0
 20 22  1  0
 20 55  1  1
 21 56  1  0
 21 57  1  0
 21 58  1  0
 22 23  1  1
 22 24  1  0
 23 59  1  0
 23 60  1  0
 23 61  1  0
 24 25  1  0
 24 62  1  0
 24 63  1  0
 25 26  1  0
 25 64  1  6
 26 27  1  0
 26 28  1  0
 27 65  1  0
 27 66  1  0
 27 67  1  0
 28 68  1  0
 28 69  1  0
 28 70  1  0
M  END
>  <i_m_ct_stereo_status>  (194) 
1

>  <s_m_source_file>  (194) 
/var/tmp/pbs.5076255.sched01/tmprh8juyh8/78tr4t3sa2.sdf

>  <i_m_source_file_index>  (194) 
6

>  <i_lp_mmshare_version>  (194) 
48012

>  <i_f3d_flags>  (194) 
0

>  <s_epik_input>  (194) 
W0NIM11bQ0BASF0oL04xKVtDSDJdW0NAQEhdKFtDSDNdKVtDQEBdKFtDSDNdKShbQ0gyXVtDQEhdMltDSDNdKUMzKFtDSF00Qz0xXEMyNDUpW0NAQF02KFtDSDNdKVtDQEhdKFtDSDNdKVtDQEBdKFtDSDNdKShbQ0gyXVtDSDJdMylDKFtDSDNdKShbQ0gzXSlbQ0BASF01W0NIMl02

>  <s_epik_cmdline>  (194) 
J2VwaWtfcHl0aG9uJywgJy1waHQnLCAnMi4wJywgJy1waCcsICc3LjAnLCAnLXRuJywgJzgnLCAnLW1hJywgJzIwMCcsICctaW1hZScsICc8aW5maWxlLm1hZT4nLCAnLW9tYWUnLCAnPG91dGZpbGUubWFlPic=

>  <r_epik_Ionization_Penalty>  (194) 
0.136694

>  <r_epik_Ionization_Penalty_Charging>  (194) 
4.106e-08

>  <r_epik_Ionization_Penalty_Neutral>  (194) 
0.136694

>  <r_epik_State_Penalty>  (194) 
0.00772872

>  <r_epik_Charging_Adjusted_Penalty>  (194) 
0.00772876

>  <i_epik_Tot_Q>  (194) 
0

>  <i_epik_Tot_abs_Q>  (194) 
0

>  <s_epik_Chemistry_Notes>  (194) 
This compound has an imine and may undergo hydrolysis.

>  <s_lp_Force_Field>  (194) 
OPLS3e

>  <r_lp_Energy>  (194) 
376.67

>  <b_lp_Chiralities_Consistent>  (194) 
1

>  <s_lp_Variant>  (194) 
67:0-1

>  <s_i_glide_gridfile>  (194) 
pfpi4k_grid

>  <i_i_glide_lignum>  (194) 
6

>  <i_i_glide_rotatable_bonds>  (194) 
0

>  <r_i_docking_score>  (194) 
-2.35983

>  <r_i_glide_ligand_efficiency>  (194) 
-0.0842796

>  <r_i_glide_ligand_efficiency_sa>  (194) 
-0.255923

>  <r_i_glide_ligand_efficiency_ln>  (194) 
-0.544718

>  <r_i_glide_gscore>  (194) 
-2.35983

>  <r_i_glide_lipo>  (194) 
-0.488657

>  <r_i_glide_hbond>  (194) 
0

>  <r_i_glide_metal>  (194) 
-0

>  <r_i_glide_rewards>  (194) 
-0.80702

>  <r_i_glide_evdw>  (194) 
-19.736

>  <r_i_glide_ecoul>  (194) 
-0.474107

>  <r_i_glide_erotb>  (194) 
0

>  <r_i_glide_esite>  (194) 
-0.00623402

>  <r_i_glide_emodel>  (194) 
-23.1403

>  <r_i_glide_energy>  (194) 
-20.2102

>  <r_i_glide_einternal>  (194) 
0

>  <r_i_glide_intrahb_reward>  (194) 
-0

>  <i_i_glide_confnum>  (194) 
2

>  <i_i_glide_posenum>  (194) 
18

>  <r_i_glide_eff_state_penalty>  (194) 
0

>  <ligand_id>  (194) 
67

>  <original_smiles>  (194) 
CC1CC(C)C2(C)CC(C)C34C(=N1)C3C21CCC2(C)C(C)C1(C)CC4C2(C)C

>  <smiles>  (194) 
[H]N1C2=C3C24C([H])(C([H])([H])[H])C([H])([H])C(C([H])([H])[H])(C([H])(C([H])([H])[H])C([H])([H])C1([H])C([H])([H])[H])C31C([H])([H])C([H])([H])C2(C([H])([H])[H])C([H])(C([H])([H])[H])C1(C([H])([H])[H])C([H])([H])C4([H])C2(C([H])([H])[H])C([H])([H])[H]

$$$$
67:0:1
     RDKit          3D

 71 76  0  0  1  0  0  0  0  0999 V2000
    2.4390    3.4869    2.8043 C   0  0  0  0  0  0  0  0  0  0  0  0
    1.2412    2.9139    3.5803 C   0  0  2  0  0  0  0  0  0  0  0  0
    1.4591    2.7904    5.1168 C   0  0  0  0  0  0  0  0  0  0  0  0
    2.6696    1.9447    5.6937 C   0  0  1  0  0  0  0  0  0  0  0  0
    3.1624    2.7066    6.9495 C   0  0  0  0  0  0  0  0  0  0  0  0
    2.4880    0.3061    5.8272 C   0  0  1  0  0  0  0  0  0  0  0  0
    3.0609   -0.0650    7.2616 C   0  0  0  0  0  0  0  0  0  0  0  0
    0.9872   -0.0863    6.2067 C   0  0  0  0  0  0  0  0  0  0  0  0
    0.1391   -0.6254    5.0649 C   0  0  1  0  0  0  0  0  0  0  0  0
   -1.2182    0.0898    4.8947 C   0  0  0  0  0  0  0  0  0  0  0  0
    1.0452   -0.7171    3.8548 C   0  0  1  0  0  0  0  0  0  0  0  0
    1.2535    0.4620    3.0204 C   0  0  0  0  0  0  0  0  0  0  0  0
    0.6650    1.7234    2.9681 N   0  0  0  0  0  0  0  0  0  0  0  0
    2.2814    0.2886    3.7813 C   0  0  0  0  0  0  0  0  0  0  0  0
    3.1652   -0.6582    4.5604 C   0  0  0  0  0  0  0  0  0  0  0  0
    4.6200   -0.7661    5.0183 C   0  0  0  0  0  0  0  0  0  0  0  0
    4.5954   -2.3003    5.3717 C   0  0  0  0  0  0  0  0  0  0  0  0
    3.8951   -3.2336    4.2778 C   0  0  2  0  0  0  0  0  0  0  0  0
    4.5630   -4.6264    4.4723 C   0  0  0  0  0  0  0  0  0  0  0  0
    4.4170   -2.5343    3.0161 C   0  0  1  0  0  0  0  0  0  0  0  0
    4.6961   -3.4232    1.7615 C   0  0  0  0  0  0  0  0  0  0  0  0
    3.5194   -1.2342    2.9393 C   0  0  2  0  0  0  0  0  0  0  0  0
    4.2702   -0.2535    1.9691 C   0  0  0  0  0  0  0  0  0  0  0  0
    2.2990   -1.8520    2.1701 C   0  0  0  0  0  0  0  0  0  0  0  0
    1.4113   -2.1788    3.3371 C   0  0  1  0  0  0  0  0  0  0  0  0
    2.2363   -3.3208    4.2132 C   0  0  0  0  0  0  0  0  0  0  0  0
    1.8087   -4.6710    3.5509 C   0  0  0  0  0  0  0  0  0  0  0  0
    1.7034   -3.4733    5.6509 C   0  0  0  0  0  0  0  0  0  0  0  0
    2.7768    4.4250    3.2454 H   0  0  0  0  0  0  0  0  0  0  0  0
    2.1996    3.7108    1.7635 H   0  0  0  0  0  0  0  0  0  0  0  0
    3.2802    2.8012    2.8020 H   0  0  0  0  0  0  0  0  0  0  0  0
    0.4514    3.6477    3.4435 H   0  0  0  0  0  0  0  0  0  0  0  0
    1.5860    3.8350    5.4232 H   0  0  0  0  0  0  0  0  0  0  0  0
    0.5166    2.5094    5.5799 H   0  0  0  0  0  0  0  0  0  0  0  0
    3.5096    2.1078    5.0200 H   0  0  0  0  0  0  0  0  0  0  0  0
    2.4456    2.6517    7.7692 H   0  0  0  0  0  0  0  0  0  0  0  0
    3.3174    3.7662    6.7302 H   0  0  0  0  0  0  0  0  0  0  0  0
    4.1350    2.3596    7.2949 H   0  0  0  0  0  0  0  0  0  0  0  0
    3.0334   -1.1348    7.4647 H   0  0  0  0  0  0  0  0  0  0  0  0
    2.4704    0.3779    8.0658 H   0  0  0  0  0  0  0  0  0  0  0  0
    4.0714    0.2536    7.5036 H   0  0  0  0  0  0  0  0  0  0  0  0
    0.9325   -0.8769    6.9601 H   0  0  0  0  0  0  0  0  0  0  0  0
    0.4831    0.7260    6.7241 H   0  0  0  0  0  0  0  0  0  0  0  0
   -0.1526   -1.6343    5.3164 H   0  0  0  0  0  0  0  0  0  0  0  0
   -1.1230    1.1561    4.7233 H   0  0  0  0  0  0  0  0  0  0  0  0
   -1.8276   -0.0145    5.7908 H   0  0  0  0  0  0  0  0  0  0  0  0
   -1.7993   -0.3294    4.0777 H   0  0  0  0  0  0  0  0  0  0  0  0
    5.3702   -0.5117    4.2811 H   0  0  0  0  0  0  0  0  0  0  0  0
    4.9802   -0.1460    5.8218 H   0  0  0  0  0  0  0  0  0  0  0  0
    5.6400   -2.5898    5.4902 H   0  0  0  0  0  0  0  0  0  0  0  0
    4.1736   -2.5049    6.3545 H   0  0  0  0  0  0  0  0  0  0  0  0
    4.3444   -5.3290    3.6689 H   0  0  0  0  0  0  0  0  0  0  0  0
    4.2568   -5.0900    5.4096 H   0  0  0  0  0  0  0  0  0  0  0  0
    5.6508   -4.5510    4.4986 H   0  0  0  0  0  0  0  0  0  0  0  0
    5.4523   -2.2445    3.1826 H   0  0  0  0  0  0  0  0  0  0  0  0
    3.9051   -4.1225    1.5020 H   0  0  0  0  0  0  0  0  0  0  0  0
    5.5773   -4.0426    1.9258 H   0  0  0  0  0  0  0  0  0  0  0  0
    4.9092   -2.8234    0.8772 H   0  0  0  0  0  0  0  0  0  0  0  0
    4.3168   -0.6682    0.9631 H   0  0  0  0  0  0  0  0  0  0  0  0
    5.2992   -0.0623    2.2709 H   0  0  0  0  0  0  0  0  0  0  0  0
    3.7940    0.7230    1.8570 H   0  0  0  0  0  0  0  0  0  0  0  0
    1.8530   -1.1913    1.4294 H   0  0  0  0  0  0  0  0  0  0  0  0
    2.4424   -2.7072    1.5241 H   0  0  0  0  0  0  0  0  0  0  0  0
    0.4779   -2.5951    2.9703 H   0  0  0  0  0  0  0  0  0  0  0  0
    0.7238   -4.7836    3.5205 H   0  0  0  0  0  0  0  0  0  0  0  0
    2.1667   -5.5459    4.0974 H   0  0  0  0  0  0  0  0  0  0  0  0
    2.1547   -4.7715    2.5251 H   0  0  0  0  0  0  0  0  0  0  0  0
    0.6252   -3.6409    5.6793 H   0  0  0  0  0  0  0  0  0  0  0  0
    1.9317   -2.5917    6.2330 H   0  0  0  0  0  0  0  0  0  0  0  0
    2.1752   -4.3110    6.1695 H   0  0  0  0  0  0  0  0  0  0  0  0
    0.2834    1.9714    2.0602 H   0  0  0  0  0  0  0  0  0  0  0  0
  1  2  1  0
  1 29  1  0
  1 30  1  0
  1 31  1  0
  2 13  1  0
  2  3  1  0
  2 32  1  1
  3  4  1  0
  3 33  1  0
  3 34  1  0
  4  5  1  0
  4  6  1  0
  4 35  1  6
  5 36  1  0
  5 37  1  0
  5 38  1  0
  6 15  1  0
  6  7  1  1
  6  8  1  0
  7 39  1  0
  7 40  1  0
  7 41  1  0
  8  9  1  0
  8 42  1  0
  8 43  1  0
  9 10  1  0
  9 11  1  0
  9 44  1  1
 10 45  1  0
 10 46  1  0
 10 47  1  0
 11 14  1  0
 11 25  1  0
 11 12  1  6
 12 13  1  0
 12 14  2  0
 13 71  1  0
 14 15  1  0
 15 22  1  0
 15 16  1  0
 16 17  1  0
 16 48  1  0
 16 49  1  0
 17 18  1  0
 17 50  1  0
 17 51  1  0
 18 26  1  0
 18 19  1  6
 18 20  1  0
 19 52  1  0
 19 53  1  0
 19 54  1  0
 20 21  1  0
 20 22  1  0
 20 55  1  1
 21 56  1  0
 21 57  1  0
 21 58  1  0
 22 23  1  6
 22 24  1  0
 23 59  1  0
 23 60  1  0
 23 61  1  0
 24 25  1  0
 24 62  1  0
 24 63  1  0
 25 26  1  0
 25 64  1  6
 26 27  1  0
 26 28  1  0
 27 65  1  0
 27 66  1  0
 27 67  1  0
 28 68  1  0
 28 69  1  0
 28 70  1  0
M  END
>  <i_m_ct_stereo_status>  (195) 
1

>  <s_m_source_file>  (195) 
/var/tmp/pbs.5076255.sched01/tmprh8juyh8/78tr4t3sa2.sdf

>  <i_m_source_file_index>  (195) 
6

>  <i_lp_mmshare_version>  (195) 
48012

>  <i_f3d_flags>  (195) 
0

>  <s_epik_input>  (195) 
W0NIM11bQ0BASF0oL04xKVtDSDJdW0NAQEhdKFtDSDNdKVtDQEBdKFtDSDNdKShbQ0gyXVtDQEhdMltDSDNdKUMzKFtDSF00Qz0xXEMyNDUpW0NAQF02KFtDSDNdKVtDQEhdKFtDSDNdKVtDQEBdKFtDSDNdKShbQ0gyXVtDSDJdMylDKFtDSDNdKShbQ0gzXSlbQ0BASF01W0NIMl02

>  <s_epik_cmdline>  (195) 
J2VwaWtfcHl0aG9uJywgJy1waHQnLCAnMi4wJywgJy1waCcsICc3LjAnLCAnLXRuJywgJzgnLCAnLW1hJywgJzIwMCcsICctaW1hZScsICc8aW5maWxlLm1hZT4nLCAnLW9tYWUnLCAnPG91dGZpbGUubWFlPic=

>  <r_epik_Ionization_Penalty>  (195) 
0.136694

>  <r_epik_Ionization_Penalty_Charging>  (195) 
4.106e-08

>  <r_epik_Ionization_Penalty_Neutral>  (195) 
0.136694

>  <r_epik_State_Penalty>  (195) 
0.00772872

>  <r_epik_Charging_Adjusted_Penalty>  (195) 
0.00772876

>  <i_epik_Tot_Q>  (195) 
0

>  <i_epik_Tot_abs_Q>  (195) 
0

>  <s_epik_Chemistry_Notes>  (195) 
This compound has an imine and may undergo hydrolysis.

>  <s_lp_Force_Field>  (195) 
OPLS3e

>  <r_lp_Energy>  (195) 
376.67

>  <b_lp_Chiralities_Consistent>  (195) 
1

>  <s_lp_Variant>  (195) 
67:0-1

>  <s_i_glide_gridfile>  (195) 
pfpi4k_grid

>  <i_i_glide_lignum>  (195) 
6

>  <i_i_glide_rotatable_bonds>  (195) 
0

>  <r_i_docking_score>  (195) 
-2.26057

>  <r_i_glide_ligand_efficiency>  (195) 
-0.0807346

>  <r_i_glide_ligand_efficiency_sa>  (195) 
-0.245158

>  <r_i_glide_ligand_efficiency_ln>  (195) 
-0.521805

>  <r_i_glide_gscore>  (195) 
-2.26057

>  <r_i_glide_lipo>  (195) 
-0.199729

>  <r_i_glide_hbond>  (195) 
0

>  <r_i_glide_metal>  (195) 
-0

>  <r_i_glide_rewards>  (195) 
-0.80702

>  <r_i_glide_evdw>  (195) 
-21.9344

>  <r_i_glide_ecoul>  (195) 
-0.755195

>  <r_i_glide_erotb>  (195) 
0

>  <r_i_glide_esite>  (195) 
-0.0438194

>  <r_i_glide_emodel>  (195) 
-25.5101

>  <r_i_glide_energy>  (195) 
-22.6896

>  <r_i_glide_einternal>  (195) 
0

>  <r_i_glide_intrahb_reward>  (195) 
-0

>  <i_i_glide_confnum>  (195) 
1

>  <i_i_glide_posenum>  (195) 
35

>  <r_i_glide_eff_state_penalty>  (195) 
0

>  <ligand_id>  (195) 
67

>  <original_smiles>  (195) 
CC1CC(C)C2(C)CC(C)C34C(=N1)C3C21CCC2(C)C(C)C1(C)CC4C2(C)C

>  <smiles>  (195) 
[H]N1C2=C3C24C([H])(C([H])([H])[H])C([H])([H])C(C([H])([H])[H])(C([H])(C([H])([H])[H])C([H])([H])C1([H])C([H])([H])[H])C31C([H])([H])C([H])([H])C2(C([H])([H])[H])C([H])(C([H])([H])[H])C1(C([H])([H])[H])C([H])([H])C4([H])C2(C([H])([H])[H])C([H])([H])[H]

$$$$
67:0:2
     RDKit          3D

 71 76  0  0  1  0  0  0  0  0999 V2000
   -2.1515    3.6300    3.2952 C   0  0  0  0  0  0  0  0  0  0  0  0
   -1.3011    2.4002    3.6578 C   0  0  2  0  0  0  0  0  0  0  0  0
   -1.5010    1.8644    5.1058 C   0  0  0  0  0  0  0  0  0  0  0  0
   -1.2627    2.8096    6.3535 C   0  0  1  0  0  0  0  0  0  0  0  0
   -2.3327    2.4133    7.4023 C   0  0  0  0  0  0  0  0  0  0  0  0
    0.2840    3.0138    6.8956 C   0  0  1  0  0  0  0  0  0  0  0  0
    0.2022    2.8903    8.4772 C   0  0  0  0  0  0  0  0  0  0  0  0
    1.1425    1.6764    6.7275 C   0  0  0  0  0  0  0  0  0  0  0  0
    2.1241    1.6683    5.5660 C   0  0  1  0  0  0  0  0  0  0  0  0
    1.9953    0.4342    4.6466 C   0  0  0  0  0  0  0  0  0  0  0  0
    2.0666    3.0355    4.9199 C   0  0  1  0  0  0  0  0  0  0  0  0
    1.0224    3.3022    3.9245 C   0  0  0  0  0  0  0  0  0  0  0  0
    0.0899    2.5232    3.2607 N   0  0  0  0  0  0  0  0  0  0  0  0
    0.7010    3.8417    5.0617 C   0  0  0  0  0  0  0  0  0  0  0  0
    1.1091    4.4470    6.3758 C   0  0  0  0  0  0  0  0  0  0  0  0
    0.6013    5.4662    7.3947 C   0  0  0  0  0  0  0  0  0  0  0  0
    1.9688    5.6639    8.1567 C   0  0  0  0  0  0  0  0  0  0  0  0
    3.2479    5.8556    7.2152 C   0  0  2  0  0  0  0  0  0  0  0  0
    4.2480    6.6780    8.0796 C   0  0  0  0  0  0  0  0  0  0  0  0
    2.6008    6.7246    6.1272 C   0  0  1  0  0  0  0  0  0  0  0  0
    3.5005    7.7988    5.4329 C   0  0  0  0  0  0  0  0  0  0  0  0
    1.7519    5.6777    5.3011 C   0  0  2  0  0  0  0  0  0  0  0  0
    0.7147    6.5200    4.4725 C   0  0  0  0  0  0  0  0  0  0  0  0
    2.8854    5.1933    4.3259 C   0  0  0  0  0  0  0  0  0  0  0  0
    3.3453    3.9712    5.0703 C   0  0  1  0  0  0  0  0  0  0  0  0
    3.9532    4.5262    6.5104 C   0  0  0  0  0  0  0  0  0  0  0  0
    5.4474    4.8416    6.1762 C   0  0  0  0  0  0  0  0  0  0  0  0
    4.0712    3.4193    7.5757 C   0  0  0  0  0  0  0  0  0  0  0  0
   -3.2034    3.4507    3.5261 H   0  0  0  0  0  0  0  0  0  0  0  0
   -2.1016    3.8636    2.2319 H   0  0  0  0  0  0  0  0  0  0  0  0
   -1.8385    4.5135    3.8424 H   0  0  0  0  0  0  0  0  0  0  0  0
   -1.6654    1.6168    2.9986 H   0  0  0  0  0  0  0  0  0  0  0  0
   -2.5520    1.5560    5.0967 H   0  0  0  0  0  0  0  0  0  0  0  0
   -0.9638    0.9246    5.2031 H   0  0  0  0  0  0  0  0  0  0  0  0
   -1.6202    3.7969    6.0665 H   0  0  0  0  0  0  0  0  0  0  0  0
   -2.1364    1.4323    7.8339 H   0  0  0  0  0  0  0  0  0  0  0  0
   -3.3289    2.3775    6.9541 H   0  0  0  0  0  0  0  0  0  0  0  0
   -2.4243    3.1463    8.2023 H   0  0  0  0  0  0  0  0  0  0  0  0
    1.1637    3.0438    8.9648 H   0  0  0  0  0  0  0  0  0  0  0  0
   -0.1046    1.8920    8.7929 H   0  0  0  0  0  0  0  0  0  0  0  0
   -0.4999    3.5336    9.0002 H   0  0  0  0  0  0  0  0  0  0  0  0
    1.7816    1.4711    7.5933 H   0  0  0  0  0  0  0  0  0  0  0  0
    0.5130    0.7925    6.7227 H   0  0  0  0  0  0  0  0  0  0  0  0
    3.1197    1.5566    5.9699 H   0  0  0  0  0  0  0  0  0  0  0  0
    1.0094    0.3198    4.2113 H   0  0  0  0  0  0  0  0  0  0  0  0
    2.1856   -0.4829    5.2030 H   0  0  0  0  0  0  0  0  0  0  0  0
    2.7209    0.4545    3.8369 H   0  0  0  0  0  0  0  0  0  0  0  0
    0.2051    6.3850    6.9903 H   0  0  0  0  0  0  0  0  0  0  0  0
   -0.2165    5.2143    8.0455 H   0  0  0  0  0  0  0  0  0  0  0  0
    1.8278    6.5538    8.7721 H   0  0  0  0  0  0  0  0  0  0  0  0
    2.1648    4.8877    8.8941 H   0  0  0  0  0  0  0  0  0  0  0  0
    5.0925    7.0669    7.5123 H   0  0  0  0  0  0  0  0  0  0  0  0
    4.6450    6.0841    8.9020 H   0  0  0  0  0  0  0  0  0  0  0  0
    3.7713    7.5523    8.5223 H   0  0  0  0  0  0  0  0  0  0  0  0
    1.9280    7.4340    6.6047 H   0  0  0  0  0  0  0  0  0  0  0  0
    4.4725    7.4450    5.0995 H   0  0  0  0  0  0  0  0  0  0  0  0
    3.7172    8.6139    6.1223 H   0  0  0  0  0  0  0  0  0  0  0  0
    3.0020    8.2532    4.5770 H   0  0  0  0  0  0  0  0  0  0  0  0
    1.2366    7.1533    3.7561 H   0  0  0  0  0  0  0  0  0  0  0  0
    0.1201    7.1899    5.0925 H   0  0  0  0  0  0  0  0  0  0  0  0
    0.0202    5.9291    3.8794 H   0  0  0  0  0  0  0  0  0  0  0  0
    2.5539    5.0114    3.3058 H   0  0  0  0  0  0  0  0  0  0  0  0
    3.7119    5.8474    4.0890 H   0  0  0  0  0  0  0  0  0  0  0  0
    4.1225    3.4707    4.4981 H   0  0  0  0  0  0  0  0  0  0  0  0
    5.9562    3.9802    5.7420 H   0  0  0  0  0  0  0  0  0  0  0  0
    6.0338    5.0978    7.0596 H   0  0  0  0  0  0  0  0  0  0  0  0
    5.5636    5.6541    5.4635 H   0  0  0  0  0  0  0  0  0  0  0  0
    4.6191    2.5489    7.2104 H   0  0  0  0  0  0  0  0  0  0  0  0
    3.0911    3.0996    7.8994 H   0  0  0  0  0  0  0  0  0  0  0  0
    4.5872    3.7756    8.4694 H   0  0  0  0  0  0  0  0  0  0  0  0
    0.1419    2.6469    2.2554 H   0  0  0  0  0  0  0  0  0  0  0  0
  1  2  1  0
  1 29  1  0
  1 30  1  0
  1 31  1  0
  2 13  1  0
  2  3  1  0
  2 32  1  6
  3  4  1  0
  3 33  1  0
  3 34  1  0
  4  5  1  0
  4  6  1  0
  4 35  1  6
  5 36  1  0
  5 37  1  0
  5 38  1  0
  6 15  1  0
  6  7  1  1
  6  8  1  0
  7 39  1  0
  7 40  1  0
  7 41  1  0
  8  9  1  0
  8 42  1  0
  8 43  1  0
  9 10  1  0
  9 11  1  0
  9 44  1  1
 10 45  1  0
 10 46  1  0
 10 47  1  0
 11 14  1  0
 11 25  1  0
 11 12  1  6
 12 13  1  0
 12 14  2  0
 13 71  1  0
 14 15  1  0
 15 22  1  0
 15 16  1  0
 16 17  1  0
 16 48  1  0
 16 49  1  0
 17 18  1  0
 17 50  1  0
 17 51  1  0
 18 26  1  0
 18 19  1  1
 18 20  1  0
 19 52  1  0
 19 53  1  0
 19 54  1  0
 20 21  1  0
 20 22  1  0
 20 55  1  1
 21 56  1  0
 21 57  1  0
 21 58  1  0
 22 23  1  6
 22 24  1  0
 23 59  1  0
 23 60  1  0
 23 61  1  0
 24 25  1  0
 24 62  1  0
 24 63  1  0
 25 26  1  0
 25 64  1  6
 26 27  1  0
 26 28  1  0
 27 65  1  0
 27 66  1  0
 27 67  1  0
 28 68  1  0
 28 69  1  0
 28 70  1  0
M  END
>  <i_m_ct_stereo_status>  (196) 
1

>  <s_m_source_file>  (196) 
/var/tmp/pbs.5076255.sched01/tmprh8juyh8/78tr4t3sa2.sdf

>  <i_m_source_file_index>  (196) 
6

>  <i_lp_mmshare_version>  (196) 
48012

>  <i_f3d_flags>  (196) 
0

>  <s_epik_input>  (196) 
W0NIM11bQ0BASF0oL04xKVtDSDJdW0NAQEhdKFtDSDNdKVtDQEBdKFtDSDNdKShbQ0gyXVtDQEhdMltDSDNdKUMzKFtDSF00Qz0xXEMyNDUpW0NAQF02KFtDSDNdKVtDQEhdKFtDSDNdKVtDQEBdKFtDSDNdKShbQ0gyXVtDSDJdMylDKFtDSDNdKShbQ0gzXSlbQ0BASF01W0NIMl02

>  <s_epik_cmdline>  (196) 
J2VwaWtfcHl0aG9uJywgJy1waHQnLCAnMi4wJywgJy1waCcsICc3LjAnLCAnLXRuJywgJzgnLCAnLW1hJywgJzIwMCcsICctaW1hZScsICc8aW5maWxlLm1hZT4nLCAnLW9tYWUnLCAnPG91dGZpbGUubWFlPic=

>  <r_epik_Ionization_Penalty>  (196) 
0.136694

>  <r_epik_Ionization_Penalty_Charging>  (196) 
4.106e-08

>  <r_epik_Ionization_Penalty_Neutral>  (196) 
0.136694

>  <r_epik_State_Penalty>  (196) 
0.00772872

>  <r_epik_Charging_Adjusted_Penalty>  (196) 
0.00772876

>  <i_epik_Tot_Q>  (196) 
0

>  <i_epik_Tot_abs_Q>  (196) 
0

>  <s_epik_Chemistry_Notes>  (196) 
This compound has an imine and may undergo hydrolysis.

>  <s_lp_Force_Field>  (196) 
OPLS3e

>  <r_lp_Energy>  (196) 
376.67

>  <b_lp_Chiralities_Consistent>  (196) 
1

>  <s_lp_Variant>  (196) 
67:0-1

>  <s_i_glide_gridfile>  (196) 
pfpi4k_grid

>  <i_i_glide_lignum>  (196) 
6

>  <i_i_glide_rotatable_bonds>  (196) 
0

>  <r_i_docking_score>  (196) 
-2.21306

>  <r_i_glide_ligand_efficiency>  (196) 
-0.079038

>  <r_i_glide_ligand_efficiency_sa>  (196) 
-0.240006

>  <r_i_glide_ligand_efficiency_ln>  (196) 
-0.51084

>  <r_i_glide_gscore>  (196) 
-2.21306

>  <r_i_glide_lipo>  (196) 
-0.0841292

>  <r_i_glide_hbond>  (196) 
-0.0557324

>  <r_i_glide_metal>  (196) 
-0

>  <r_i_glide_rewards>  (196) 
-0.80702

>  <r_i_glide_evdw>  (196) 
-22.0585

>  <r_i_glide_ecoul>  (196) 
-0.594932

>  <r_i_glide_erotb>  (196) 
0

>  <r_i_glide_esite>  (196) 
-0.0740187

>  <r_i_glide_emodel>  (196) 
-25.3724

>  <r_i_glide_energy>  (196) 
-22.6534

>  <r_i_glide_einternal>  (196) 
0

>  <r_i_glide_intrahb_reward>  (196) 
-0

>  <i_i_glide_confnum>  (196) 
1

>  <i_i_glide_posenum>  (196) 
11

>  <r_i_glide_eff_state_penalty>  (196) 
0

>  <ligand_id>  (196) 
67

>  <original_smiles>  (196) 
CC1CC(C)C2(C)CC(C)C34C(=N1)C3C21CCC2(C)C(C)C1(C)CC4C2(C)C

>  <smiles>  (196) 
[H]N1C2=C3C24C([H])(C([H])([H])[H])C([H])([H])C(C([H])([H])[H])(C([H])(C([H])([H])[H])C([H])([H])C1([H])C([H])([H])[H])C31C([H])([H])C([H])([H])C2(C([H])([H])[H])C([H])(C([H])([H])[H])C1(C([H])([H])[H])C([H])([H])C4([H])C2(C([H])([H])[H])C([H])([H])[H]

$$$$
67:1:0
     RDKit          3D

 72 77  0  0  1  0  0  0  0  0999 V2000
    0.9198    0.6201    1.8828 C   0  0  0  0  0  0  0  0  0  0  0  0
    2.0677    1.5464    2.2948 C   0  0  2  0  0  0  0  0  0  0  0  0
    3.1081    0.9262    3.2776 C   0  0  0  0  0  0  0  0  0  0  0  0
    2.6518    0.2084    4.6120 C   0  0  1  0  0  0  0  0  0  0  0  0
    3.5918   -1.0104    4.7937 C   0  0  0  0  0  0  0  0  0  0  0  0
    2.3802    1.1580    5.9372 C   0  0  1  0  0  0  0  0  0  0  0  0
    3.0451    0.3792    7.1485 C   0  0  0  0  0  0  0  0  0  0  0  0
    3.4105    2.3694    5.9942 C   0  0  0  0  0  0  0  0  0  0  0  0
    2.8491    3.7179    5.5558 C   0  0  1  0  0  0  0  0  0  0  0  0
    3.6960    4.4492    4.5100 C   0  0  0  0  0  0  0  0  0  0  0  0
    1.3824    3.5505    5.2636 C   0  0  1  0  0  0  0  0  0  0  0  0
    0.8897    3.0649    3.9607 C   0  0  0  0  0  0  0  0  0  0  0  0
    1.6016    2.9189    2.6684 N   0  0  0  0  0  0  0  0  0  0  0  0
    0.9065    2.0727    4.8073 C   0  0  0  0  0  0  0  0  0  0  0  0
    0.7376    1.6053    6.2365 C   0  0  0  0  0  0  0  0  0  0  0  0
    0.2244    0.3738    6.9907 C   0  0  0  0  0  0  0  0  0  0  0  0
    0.0784    1.0611    8.3931 C   0  0  0  0  0  0  0  0  0  0  0  0
   -0.6244    2.5041    8.3782 C   0  0  2  0  0  0  0  0  0  0  0  0
   -1.2545    2.6511    9.8019 C   0  0  0  0  0  0  0  0  0  0  0  0
   -1.6948    2.2136    7.3214 C   0  0  1  0  0  0  0  0  0  0  0  0
   -3.0642    2.9396    7.4756 C   0  0  0  0  0  0  0  0  0  0  0  0
   -0.8778    2.2591    5.9739 C   0  0  2  0  0  0  0  0  0  0  0  0
   -1.7667    1.5400    4.8890 C   0  0  0  0  0  0  0  0  0  0  0  0
   -0.9543    3.8136    5.7332 C   0  0  0  0  0  0  0  0  0  0  0  0
    0.3722    4.2146    6.3059 C   0  0  1  0  0  0  0  0  0  0  0  0
    0.2560    3.8432    7.9256 C   0  0  0  0  0  0  0  0  0  0  0  0
   -0.3951    5.1196    8.5398 C   0  0  0  0  0  0  0  0  0  0  0  0
    1.6144    3.7881    8.6414 C   0  0  0  0  0  0  0  0  0  0  0  0
    1.3229   -0.3167    1.4633 H   0  0  0  0  0  0  0  0  0  0  0  0
    0.3112    1.0695    1.0904 H   0  0  0  0  0  0  0  0  0  0  0  0
    0.2548    0.3549    2.7065 H   0  0  0  0  0  0  0  0  0  0  0  0
    2.6067    1.7253    1.3874 H   0  0  0  0  0  0  0  0  0  0  0  0
    3.6280    0.1844    2.6457 H   0  0  0  0  0  0  0  0  0  0  0  0
    3.8801    1.6591    3.4722 H   0  0  0  0  0  0  0  0  0  0  0  0
    1.7137   -0.2935    4.3933 H   0  0  0  0  0  0  0  0  0  0  0  0
    4.6124   -0.7142    5.0483 H   0  0  0  0  0  0  0  0  0  0  0  0
    3.6459   -1.6031    3.8771 H   0  0  0  0  0  0  0  0  0  0  0  0
    3.2213   -1.7110    5.5449 H   0  0  0  0  0  0  0  0  0  0  0  0
    2.9066    0.8841    8.1071 H   0  0  0  0  0  0  0  0  0  0  0  0
    4.1255    0.2979    7.0412 H   0  0  0  0  0  0  0  0  0  0  0  0
    2.7454   -0.6548    7.3153 H   0  0  0  0  0  0  0  0  0  0  0  0
    3.7960    2.5498    6.9933 H   0  0  0  0  0  0  0  0  0  0  0  0
    4.3351    2.1340    5.4709 H   0  0  0  0  0  0  0  0  0  0  0  0
    2.9185    4.3706    6.4139 H   0  0  0  0  0  0  0  0  0  0  0  0
    3.8129    3.8985    3.5820 H   0  0  0  0  0  0  0  0  0  0  0  0
    4.6997    4.6168    4.8929 H   0  0  0  0  0  0  0  0  0  0  0  0
    3.2940    5.4328    4.2793 H   0  0  0  0  0  0  0  0  0  0  0  0
   -0.6932   -0.0539    6.6194 H   0  0  0  0  0  0  0  0  0  0  0  0
    0.8150   -0.5220    7.0126 H   0  0  0  0  0  0  0  0  0  0  0  0
   -0.5142    0.3799    9.0045 H   0  0  0  0  0  0  0  0  0  0  0  0
    1.0160    1.1270    8.9573 H   0  0  0  0  0  0  0  0  0  0  0  0
   -1.9459    3.4875    9.8825 H   0  0  0  0  0  0  0  0  0  0  0  0
   -0.4888    2.7732   10.5630 H   0  0  0  0  0  0  0  0  0  0  0  0
   -1.8359    1.7671   10.0798 H   0  0  0  0  0  0  0  0  0  0  0  0
   -2.0812    1.2027    7.4740 H   0  0  0  0  0  0  0  0  0  0  0  0
   -2.9986    4.0067    7.6770 H   0  0  0  0  0  0  0  0  0  0  0  0
   -3.6191    2.5415    8.3245 H   0  0  0  0  0  0  0  0  0  0  0  0
   -3.7009    2.8025    6.6012 H   0  0  0  0  0  0  0  0  0  0  0  0
   -2.6695    2.1196    4.7394 H   0  0  0  0  0  0  0  0  0  0  0  0
   -2.0610    0.5359    5.1796 H   0  0  0  0  0  0  0  0  0  0  0  0
   -1.3148    1.4604    3.9039 H   0  0  0  0  0  0  0  0  0  0  0  0
   -1.1281    4.1091    4.6977 H   0  0  0  0  0  0  0  0  0  0  0  0
   -1.7640    4.3854    6.1566 H   0  0  0  0  0  0  0  0  0  0  0  0
    0.5316    5.2795    6.1872 H   0  0  0  0  0  0  0  0  0  0  0  0
    0.1745    6.0233    8.2975 H   0  0  0  0  0  0  0  0  0  0  0  0
   -0.4324    5.1000    9.6351 H   0  0  0  0  0  0  0  0  0  0  0  0
   -1.4108    5.3017    8.1903 H   0  0  0  0  0  0  0  0  0  0  0  0
    2.2097    4.6888    8.4699 H   0  0  0  0  0  0  0  0  0  0  0  0
    2.1859    2.9307    8.3153 H   0  0  0  0  0  0  0  0  0  0  0  0
    1.4990    3.6835    9.7255 H   0  0  0  0  0  0  0  0  0  0  0  0
    2.3475    3.5853    2.6510 H   0  0  0  0  0  0  0  0  0  0  0  0
    0.9354    3.1678    1.9110 H   0  0  0  0  0  0  0  0  0  0  0  0
  1  2  1  0
  1 29  1  0
  1 30  1  0
  1 31  1  0
  2 13  1  0
  2  3  1  0
  2 32  1  6
  3  4  1  0
  3 33  1  0
  3 34  1  0
  4  5  1  0
  4  6  1  0
  4 35  1  6
  5 36  1  0
  5 37  1  0
  5 38  1  0
  6 15  1  0
  6  7  1  1
  6  8  1  0
  7 39  1  0
  7 40  1  0
  7 41  1  0
  8  9  1  0
  8 42  1  0
  8 43  1  0
  9 10  1  0
  9 11  1  0
  9 44  1  1
 10 45  1  0
 10 46  1  0
 10 47  1  0
 11 14  1  0
 11 25  1  0
 11 12  1  6
 12 13  1  0
 12 14  2  0
 13 71  1  0
 13 72  1  0
 14 15  1  0
 15 22  1  0
 15 16  1  0
 16 17  1  0
 16 48  1  0
 16 49  1  0
 17 18  1  0
 17 50  1  0
 17 51  1  0
 18 26  1  0
 18 19  1  1
 18 20  1  0
 19 52  1  0
 19 53  1  0
 19 54  1  0
 20 21  1  0
 20 22  1  0
 20 55  1  1
 21 56  1  0
 21 57  1  0
 21 58  1  0
 22 23  1  6
 22 24  1  0
 23 59  1  0
 23 60  1  0
 23 61  1  0
 24 25  1  0
 24 62  1  0
 24 63  1  0
 25 26  1  0
 25 64  1  1
 26 27  1  0
 26 28  1  0
 27 65  1  0
 27 66  1  0
 27 67  1  0
 28 68  1  0
 28 69  1  0
 28 70  1  0
M  CHG  1  13   1
M  END
>  <i_m_ct_stereo_status>  (197) 
1

>  <s_m_source_file>  (197) 
/var/tmp/pbs.5076255.sched01/tmprh8juyh8/78tr4t3sa2.sdf

>  <i_m_source_file_index>  (197) 
7

>  <i_lp_mmshare_version>  (197) 
48012

>  <i_f3d_flags>  (197) 
0

>  <s_epik_input>  (197) 
W0NIM11bQ0BASF0oL04xKVtDSDJdW0NAQEhdKFtDSDNdKVtDQEBdKFtDSDNdKShbQ0gyXVtDQEhdMltDSDNdKUMzKFtDSF00Qz0xXEMyNDUpW0NAQF02KFtDSDNdKVtDQEhdKFtDSDNdKVtDQEBdKFtDSDNdKShbQ0gyXVtDSDJdMylDKFtDSDNdKShbQ0gzXSlbQ0BASF01W0NIMl02

>  <s_epik_cmdline>  (197) 
J2VwaWtfcHl0aG9uJywgJy1waHQnLCAnMi4wJywgJy1waCcsICc3LjAnLCAnLXRuJywgJzgnLCAnLW1hJywgJzIwMCcsICctaW1hZScsICc8aW5maWxlLm1hZT4nLCAnLW9tYWUnLCAnPG91dGZpbGUubWFlPic=

>  <r_epik_Ionization_Penalty>  (197) 
4.01296

>  <r_epik_Ionization_Penalty_Charging>  (197) 
4.01296

>  <r_epik_Ionization_Penalty_Neutral>  (197) 
0

>  <r_epik_State_Penalty>  (197) 
2.57488

>  <r_epik_Charging_Adjusted_Penalty>  (197) 
6.58784

>  <i_epik_Tot_Q>  (197) 
1

>  <i_epik_Tot_abs_Q>  (197) 
1

>  <s_lp_Force_Field>  (197) 
OPLS3e

>  <r_lp_Energy>  (197) 
375.766

>  <b_lp_Chiralities_Consistent>  (197) 
1

>  <s_lp_Variant>  (197) 
67:0-2

>  <s_i_glide_gridfile>  (197) 
pfpi4k_grid

>  <i_i_glide_lignum>  (197) 
7

>  <i_i_glide_rotatable_bonds>  (197) 
0

>  <r_i_docking_score>  (197) 
-3.06386

>  <r_i_glide_ligand_efficiency>  (197) 
-0.109424

>  <r_i_glide_ligand_efficiency_sa>  (197) 
-0.332274

>  <r_i_glide_ligand_efficiency_ln>  (197) 
-0.707229

>  <r_i_glide_gscore>  (197) 
-3.06386

>  <r_i_glide_lipo>  (197) 
-0.22269

>  <r_i_glide_hbond>  (197) 
-0.2

>  <r_i_glide_metal>  (197) 
-0

>  <r_i_glide_rewards>  (197) 
-0.800148

>  <r_i_glide_evdw>  (197) 
-20.4402

>  <r_i_glide_ecoul>  (197) 
-4.89886

>  <r_i_glide_erotb>  (197) 
0

>  <r_i_glide_esite>  (197) 
-0.0841822

>  <r_i_glide_emodel>  (197) 
-29.9995

>  <r_i_glide_energy>  (197) 
-25.339

>  <r_i_glide_einternal>  (197) 
0

>  <r_i_glide_intrahb_reward>  (197) 
-0

>  <i_i_glide_confnum>  (197) 
1

>  <i_i_glide_posenum>  (197) 
1

>  <r_i_glide_eff_state_penalty>  (197) 
0

>  <ligand_id>  (197) 
67

>  <original_smiles>  (197) 
CC1CC(C)C2(C)CC(C)C34C(=N1)C3C21CCC2(C)C(C)C1(C)CC4C2(C)C

>  <smiles>  (197) 
[H]C([H])([H])C1([H])C([H])([H])C2(C([H])([H])[H])C([H])(C([H])([H])[H])C([H])([H])C([H])(C([H])([H])[H])[N+]([H])([H])C3=C4C31C1([H])C([H])([H])C3(C([H])([H])[H])C([H])(C([H])([H])[H])C(C([H])([H])[H])(C([H])([H])C([H])([H])C423)C1(C([H])([H])[H])C([H])([H])[H]

$$$$
67:1:1
     RDKit          3D

 72 77  0  0  1  0  0  0  0  0999 V2000
   -1.9539    4.3096    3.1321 C   0  0  0  0  0  0  0  0  0  0  0  0
   -1.2962    2.9435    3.4345 C   0  0  2  0  0  0  0  0  0  0  0  0
   -1.6455    2.3502    4.8422 C   0  0  0  0  0  0  0  0  0  0  0  0
   -1.4139    3.1945    6.1541 C   0  0  1  0  0  0  0  0  0  0  0  0
   -2.5923    2.8514    7.1050 C   0  0  0  0  0  0  0  0  0  0  0  0
    0.0924    3.2078    6.8007 C   0  0  1  0  0  0  0  0  0  0  0  0
   -0.1229    3.0486    8.3687 C   0  0  0  0  0  0  0  0  0  0  0  0
    0.8093    1.8002    6.6467 C   0  0  0  0  0  0  0  0  0  0  0  0
    1.8159    1.7314    5.5145 C   0  0  1  0  0  0  0  0  0  0  0  0
    1.6340    0.5461    4.5474 C   0  0  0  0  0  0  0  0  0  0  0  0
    1.9913    3.1172    4.9185 C   0  0  1  0  0  0  0  0  0  0  0  0
    1.1118    3.6188    3.8503 C   0  0  0  0  0  0  0  0  0  0  0  0
    0.0941    2.9026    3.0408 N   0  0  0  0  0  0  0  0  0  0  0  0
    0.7098    4.0808    5.0085 C   0  0  0  0  0  0  0  0  0  0  0  0
    1.0973    4.5692    6.3928 C   0  0  0  0  0  0  0  0  0  0  0  0
    0.6358    5.5940    7.4183 C   0  0  0  0  0  0  0  0  0  0  0  0
    1.9518    5.6082    8.2883 C   0  0  0  0  0  0  0  0  0  0  0  0
    3.3167    5.6644    7.4578 C   0  0  2  0  0  0  0  0  0  0  0  0
    4.3379    6.3279    8.4274 C   0  0  0  0  0  0  0  0  0  0  0  0
    2.8647    6.6466    6.3654 C   0  0  1  0  0  0  0  0  0  0  0  0
    3.9383    7.6242    5.7900 C   0  0  0  0  0  0  0  0  0  0  0  0
    1.9766    5.7412    5.4254 C   0  0  2  0  0  0  0  0  0  0  0  0
    1.1122    6.7271    4.5597 C   0  0  0  0  0  0  0  0  0  0  0  0
    3.1456    5.1652    4.5423 C   0  0  0  0  0  0  0  0  0  0  0  0
    3.3545    3.8576    5.2470 C   0  0  1  0  0  0  0  0  0  0  0  0
    3.9065    4.2828    6.7538 C   0  0  0  0  0  0  0  0  0  0  0  0
    5.4455    4.4244    6.5390 C   0  0  0  0  0  0  0  0  0  0  0  0
    3.8289    3.1373    7.7792 C   0  0  0  0  0  0  0  0  0  0  0  0
   -3.0347    4.2637    3.2690 H   0  0  0  0  0  0  0  0  0  0  0  0
   -1.7933    4.6130    2.1046 H   0  0  0  0  0  0  0  0  0  0  0  0
   -1.5336    5.0787    3.7726 H   0  0  0  0  0  0  0  0  0  0  0  0
   -1.7814    2.2830    2.7243 H   0  0  0  0  0  0  0  0  0  0  0  0
   -2.7189    2.1613    4.7401 H   0  0  0  0  0  0  0  0  0  0  0  0
   -1.2116    1.3565    4.9074 H   0  0  0  0  0  0  0  0  0  0  0  0
   -1.6588    4.2244    5.9139 H   0  0  0  0  0  0  0  0  0  0  0  0
   -2.5296    1.8354    7.4958 H   0  0  0  0  0  0  0  0  0  0  0  0
   -3.5495    2.9388    6.5859 H   0  0  0  0  0  0  0  0  0  0  0  0
   -2.6736    3.5526    7.9371 H   0  0  0  0  0  0  0  0  0  0  0  0
    0.8102    3.0761    8.9314 H   0  0  0  0  0  0  0  0  0  0  0  0
   -0.5622    2.0852    8.6180 H   0  0  0  0  0  0  0  0  0  0  0  0
   -0.7850    3.7518    8.8640 H   0  0  0  0  0  0  0  0  0  0  0  0
    1.3457    1.4725    7.5485 H   0  0  0  0  0  0  0  0  0  0  0  0
    0.0696    1.0135    6.5347 H   0  0  0  0  0  0  0  0  0  0  0  0
    2.7607    1.4957    5.9792 H   0  0  0  0  0  0  0  0  0  0  0  0
    0.6892    0.5498    4.0238 H   0  0  0  0  0  0  0  0  0  0  0  0
    1.6650   -0.4012    5.0897 H   0  0  0  0  0  0  0  0  0  0  0  0
    2.4398    0.4880    3.8224 H   0  0  0  0  0  0  0  0  0  0  0  0
    0.3889    6.5562    7.0283 H   0  0  0  0  0  0  0  0  0  0  0  0
   -0.2440    5.4152    7.9979 H   0  0  0  0  0  0  0  0  0  0  0  0
    1.8799    6.4869    8.9346 H   0  0  0  0  0  0  0  0  0  0  0  0
    2.0031    4.7864    9.0069 H   0  0  0  0  0  0  0  0  0  0  0  0
    5.2616    6.6326    7.9395 H   0  0  0  0  0  0  0  0  0  0  0  0
    4.5937    5.6648    9.2479 H   0  0  0  0  0  0  0  0  0  0  0  0
    3.9315    7.2379    8.8682 H   0  0  0  0  0  0  0  0  0  0  0  0
    2.2418    7.4152    6.8217 H   0  0  0  0  0  0  0  0  0  0  0  0
    4.8863    7.1662    5.5154 H   0  0  0  0  0  0  0  0  0  0  0  0
    4.1951    8.3792    6.5330 H   0  0  0  0  0  0  0  0  0  0  0  0
    3.5709    8.1674    4.9216 H   0  0  0  0  0  0  0  0  0  0  0  0
    1.7650    7.3415    3.9446 H   0  0  0  0  0  0  0  0  0  0  0  0
    0.5272    7.4129    5.1654 H   0  0  0  0  0  0  0  0  0  0  0  0
    0.4287    6.2523    3.8622 H   0  0  0  0  0  0  0  0  0  0  0  0
    2.9344    5.1114    3.4761 H   0  0  0  0  0  0  0  0  0  0  0  0
    4.0609    5.7115    4.4242 H   0  0  0  0  0  0  0  0  0  0  0  0
    4.0932    3.2592    4.7271 H   0  0  0  0  0  0  0  0  0  0  0  0
    5.8835    3.5238    6.1075 H   0  0  0  0  0  0  0  0  0  0  0  0
    5.9869    4.5819    7.4767 H   0  0  0  0  0  0  0  0  0  0  0  0
    5.7158    5.2429    5.8736 H   0  0  0  0  0  0  0  0  0  0  0  0
    4.2948    2.2232    7.4126 H   0  0  0  0  0  0  0  0  0  0  0  0
    2.7978    2.9331    8.0289 H   0  0  0  0  0  0  0  0  0  0  0  0
    4.3255    3.4080    8.7153 H   0  0  0  0  0  0  0  0  0  0  0  0
    0.4491    1.9557    2.9324 H   0  0  0  0  0  0  0  0  0  0  0  0
    0.1243    3.3650    2.1306 H   0  0  0  0  0  0  0  0  0  0  0  0
  1  2  1  0
  1 29  1  0
  1 30  1  0
  1 31  1  0
  2 13  1  0
  2  3  1  0
  2 32  1  6
  3  4  1  0
  3 33  1  0
  3 34  1  0
  4  5  1  0
  4  6  1  0
  4 35  1  6
  5 36  1  0
  5 37  1  0
  5 38  1  0
  6 15  1  0
  6  7  1  1
  6  8  1  0
  7 39  1  0
  7 40  1  0
  7 41  1  0
  8  9  1  0
  8 42  1  0
  8 43  1  0
  9 10  1  0
  9 11  1  0
  9 44  1  1
 10 45  1  0
 10 46  1  0
 10 47  1  0
 11 14  1  0
 11 25  1  0
 11 12  1  6
 12 13  1  0
 12 14  2  0
 13 71  1  0
 13 72  1  0
 14 15  1  0
 15 22  1  0
 15 16  1  0
 16 17  1  0
 16 48  1  0
 16 49  1  0
 17 18  1  0
 17 50  1  0
 17 51  1  0
 18 26  1  0
 18 19  1  1
 18 20  1  0
 19 52  1  0
 19 53  1  0
 19 54  1  0
 20 21  1  0
 20 22  1  0
 20 55  1  1
 21 56  1  0
 21 57  1  0
 21 58  1  0
 22 23  1  6
 22 24  1  0
 23 59  1  0
 23 60  1  0
 23 61  1  0
 24 25  1  0
 24 62  1  0
 24 63  1  0
 25 26  1  0
 25 64  1  6
 26 27  1  0
 26 28  1  0
 27 65  1  0
 27 66  1  0
 27 67  1  0
 28 68  1  0
 28 69  1  0
 28 70  1  0
M  CHG  1  13   1
M  END
>  <i_m_ct_stereo_status>  (198) 
1

>  <s_m_source_file>  (198) 
/var/tmp/pbs.5076255.sched01/tmprh8juyh8/78tr4t3sa2.sdf

>  <i_m_source_file_index>  (198) 
7

>  <i_lp_mmshare_version>  (198) 
48012

>  <i_f3d_flags>  (198) 
0

>  <s_epik_input>  (198) 
W0NIM11bQ0BASF0oL04xKVtDSDJdW0NAQEhdKFtDSDNdKVtDQEBdKFtDSDNdKShbQ0gyXVtDQEhdMltDSDNdKUMzKFtDSF00Qz0xXEMyNDUpW0NAQF02KFtDSDNdKVtDQEhdKFtDSDNdKVtDQEBdKFtDSDNdKShbQ0gyXVtDSDJdMylDKFtDSDNdKShbQ0gzXSlbQ0BASF01W0NIMl02

>  <s_epik_cmdline>  (198) 
J2VwaWtfcHl0aG9uJywgJy1waHQnLCAnMi4wJywgJy1waCcsICc3LjAnLCAnLXRuJywgJzgnLCAnLW1hJywgJzIwMCcsICctaW1hZScsICc8aW5maWxlLm1hZT4nLCAnLW9tYWUnLCAnPG91dGZpbGUubWFlPic=

>  <r_epik_Ionization_Penalty>  (198) 
4.01296

>  <r_epik_Ionization_Penalty_Charging>  (198) 
4.01296

>  <r_epik_Ionization_Penalty_Neutral>  (198) 
0

>  <r_epik_State_Penalty>  (198) 
2.57488

>  <r_epik_Charging_Adjusted_Penalty>  (198) 
6.58784

>  <i_epik_Tot_Q>  (198) 
1

>  <i_epik_Tot_abs_Q>  (198) 
1

>  <s_lp_Force_Field>  (198) 
OPLS3e

>  <r_lp_Energy>  (198) 
375.766

>  <b_lp_Chiralities_Consistent>  (198) 
1

>  <s_lp_Variant>  (198) 
67:0-2

>  <s_i_glide_gridfile>  (198) 
pfpi4k_grid

>  <i_i_glide_lignum>  (198) 
7

>  <i_i_glide_rotatable_bonds>  (198) 
0

>  <r_i_docking_score>  (198) 
-2.99581

>  <r_i_glide_ligand_efficiency>  (198) 
-0.106993

>  <r_i_glide_ligand_efficiency_sa>  (198) 
-0.324894

>  <r_i_glide_ligand_efficiency_ln>  (198) 
-0.69152

>  <r_i_glide_gscore>  (198) 
-2.99581

>  <r_i_glide_lipo>  (198) 
-0.186106

>  <r_i_glide_hbond>  (198) 
-0.2

>  <r_i_glide_metal>  (198) 
-0

>  <r_i_glide_rewards>  (198) 
-0.800148

>  <r_i_glide_evdw>  (198) 
-19.7954

>  <r_i_glide_ecoul>  (198) 
-4.82564

>  <r_i_glide_erotb>  (198) 
0

>  <r_i_glide_esite>  (198) 
-0.0959384

>  <r_i_glide_emodel>  (198) 
-29.7618

>  <r_i_glide_energy>  (198) 
-24.621

>  <r_i_glide_einternal>  (198) 
0

>  <r_i_glide_intrahb_reward>  (198) 
-0

>  <i_i_glide_confnum>  (198) 
2

>  <i_i_glide_posenum>  (198) 
22

>  <r_i_glide_eff_state_penalty>  (198) 
0

>  <ligand_id>  (198) 
67

>  <original_smiles>  (198) 
CC1CC(C)C2(C)CC(C)C34C(=N1)C3C21CCC2(C)C(C)C1(C)CC4C2(C)C

>  <smiles>  (198) 
[H]C([H])([H])C1([H])C([H])([H])C2(C([H])([H])[H])C([H])(C([H])([H])[H])C([H])([H])C([H])(C([H])([H])[H])[N+]([H])([H])C3=C4C31C1([H])C([H])([H])C3(C([H])([H])[H])C([H])(C([H])([H])[H])C(C([H])([H])[H])(C([H])([H])C([H])([H])C423)C1(C([H])([H])[H])C([H])([H])[H]

$$$$
67:1:2
     RDKit          3D

 72 77  0  0  1  0  0  0  0  0999 V2000
    2.6349   -1.6652    1.3302 C   0  0  0  0  0  0  0  0  0  0  0  0
    3.5679   -1.3422    2.5083 C   0  0  2  0  0  0  0  0  0  0  0  0
    3.3078   -2.1683    3.8088 C   0  0  0  0  0  0  0  0  0  0  0  0
    1.8608   -2.2275    4.4449 C   0  0  1  0  0  0  0  0  0  0  0  0
    1.6816   -3.6737    4.9741 C   0  0  0  0  0  0  0  0  0  0  0  0
    1.4092   -0.9941    5.4467 C   0  0  1  0  0  0  0  0  0  0  0  0
    0.6925   -1.7021    6.6742 C   0  0  0  0  0  0  0  0  0  0  0  0
    2.6385   -0.4773    6.3135 C   0  0  0  0  0  0  0  0  0  0  0  0
    3.2669    0.8167    5.8210 C   0  0  1  0  0  0  0  0  0  0  0  0
    4.7966    0.7618    5.6417 C   0  0  0  0  0  0  0  0  0  0  0  0
    2.4371    1.3350    4.6770 C   0  0  1  0  0  0  0  0  0  0  0  0
    2.6266    0.8983    3.2824 C   0  0  0  0  0  0  0  0  0  0  0  0
    3.7581    0.1069    2.7251 N   0  0  0  0  0  0  0  0  0  0  0  0
    1.6388    0.2343    3.8013 C   0  0  0  0  0  0  0  0  0  0  0  0
    0.4531    0.2647    4.7386 C   0  0  0  0  0  0  0  0  0  0  0  0
   -0.9436   -0.3363    4.8252 C   0  0  0  0  0  0  0  0  0  0  0  0
   -1.4814    0.6342    5.9297 C   0  0  0  0  0  0  0  0  0  0  0  0
   -1.1580    2.1862    5.7023 C   0  0  2  0  0  0  0  0  0  0  0  0
   -2.3049    2.9424    6.4447 C   0  0  0  0  0  0  0  0  0  0  0  0
   -1.3524    2.2356    4.1837 C   0  0  1  0  0  0  0  0  0  0  0  0
   -1.9037    3.5573    3.5676 C   0  0  0  0  0  0  0  0  0  0  0  0
   -0.0345    1.5616    3.6453 C   0  0  2  0  0  0  0  0  0  0  0  0
   -0.3263    1.1529    2.1529 C   0  0  0  0  0  0  0  0  0  0  0  0
    0.8774    2.8426    3.6566 C   0  0  0  0  0  0  0  0  0  0  0  0
    1.5674    2.6404    4.9705 C   0  0  1  0  0  0  0  0  0  0  0  0
    0.3514    2.7620    6.0951 C   0  0  0  0  0  0  0  0  0  0  0  0
    0.2599    4.2947    6.3664 C   0  0  0  0  0  0  0  0  0  0  0  0
    0.7328    2.2114    7.4793 C   0  0  0  0  0  0  0  0  0  0  0  0
    2.6277   -2.7368    1.1082 H   0  0  0  0  0  0  0  0  0  0  0  0
    2.9536   -1.1597    0.4114 H   0  0  0  0  0  0  0  0  0  0  0  0
    1.6011   -1.3611    1.5190 H   0  0  0  0  0  0  0  0  0  0  0  0
    4.5396   -1.6542    2.1618 H   0  0  0  0  0  0  0  0  0  0  0  0
    3.5989   -3.1878    3.5087 H   0  0  0  0  0  0  0  0  0  0  0  0
    4.0645   -1.9109    4.5403 H   0  0  0  0  0  0  0  0  0  0  0  0
    1.1514   -2.2338    3.6221 H   0  0  0  0  0  0  0  0  0  0  0  0
    2.3133   -3.8773    5.8417 H   0  0  0  0  0  0  0  0  0  0  0  0
    1.9437   -4.4038    4.2061 H   0  0  0  0  0  0  0  0  0  0  0  0
    0.6438   -3.9030    5.2211 H   0  0  0  0  0  0  0  0  0  0  0  0
    0.3119   -0.9917    7.4083 H   0  0  0  0  0  0  0  0  0  0  0  0
    1.3786   -2.3288    7.2378 H   0  0  0  0  0  0  0  0  0  0  0  0
   -0.1312   -2.3789    6.4610 H   0  0  0  0  0  0  0  0  0  0  0  0
    2.3845   -0.2943    7.3545 H   0  0  0  0  0  0  0  0  0  0  0  0
    3.3886   -1.2546    6.4206 H   0  0  0  0  0  0  0  0  0  0  0  0
    3.1528    1.5295    6.6264 H   0  0  0  0  0  0  0  0  0  0  0  0
    5.1307    0.0321    4.9180 H   0  0  0  0  0  0  0  0  0  0  0  0
    5.2787    0.4894    6.5814 H   0  0  0  0  0  0  0  0  0  0  0  0
    5.1992    1.7345    5.3753 H   0  0  0  0  0  0  0  0  0  0  0  0
   -1.5159   -0.3116    3.9176 H   0  0  0  0  0  0  0  0  0  0  0  0
   -1.0647   -1.3728    5.0642 H   0  0  0  0  0  0  0  0  0  0  0  0
   -2.5608    0.4907    5.9346 H   0  0  0  0  0  0  0  0  0  0  0  0
   -1.1961    0.3559    6.9482 H   0  0  0  0  0  0  0  0  0  0  0  0
   -2.3362    4.0053    6.2077 H   0  0  0  0  0  0  0  0  0  0  0  0
   -2.2220    2.8429    7.5229 H   0  0  0  0  0  0  0  0  0  0  0  0
   -3.2884    2.5597    6.1636 H   0  0  0  0  0  0  0  0  0  0  0  0
   -2.2105    1.6164    3.9134 H   0  0  0  0  0  0  0  0  0  0  0  0
   -1.4216    4.4687    3.9135 H   0  0  0  0  0  0  0  0  0  0  0  0
   -2.9580    3.6804    3.8195 H   0  0  0  0  0  0  0  0  0  0  0  0
   -1.8493    3.5561    2.4794 H   0  0  0  0  0  0  0  0  0  0  0  0
   -0.5194    2.0469    1.5662 H   0  0  0  0  0  0  0  0  0  0  0  0
   -1.2120    0.5359    2.0552 H   0  0  0  0  0  0  0  0  0  0  0  0
    0.4825    0.6416    1.6423 H   0  0  0  0  0  0  0  0  0  0  0  0
    1.5287    2.9445    2.7873 H   0  0  0  0  0  0  0  0  0  0  0  0
    0.4347    3.8233    3.5697 H   0  0  0  0  0  0  0  0  0  0  0  0
    2.3017    3.4188    5.1353 H   0  0  0  0  0  0  0  0  0  0  0  0
    1.2252    4.7120    6.6616 H   0  0  0  0  0  0  0  0  0  0  0  0
   -0.4193    4.5462    7.1926 H   0  0  0  0  0  0  0  0  0  0  0  0
   -0.0654    4.8701    5.5001 H   0  0  0  0  0  0  0  0  0  0  0  0
    1.6705    2.6294    7.8444 H   0  0  0  0  0  0  0  0  0  0  0  0
    0.8246    1.1343    7.4448 H   0  0  0  0  0  0  0  0  0  0  0  0
   -0.0332    2.4290    8.2308 H   0  0  0  0  0  0  0  0  0  0  0  0
    4.5629    0.3174    3.2675 H   0  0  0  0  0  0  0  0  0  0  0  0
    3.8819    0.4468    1.7634 H   0  0  0  0  0  0  0  0  0  0  0  0
  1  2  1  0
  1 29  1  0
  1 30  1  0
  1 31  1  0
  2 13  1  0
  2  3  1  0
  2 32  1  6
  3  4  1  0
  3 33  1  0
  3 34  1  0
  4  5  1  0
  4  6  1  0
  4 35  1  6
  5 36  1  0
  5 37  1  0
  5 38  1  0
  6 15  1  0
  6  7  1  1
  6  8  1  0
  7 39  1  0
  7 40  1  0
  7 41  1  0
  8  9  1  0
  8 42  1  0
  8 43  1  0
  9 10  1  0
  9 11  1  0
  9 44  1  1
 10 45  1  0
 10 46  1  0
 10 47  1  0
 11 14  1  0
 11 25  1  0
 11 12  1  6
 12 13  1  0
 12 14  2  0
 13 71  1  0
 13 72  1  0
 14 15  1  0
 15 22  1  0
 15 16  1  0
 16 17  1  0
 16 48  1  0
 16 49  1  0
 17 18  1  0
 17 50  1  0
 17 51  1  0
 18 26  1  0
 18 19  1  1
 18 20  1  0
 19 52  1  0
 19 53  1  0
 19 54  1  0
 20 21  1  0
 20 22  1  0
 20 55  1  1
 21 56  1  0
 21 57  1  0
 21 58  1  0
 22 23  1  6
 22 24  1  0
 23 59  1  0
 23 60  1  0
 23 61  1  0
 24 25  1  0
 24 62  1  0
 24 63  1  0
 25 26  1  0
 25 64  1  1
 26 27  1  0
 26 28  1  0
 27 65  1  0
 27 66  1  0
 27 67  1  0
 28 68  1  0
 28 69  1  0
 28 70  1  0
M  CHG  1  13   1
M  END
>  <i_m_ct_stereo_status>  (199) 
1

>  <s_m_source_file>  (199) 
/var/tmp/pbs.5076255.sched01/tmprh8juyh8/78tr4t3sa2.sdf

>  <i_m_source_file_index>  (199) 
7

>  <i_lp_mmshare_version>  (199) 
48012

>  <i_f3d_flags>  (199) 
0

>  <s_epik_input>  (199) 
W0NIM11bQ0BASF0oL04xKVtDSDJdW0NAQEhdKFtDSDNdKVtDQEBdKFtDSDNdKShbQ0gyXVtDQEhdMltDSDNdKUMzKFtDSF00Qz0xXEMyNDUpW0NAQF02KFtDSDNdKVtDQEhdKFtDSDNdKVtDQEBdKFtDSDNdKShbQ0gyXVtDSDJdMylDKFtDSDNdKShbQ0gzXSlbQ0BASF01W0NIMl02

>  <s_epik_cmdline>  (199) 
J2VwaWtfcHl0aG9uJywgJy1waHQnLCAnMi4wJywgJy1waCcsICc3LjAnLCAnLXRuJywgJzgnLCAnLW1hJywgJzIwMCcsICctaW1hZScsICc8aW5maWxlLm1hZT4nLCAnLW9tYWUnLCAnPG91dGZpbGUubWFlPic=

>  <r_epik_Ionization_Penalty>  (199) 
4.01296

>  <r_epik_Ionization_Penalty_Charging>  (199) 
4.01296

>  <r_epik_Ionization_Penalty_Neutral>  (199) 
0

>  <r_epik_State_Penalty>  (199) 
2.57488

>  <r_epik_Charging_Adjusted_Penalty>  (199) 
6.58784

>  <i_epik_Tot_Q>  (199) 
1

>  <i_epik_Tot_abs_Q>  (199) 
1

>  <s_lp_Force_Field>  (199) 
OPLS3e

>  <r_lp_Energy>  (199) 
375.766

>  <b_lp_Chiralities_Consistent>  (199) 
1

>  <s_lp_Variant>  (199) 
67:0-2

>  <s_i_glide_gridfile>  (199) 
pfpi4k_grid

>  <i_i_glide_lignum>  (199) 
7

>  <i_i_glide_rotatable_bonds>  (199) 
0

>  <r_i_docking_score>  (199) 
-2.47109

>  <r_i_glide_ligand_efficiency>  (199) 
-0.0882533

>  <r_i_glide_ligand_efficiency_sa>  (199) 
-0.267989

>  <r_i_glide_ligand_efficiency_ln>  (199) 
-0.570401

>  <r_i_glide_gscore>  (199) 
-2.47109

>  <r_i_glide_lipo>  (199) 
-0.142952

>  <r_i_glide_hbond>  (199) 
0

>  <r_i_glide_metal>  (199) 
-0

>  <r_i_glide_rewards>  (199) 
-0.800148

>  <r_i_glide_evdw>  (199) 
-25.1105

>  <r_i_glide_ecoul>  (199) 
-1.81644

>  <r_i_glide_erotb>  (199) 
0

>  <r_i_glide_esite>  (199) 
0

>  <r_i_glide_emodel>  (199) 
-31.0053

>  <r_i_glide_energy>  (199) 
-26.927

>  <r_i_glide_einternal>  (199) 
0

>  <r_i_glide_intrahb_reward>  (199) 
-0

>  <i_i_glide_confnum>  (199) 
2

>  <i_i_glide_posenum>  (199) 
29

>  <r_i_glide_eff_state_penalty>  (199) 
0

>  <ligand_id>  (199) 
67

>  <original_smiles>  (199) 
CC1CC(C)C2(C)CC(C)C34C(=N1)C3C21CCC2(C)C(C)C1(C)CC4C2(C)C

>  <smiles>  (199) 
[H]C([H])([H])C1([H])C([H])([H])C2(C([H])([H])[H])C([H])(C([H])([H])[H])C([H])([H])C([H])(C([H])([H])[H])[N+]([H])([H])C3=C4C31C1([H])C([H])([H])C3(C([H])([H])[H])C([H])(C([H])([H])[H])C(C([H])([H])[H])(C([H])([H])C([H])([H])C423)C1(C([H])([H])[H])C([H])([H])[H]

$$$$
68:0:0
     RDKit          3D

 60 63  0  0  1  0  0  0  0  0999 V2000
    3.4095    2.1797    8.6481 C   0  0  0  0  0  0  0  0  0  0  0  0
    3.2862    2.9578    7.5512 C   0  0  0  0  0  0  0  0  0  0  0  0
    2.0573    3.8297    7.3721 C   0  0  1  0  0  0  0  0  0  0  0  0
    2.3711    5.1653    7.7169 O   0  0  0  0  0  0  0  0  0  0  0  0
    1.3687    3.7634    5.9503 C   0  0  1  0  0  0  0  0  0  0  0  0
    2.3354    3.8030    4.6847 C   0  0  2  0  0  0  0  0  0  0  0  0
    2.4065    5.3166    4.4682 C   0  0  0  0  0  0  0  0  0  0  0  0
    0.9632    5.8168    4.0266 C   0  0  0  0  0  0  0  0  0  0  0  0
   -0.3625    4.8845    4.0772 C   0  0  1  0  0  0  0  0  0  0  0  0
   -1.1041    5.2518    2.9191 O   0  0  0  0  0  0  0  0  0  0  0  0
   -0.4518    3.2673    4.3530 C   0  0  1  0  0  0  0  0  0  0  0  0
   -1.9810    2.9941    4.4967 C   0  0  0  0  0  0  0  0  0  0  0  0
   -0.1046    2.4456    3.0867 C   0  0  0  0  0  0  0  0  0  0  0  0
    1.2715    2.2466    2.8907 O   0  0  0  0  0  0  0  0  0  0  0  0
    2.0396    3.3946    3.1489 C   0  0  0  0  0  0  0  0  0  0  0  0
    0.3354    2.6899    5.6683 C   0  0  2  0  0  0  0  0  0  0  0  0
   -0.6178    2.5695    6.8973 C   0  0  0  0  0  0  0  0  0  0  0  0
    1.2012    1.3321    5.6212 C   0  0  1  0  0  0  0  0  0  0  0  0
    0.5076    0.2248    5.0409 O   0  0  0  0  0  0  0  0  0  0  0  0
   -0.2603   -0.5982    5.7832 C   0  0  0  0  0  0  0  0  0  0  0  0
   -0.8628   -1.7352    4.9736 C   0  0  0  0  0  0  0  0  0  0  0  0
   -0.5009   -0.4938    6.9831 O   0  0  0  0  0  0  0  0  0  0  0  0
    2.6778    1.3821    5.0763 C   0  0  0  0  0  0  0  0  0  0  0  0
    3.2260    0.3646    4.6364 O   0  0  0  0  0  0  0  0  0  0  0  0
    3.4415    2.7563    5.0614 C   0  0  2  0  0  0  0  0  0  0  0  0
    4.2656    2.9589    6.3738 C   0  0  0  0  0  0  0  0  0  0  0  0
    5.0829    4.2704    6.3381 C   0  0  0  0  0  0  0  0  0  0  0  0
    5.3226    1.8237    6.4964 C   0  0  0  0  0  0  0  0  0  0  0  0
    4.2448    1.5175    8.8027 H   0  0  0  0  0  0  0  0  0  0  0  0
    2.6638    2.2088    9.4239 H   0  0  0  0  0  0  0  0  0  0  0  0
    1.3560    3.5673    8.1558 H   0  0  0  0  0  0  0  0  0  0  0  0
    2.9694    5.5094    7.0748 H   0  0  0  0  0  0  0  0  0  0  0  0
    0.7696    4.6534    6.1088 H   0  0  0  0  0  0  0  0  0  0  0  0
    2.6950    5.8700    5.3568 H   0  0  0  0  0  0  0  0  0  0  0  0
    3.1481    5.5799    3.7106 H   0  0  0  0  0  0  0  0  0  0  0  0
    0.7423    6.7063    4.6234 H   0  0  0  0  0  0  0  0  0  0  0  0
    1.0711    6.2306    3.0196 H   0  0  0  0  0  0  0  0  0  0  0  0
   -0.9427    5.3184    4.8913 H   0  0  0  0  0  0  0  0  0  0  0  0
   -0.6085    4.9542    2.1479 H   0  0  0  0  0  0  0  0  0  0  0  0
   -2.1892    1.9379    4.6783 H   0  0  0  0  0  0  0  0  0  0  0  0
   -2.5232    3.2518    3.5865 H   0  0  0  0  0  0  0  0  0  0  0  0
   -2.4319    3.5765    5.3010 H   0  0  0  0  0  0  0  0  0  0  0  0
   -0.5427    1.4497    3.1361 H   0  0  0  0  0  0  0  0  0  0  0  0
   -0.5494    2.8777    2.1955 H   0  0  0  0  0  0  0  0  0  0  0  0
    1.6494    4.1584    2.4821 H   0  0  0  0  0  0  0  0  0  0  0  0
    2.9948    3.2155    2.6573 H   0  0  0  0  0  0  0  0  0  0  0  0
   -1.4461    1.8855    6.7225 H   0  0  0  0  0  0  0  0  0  0  0  0
   -1.0332    3.5326    7.1991 H   0  0  0  0  0  0  0  0  0  0  0  0
   -0.1088    2.1422    7.7606 H   0  0  0  0  0  0  0  0  0  0  0  0
    1.3974    1.0576    6.6559 H   0  0  0  0  0  0  0  0  0  0  0  0
   -1.4008   -1.3502    4.1065 H   0  0  0  0  0  0  0  0  0  0  0  0
   -1.5610   -2.2979    5.5948 H   0  0  0  0  0  0  0  0  0  0  0  0
   -0.0752   -2.4116    4.6400 H   0  0  0  0  0  0  0  0  0  0  0  0
    4.1736    2.7111    4.2570 H   0  0  0  0  0  0  0  0  0  0  0  0
    5.7588    4.2876    5.4852 H   0  0  0  0  0  0  0  0  0  0  0  0
    5.6857    4.3625    7.2411 H   0  0  0  0  0  0  0  0  0  0  0  0
    4.4720    5.1622    6.2769 H   0  0  0  0  0  0  0  0  0  0  0  0
    5.9315    1.7561    5.5961 H   0  0  0  0  0  0  0  0  0  0  0  0
    4.8707    0.8439    6.6512 H   0  0  0  0  0  0  0  0  0  0  0  0
    5.9972    2.0030    7.3324 H   0  0  0  0  0  0  0  0  0  0  0  0
  1  2  2  0
  1 29  1  0
  1 30  1  0
  2 26  1  0
  2  3  1  0
  3  4  1  0
  3  5  1  0
  3 31  1  1
  4 32  1  0
  5 16  1  0
  5  6  1  0
  5 33  1  6
  6 15  1  6
  6 25  1  0
  6  7  1  0
  7  8  1  0
  7 34  1  0
  7 35  1  0
  8  9  1  0
  8 36  1  0
  8 37  1  0
  9 10  1  0
  9 11  1  0
  9 38  1  1
 10 39  1  0
 11 12  1  1
 11 13  1  0
 11 16  1  0
 12 40  1  0
 12 41  1  0
 12 42  1  0
 13 14  1  0
 13 43  1  0
 13 44  1  0
 14 15  1  0
 15 45  1  0
 15 46  1  0
 16 17  1  1
 16 18  1  0
 17 47  1  0
 17 48  1  0
 17 49  1  0
 18 19  1  0
 18 23  1  0
 18 50  1  1
 19 20  1  0
 20 21  1  0
 20 22  2  0
 21 51  1  0
 21 52  1  0
 21 53  1  0
 23 24  2  0
 23 25  1  0
 25 26  1  0
 25 54  1  6
 26 27  1  0
 26 28  1  0
 27 55  1  0
 27 56  1  0
 27 57  1  0
 28 58  1  0
 28 59  1  0
 28 60  1  0
M  END
>  <i_m_ct_stereo_status>  (200) 
1

>  <s_m_source_file>  (200) 
/var/tmp/pbs.5076255.sched01/tmprh8juyh8/78tr4t3sa2.sdf

>  <i_m_source_file_index>  (200) 
8

>  <i_lp_mmshare_version>  (200) 
48012

>  <i_f3d_flags>  (200) 
0

>  <s_epik_input>  (200) 
W09IXVtDQEBIXTFDKD1bQ0gyXSlDKFtDSDNdKShbQ0gzXSlbQ0BIXTJDKD1PKVtDQEhdKE9DKD1PKVtDSDNdKVtDQF0oW0NAQEhdMVtDQF0yMzQpKFtDSDNdKVtDQEBdKFtDSDNdKShbQ0BIXShbT0hdKVtDSDJdW0NIMl0zKVtDSDJdT1tDSDJdNA==

>  <s_epik_cmdline>  (200) 
J2VwaWtfcHl0aG9uJywgJy1waHQnLCAnMi4wJywgJy1waCcsICc3LjAnLCAnLXRuJywgJzgnLCAnLW1hJywgJzIwMCcsICctaW1hZScsICc8aW5maWxlLm1hZT4nLCAnLW9tYWUnLCAnPG91dGZpbGUubWFlPic=

>  <r_lp_tautomer_probability>  (200) 
1

>  <r_epik_Ionization_Penalty>  (200) 
3.04221e-07

>  <r_epik_Ionization_Penalty_Charging>  (200) 
0

>  <r_epik_Ionization_Penalty_Neutral>  (200) 
3.04221e-07

>  <r_epik_State_Penalty>  (200) 
-0

>  <r_epik_Charging_Adjusted_Penalty>  (200) 
0

>  <i_epik_Tot_Q>  (200) 
0

>  <i_epik_Tot_abs_Q>  (200) 
0

>  <s_epik_Chemistry_Notes>  (200) 
This compound has an ester and may undergo hydrolysis at high or low pH.

>  <s_lp_Force_Field>  (200) 
OPLS3e

>  <r_lp_Energy>  (200) 
156.805

>  <b_lp_Chiralities_Consistent>  (200) 
1

>  <s_lp_Variant>  (200) 
68:0-1

>  <s_i_glide_gridfile>  (200) 
pfpi4k_grid

>  <i_i_glide_lignum>  (200) 
8

>  <i_i_glide_rotatable_bonds>  (200) 
4

>  <r_i_docking_score>  (200) 
-3.24204

>  <r_i_glide_ligand_efficiency>  (200) 
-0.115787

>  <r_i_glide_ligand_efficiency_sa>  (200) 
-0.351598

>  <r_i_glide_ligand_efficiency_ln>  (200) 
-0.748358

>  <r_i_glide_gscore>  (200) 
-3.24204

>  <r_i_glide_lipo>  (200) 
-0.0196828

>  <r_i_glide_hbond>  (200) 
-0.35089

>  <r_i_glide_metal>  (200) 
-0

>  <r_i_glide_rewards>  (200) 
-0.733051

>  <r_i_glide_evdw>  (200) 
-18.8568

>  <r_i_glide_ecoul>  (200) 
-8.6186

>  <r_i_glide_erotb>  (200) 
0.12675

>  <r_i_glide_esite>  (200) 
-0.0295328

>  <r_i_glide_emodel>  (200) 
-33.8554

>  <r_i_glide_energy>  (200) 
-27.4754

>  <r_i_glide_einternal>  (200) 
0.163038

>  <r_i_glide_intrahb_reward>  (200) 
-0

>  <i_i_glide_confnum>  (200) 
3

>  <i_i_glide_posenum>  (200) 
7

>  <r_i_glide_eff_state_penalty>  (200) 
0

>  <ligand_id>  (200) 
68

>  <original_smiles>  (200) 
C=C1C(O)C2C34CCC(O)C(C)(COC3)C2(C)C(OC(C)=O)C(=O)C4C1(C)C

>  <smiles>  (200) 
[H]OC1([H])C(=C([H])[H])C(C([H])([H])[H])(C([H])([H])[H])C2([H])C(=O)C([H])(OC(=O)C([H])([H])[H])C3(C([H])([H])[H])C1([H])C21C([H])([H])OC([H])([H])C3(C([H])([H])[H])C([H])(O[H])C([H])([H])C1([H])[H]

$$$$
68:0:1
     RDKit          3D

 60 63  0  0  1  0  0  0  0  0999 V2000
    3.3515    2.4806    8.7350 C   0  0  0  0  0  0  0  0  0  0  0  0
    3.1971    3.1578    7.5781 C   0  0  0  0  0  0  0  0  0  0  0  0
    1.9703    4.0252    7.3627 C   0  0  1  0  0  0  0  0  0  0  0  0
    2.3045    5.3777    7.5859 O   0  0  0  0  0  0  0  0  0  0  0  0
    1.2374    3.8511    5.9724 C   0  0  1  0  0  0  0  0  0  0  0  0
    2.1644    3.7636    4.6773 C   0  0  2  0  0  0  0  0  0  0  0  0
    2.2311    5.2509    4.3302 C   0  0  0  0  0  0  0  0  0  0  0  0
    0.7744    5.7245    3.8935 C   0  0  0  0  0  0  0  0  0  0  0  0
   -0.5567    4.8129    4.0649 C   0  0  1  0  0  0  0  0  0  0  0  0
   -1.3395    5.0778    2.9051 O   0  0  0  0  0  0  0  0  0  0  0  0
   -0.6424    3.2298    4.4778 C   0  0  1  0  0  0  0  0  0  0  0  0
   -2.1674    2.9795    4.7068 C   0  0  0  0  0  0  0  0  0  0  0  0
   -0.3448    2.3060    3.2701 C   0  0  0  0  0  0  0  0  0  0  0  0
    1.0219    2.0707    3.0611 O   0  0  0  0  0  0  0  0  0  0  0  0
    1.8115    3.2256    3.1952 C   0  0  0  0  0  0  0  0  0  0  0  0
    0.1930    2.7687    5.8092 C   0  0  2  0  0  0  0  0  0  0  0  0
   -0.7207    2.7393    7.0729 C   0  0  0  0  0  0  0  0  0  0  0  0
    1.0585    1.4244    5.8599 C   0  0  1  0  0  0  0  0  0  0  0  0
    0.2953    0.2812    5.4694 O   0  0  0  0  0  0  0  0  0  0  0  0
   -0.1647   -0.6602    6.3303 C   0  0  0  0  0  0  0  0  0  0  0  0
    0.3632   -0.5789    7.7628 C   0  0  0  0  0  0  0  0  0  0  0  0
   -0.9659   -1.5358    6.0107 O   0  0  0  0  0  0  0  0  0  0  0  0
    2.5110    1.3850    5.2495 C   0  0  0  0  0  0  0  0  0  0  0  0
    3.0307    0.3266    4.9068 O   0  0  0  0  0  0  0  0  0  0  0  0
    3.2845    2.7484    5.0969 C   0  0  2  0  0  0  0  0  0  0  0  0
    4.1399    3.0472    6.3717 C   0  0  0  0  0  0  0  0  0  0  0  0
    4.9616    4.3414    6.2004 C   0  0  0  0  0  0  0  0  0  0  0  0
    5.1905    1.9186    6.5662 C   0  0  0  0  0  0  0  0  0  0  0  0
    4.1882    1.8271    8.9243 H   0  0  0  0  0  0  0  0  0  0  0  0
    2.6344    2.5860    9.5321 H   0  0  0  0  0  0  0  0  0  0  0  0
    1.2991    3.8435    8.1930 H   0  0  0  0  0  0  0  0  0  0  0  0
    2.8911    5.6595    6.8990 H   0  0  0  0  0  0  0  0  0  0  0  0
    0.6465    4.7572    6.0754 H   0  0  0  0  0  0  0  0  0  0  0  0
    2.5526    5.8755    5.1590 H   0  0  0  0  0  0  0  0  0  0  0  0
    2.9469    5.4365    3.5269 H   0  0  0  0  0  0  0  0  0  0  0  0
    0.5815    6.6624    4.4194 H   0  0  0  0  0  0  0  0  0  0  0  0
    0.8543    6.0443    2.8517 H   0  0  0  0  0  0  0  0  0  0  0  0
   -1.0955    5.3095    4.8703 H   0  0  0  0  0  0  0  0  0  0  0  0
   -0.8194    4.8039    2.1440 H   0  0  0  0  0  0  0  0  0  0  0  0
   -2.3679    1.9448    4.9937 H   0  0  0  0  0  0  0  0  0  0  0  0
   -2.7476    3.1559    3.7993 H   0  0  0  0  0  0  0  0  0  0  0  0
   -2.5864    3.6328    5.4752 H   0  0  0  0  0  0  0  0  0  0  0  0
   -0.7912    1.3241    3.4225 H   0  0  0  0  0  0  0  0  0  0  0  0
   -0.7940    2.6681    2.3440 H   0  0  0  0  0  0  0  0  0  0  0  0
    1.4163    3.9342    2.4776 H   0  0  0  0  0  0  0  0  0  0  0  0
    2.7494    2.9902    2.6956 H   0  0  0  0  0  0  0  0  0  0  0  0
   -1.5122    1.9923    7.0065 H   0  0  0  0  0  0  0  0  0  0  0  0
   -1.1780    3.7118    7.2783 H   0  0  0  0  0  0  0  0  0  0  0  0
   -0.1753    2.4418    7.9656 H   0  0  0  0  0  0  0  0  0  0  0  0
    1.3357    1.3229    6.9026 H   0  0  0  0  0  0  0  0  0  0  0  0
    1.4543   -0.6267    7.7856 H   0  0  0  0  0  0  0  0  0  0  0  0
   -0.0026   -1.4156    8.3694 H   0  0  0  0  0  0  0  0  0  0  0  0
    0.0271    0.3387    8.2494 H   0  0  0  0  0  0  0  0  0  0  0  0
    3.9972    2.6296    4.2779 H   0  0  0  0  0  0  0  0  0  0  0  0
    5.6065    4.2784    5.3242 H   0  0  0  0  0  0  0  0  0  0  0  0
    5.5968    4.5071    7.0715 H   0  0  0  0  0  0  0  0  0  0  0  0
    4.3552    5.2296    6.0812 H   0  0  0  0  0  0  0  0  0  0  0  0
    5.7697    1.7687    5.6550 H   0  0  0  0  0  0  0  0  0  0  0  0
    4.7368    0.9615    6.8217 H   0  0  0  0  0  0  0  0  0  0  0  0
    5.8936    2.1664    7.3619 H   0  0  0  0  0  0  0  0  0  0  0  0
  1  2  2  0
  1 29  1  0
  1 30  1  0
  2 26  1  0
  2  3  1  0
  3  4  1  0
  3  5  1  0
  3 31  1  1
  4 32  1  0
  5 16  1  0
  5  6  1  0
  5 33  1  6
  6 15  1  6
  6 25  1  0
  6  7  1  0
  7  8  1  0
  7 34  1  0
  7 35  1  0
  8  9  1  0
  8 36  1  0
  8 37  1  0
  9 10  1  0
  9 11  1  0
  9 38  1  1
 10 39  1  0
 11 12  1  1
 11 13  1  0
 11 16  1  0
 12 40  1  0
 12 41  1  0
 12 42  1  0
 13 14  1  0
 13 43  1  0
 13 44  1  0
 14 15  1  0
 15 45  1  0
 15 46  1  0
 16 17  1  1
 16 18  1  0
 17 47  1  0
 17 48  1  0
 17 49  1  0
 18 19  1  0
 18 23  1  0
 18 50  1  1
 19 20  1  0
 20 21  1  0
 20 22  2  0
 21 51  1  0
 21 52  1  0
 21 53  1  0
 23 24  2  0
 23 25  1  0
 25 26  1  0
 25 54  1  6
 26 27  1  0
 26 28  1  0
 27 55  1  0
 27 56  1  0
 27 57  1  0
 28 58  1  0
 28 59  1  0
 28 60  1  0
M  END
>  <i_m_ct_stereo_status>  (201) 
1

>  <s_m_source_file>  (201) 
/var/tmp/pbs.5076255.sched01/tmprh8juyh8/78tr4t3sa2.sdf

>  <i_m_source_file_index>  (201) 
8

>  <i_lp_mmshare_version>  (201) 
48012

>  <i_f3d_flags>  (201) 
0

>  <s_epik_input>  (201) 
W09IXVtDQEBIXTFDKD1bQ0gyXSlDKFtDSDNdKShbQ0gzXSlbQ0BIXTJDKD1PKVtDQEhdKE9DKD1PKVtDSDNdKVtDQF0oW0NAQEhdMVtDQF0yMzQpKFtDSDNdKVtDQEBdKFtDSDNdKShbQ0BIXShbT0hdKVtDSDJdW0NIMl0zKVtDSDJdT1tDSDJdNA==

>  <s_epik_cmdline>  (201) 
J2VwaWtfcHl0aG9uJywgJy1waHQnLCAnMi4wJywgJy1waCcsICc3LjAnLCAnLXRuJywgJzgnLCAnLW1hJywgJzIwMCcsICctaW1hZScsICc8aW5maWxlLm1hZT4nLCAnLW9tYWUnLCAnPG91dGZpbGUubWFlPic=

>  <r_lp_tautomer_probability>  (201) 
1

>  <r_epik_Ionization_Penalty>  (201) 
3.04221e-07

>  <r_epik_Ionization_Penalty_Charging>  (201) 
0

>  <r_epik_Ionization_Penalty_Neutral>  (201) 
3.04221e-07

>  <r_epik_State_Penalty>  (201) 
-0

>  <r_epik_Charging_Adjusted_Penalty>  (201) 
0

>  <i_epik_Tot_Q>  (201) 
0

>  <i_epik_Tot_abs_Q>  (201) 
0

>  <s_epik_Chemistry_Notes>  (201) 
This compound has an ester and may undergo hydrolysis at high or low pH.

>  <s_lp_Force_Field>  (201) 
OPLS3e

>  <r_lp_Energy>  (201) 
156.805

>  <b_lp_Chiralities_Consistent>  (201) 
1

>  <s_lp_Variant>  (201) 
68:0-1

>  <s_i_glide_gridfile>  (201) 
pfpi4k_grid

>  <i_i_glide_lignum>  (201) 
8

>  <i_i_glide_rotatable_bonds>  (201) 
4

>  <r_i_docking_score>  (201) 
-2.94866

>  <r_i_glide_ligand_efficiency>  (201) 
-0.105309

>  <r_i_glide_ligand_efficiency_sa>  (201) 
-0.319781

>  <r_i_glide_ligand_efficiency_ln>  (201) 
-0.680638

>  <r_i_glide_gscore>  (201) 
-2.94866

>  <r_i_glide_lipo>  (201) 
-0.0109549

>  <r_i_glide_hbond>  (201) 
-0.32

>  <r_i_glide_metal>  (201) 
-0

>  <r_i_glide_rewards>  (201) 
-0.733051

>  <r_i_glide_evdw>  (201) 
-20.0739

>  <r_i_glide_ecoul>  (201) 
-6.46941

>  <r_i_glide_erotb>  (201) 
0.12675

>  <r_i_glide_esite>  (201) 
-0.0373017

>  <r_i_glide_emodel>  (201) 
-29.5921

>  <r_i_glide_energy>  (201) 
-26.5433

>  <r_i_glide_einternal>  (201) 
5.48036

>  <r_i_glide_intrahb_reward>  (201) 
-0

>  <i_i_glide_confnum>  (201) 
3

>  <i_i_glide_posenum>  (201) 
21

>  <r_i_glide_eff_state_penalty>  (201) 
0

>  <ligand_id>  (201) 
68

>  <original_smiles>  (201) 
C=C1C(O)C2C34CCC(O)C(C)(COC3)C2(C)C(OC(C)=O)C(=O)C4C1(C)C

>  <smiles>  (201) 
[H]OC1([H])C(=C([H])[H])C(C([H])([H])[H])(C([H])([H])[H])C2([H])C(=O)C([H])(OC(=O)C([H])([H])[H])C3(C([H])([H])[H])C1([H])C21C([H])([H])OC([H])([H])C3(C([H])([H])[H])C([H])(O[H])C([H])([H])C1([H])[H]

$$$$
68:0:2
     RDKit          3D

 60 63  0  0  1  0  0  0  0  0999 V2000
    3.3468   -0.3050    7.5428 C   0  0  0  0  0  0  0  0  0  0  0  0
    3.3093    0.5383    6.4961 C   0  0  0  0  0  0  0  0  0  0  0  0
    2.7012    1.9224    6.6481 C   0  0  1  0  0  0  0  0  0  0  0  0
    3.7302    2.8774    6.8057 O   0  0  0  0  0  0  0  0  0  0  0  0
    1.6911    2.3631    5.5128 C   0  0  1  0  0  0  0  0  0  0  0  0
    2.1243    2.0576    4.0064 C   0  0  2  0  0  0  0  0  0  0  0  0
    2.8664    3.3595    3.6995 C   0  0  0  0  0  0  0  0  0  0  0  0
    1.8059    4.5461    3.6966 C   0  0  0  0  0  0  0  0  0  0  0  0
    0.2766    4.3890    4.2054 C   0  0  1  0  0  0  0  0  0  0  0  0
   -0.4871    5.1671    3.3051 O   0  0  0  0  0  0  0  0  0  0  0  0
   -0.5167    3.0015    4.5872 C   0  0  1  0  0  0  0  0  0  0  0  0
   -1.8512    3.4896    5.2296 C   0  0  0  0  0  0  0  0  0  0  0  0
   -1.0278    2.2658    3.3207 C   0  0  0  0  0  0  0  0  0  0  0  0
   -0.0702    1.4500    2.7079 O   0  0  0  0  0  0  0  0  0  0  0  0
    1.2135    2.0257    2.6611 C   0  0  0  0  0  0  0  0  0  0  0  0
    0.2340    1.9581    5.6089 C   0  0  2  0  0  0  0  0  0  0  0  0
   -0.2607    2.1429    7.0869 C   0  0  0  0  0  0  0  0  0  0  0  0
    0.2902    0.3721    5.3540 C   0  0  1  0  0  0  0  0  0  0  0  0
   -1.0065   -0.2071    5.2067 O   0  0  0  0  0  0  0  0  0  0  0  0
   -1.3700   -1.4251    5.6536 C   0  0  0  0  0  0  0  0  0  0  0  0
   -0.2727   -2.3692    6.1440 C   0  0  0  0  0  0  0  0  0  0  0  0
   -2.5348   -1.7884    5.7005 O   0  0  0  0  0  0  0  0  0  0  0  0
    1.3264   -0.2302    4.3181 C   0  0  0  0  0  0  0  0  0  0  0  0
    1.0589   -1.1920    3.6211 O   0  0  0  0  0  0  0  0  0  0  0  0
    2.6418    0.5814    4.0664 C   0  0  2  0  0  0  0  0  0  0  0  0
    3.7589    0.1823    5.0745 C   0  0  0  0  0  0  0  0  0  0  0  0
    5.0749    0.8997    4.7297 C   0  0  0  0  0  0  0  0  0  0  0  0
    4.0784   -1.3311    4.9330 C   0  0  0  0  0  0  0  0  0  0  0  0
    3.7460   -1.3080    7.4785 H   0  0  0  0  0  0  0  0  0  0  0  0
    2.9892    0.0037    8.5181 H   0  0  0  0  0  0  0  0  0  0  0  0
    2.2309    1.9644    7.6296 H   0  0  0  0  0  0  0  0  0  0  0  0
    4.1941    2.9545    5.9804 H   0  0  0  0  0  0  0  0  0  0  0  0
    1.6883    3.4073    5.8114 H   0  0  0  0  0  0  0  0  0  0  0  0
    3.6515    3.5902    4.4229 H   0  0  0  0  0  0  0  0  0  0  0  0
    3.3782    3.2982    2.7292 H   0  0  0  0  0  0  0  0  0  0  0  0
    2.2567    5.3509    4.2774 H   0  0  0  0  0  0  0  0  0  0  0  0
    1.8079    4.9429    2.6783 H   0  0  0  0  0  0  0  0  0  0  0  0
    0.2629    4.9561    5.1378 H   0  0  0  0  0  0  0  0  0  0  0  0
   -0.2460    4.9027    2.3920 H   0  0  0  0  0  0  0  0  0  0  0  0
   -2.4994    2.6634    5.5329 H   0  0  0  0  0  0  0  0  0  0  0  0
   -2.4334    4.0773    4.5219 H   0  0  0  0  0  0  0  0  0  0  0  0
   -1.6811    4.1290    6.0970 H   0  0  0  0  0  0  0  0  0  0  0  0
   -1.8641    1.6088    3.5660 H   0  0  0  0  0  0  0  0  0  0  0  0
   -1.4187    2.9527    2.5712 H   0  0  0  0  0  0  0  0  0  0  0  0
    1.0875    2.9466    2.0979 H   0  0  0  0  0  0  0  0  0  0  0  0
    1.7427    1.4324    1.9160 H   0  0  0  0  0  0  0  0  0  0  0  0
   -1.3239    1.9352    7.2173 H   0  0  0  0  0  0  0  0  0  0  0  0
   -0.0632    3.1509    7.4588 H   0  0  0  0  0  0  0  0  0  0  0  0
    0.2171    1.4556    7.7854 H   0  0  0  0  0  0  0  0  0  0  0  0
    0.6537   -0.0065    6.2988 H   0  0  0  0  0  0  0  0  0  0  0  0
    0.4519   -2.5920    5.3508 H   0  0  0  0  0  0  0  0  0  0  0  0
   -0.7034   -3.3200    6.4807 H   0  0  0  0  0  0  0  0  0  0  0  0
    0.2486   -1.9454    7.0028 H   0  0  0  0  0  0  0  0  0  0  0  0
    3.0141    0.3000    3.0810 H   0  0  0  0  0  0  0  0  0  0  0  0
    5.3680    0.6817    3.6977 H   0  0  0  0  0  0  0  0  0  0  0  0
    5.8938    0.5866    5.3867 H   0  0  0  0  0  0  0  0  0  0  0  0
    4.9939    1.9777    4.8204 H   0  0  0  0  0  0  0  0  0  0  0  0
    4.2744   -1.5924    3.8915 H   0  0  0  0  0  0  0  0  0  0  0  0
    3.2612   -1.9672    5.2757 H   0  0  0  0  0  0  0  0  0  0  0  0
    4.9669   -1.6099    5.5037 H   0  0  0  0  0  0  0  0  0  0  0  0
  1  2  2  0
  1 29  1  0
  1 30  1  0
  2 26  1  0
  2  3  1  0
  3  4  1  0
  3  5  1  0
  3 31  1  1
  4 32  1  0
  5 16  1  0
  5  6  1  0
  5 33  1  6
  6 15  1  6
  6 25  1  0
  6  7  1  0
  7  8  1  0
  7 34  1  0
  7 35  1  0
  8  9  1  0
  8 36  1  0
  8 37  1  0
  9 10  1  0
  9 11  1  0
  9 38  1  1
 10 39  1  0
 11 12  1  1
 11 13  1  0
 11 16  1  0
 12 40  1  0
 12 41  1  0
 12 42  1  0
 13 14  1  0
 13 43  1  0
 13 44  1  0
 14 15  1  0
 15 45  1  0
 15 46  1  0
 16 17  1  1
 16 18  1  0
 17 47  1  0
 17 48  1  0
 17 49  1  0
 18 19  1  0
 18 23  1  0
 18 50  1  1
 19 20  1  0
 20 21  1  0
 20 22  2  0
 21 51  1  0
 21 52  1  0
 21 53  1  0
 23 24  2  0
 23 25  1  0
 25 26  1  0
 25 54  1  6
 26 27  1  0
 26 28  1  0
 27 55  1  0
 27 56  1  0
 27 57  1  0
 28 58  1  0
 28 59  1  0
 28 60  1  0
M  END
>  <i_m_ct_stereo_status>  (202) 
1

>  <s_m_source_file>  (202) 
/var/tmp/pbs.5076255.sched01/tmprh8juyh8/78tr4t3sa2.sdf

>  <i_m_source_file_index>  (202) 
8

>  <i_lp_mmshare_version>  (202) 
48012

>  <i_f3d_flags>  (202) 
0

>  <s_epik_input>  (202) 
W09IXVtDQEBIXTFDKD1bQ0gyXSlDKFtDSDNdKShbQ0gzXSlbQ0BIXTJDKD1PKVtDQEhdKE9DKD1PKVtDSDNdKVtDQF0oW0NAQEhdMVtDQF0yMzQpKFtDSDNdKVtDQEBdKFtDSDNdKShbQ0BIXShbT0hdKVtDSDJdW0NIMl0zKVtDSDJdT1tDSDJdNA==

>  <s_epik_cmdline>  (202) 
J2VwaWtfcHl0aG9uJywgJy1waHQnLCAnMi4wJywgJy1waCcsICc3LjAnLCAnLXRuJywgJzgnLCAnLW1hJywgJzIwMCcsICctaW1hZScsICc8aW5maWxlLm1hZT4nLCAnLW9tYWUnLCAnPG91dGZpbGUubWFlPic=

>  <r_lp_tautomer_probability>  (202) 
1

>  <r_epik_Ionization_Penalty>  (202) 
3.04221e-07

>  <r_epik_Ionization_Penalty_Charging>  (202) 
0

>  <r_epik_Ionization_Penalty_Neutral>  (202) 
3.04221e-07

>  <r_epik_State_Penalty>  (202) 
-0

>  <r_epik_Charging_Adjusted_Penalty>  (202) 
0

>  <i_epik_Tot_Q>  (202) 
0

>  <i_epik_Tot_abs_Q>  (202) 
0

>  <s_epik_Chemistry_Notes>  (202) 
This compound has an ester and may undergo hydrolysis at high or low pH.

>  <s_lp_Force_Field>  (202) 
OPLS3e

>  <r_lp_Energy>  (202) 
156.805

>  <b_lp_Chiralities_Consistent>  (202) 
1

>  <s_lp_Variant>  (202) 
68:0-1

>  <s_i_glide_gridfile>  (202) 
pfpi4k_grid

>  <i_i_glide_lignum>  (202) 
8

>  <i_i_glide_rotatable_bonds>  (202) 
4

>  <r_i_docking_score>  (202) 
-2.85244

>  <r_i_glide_ligand_efficiency>  (202) 
-0.101873

>  <r_i_glide_ligand_efficiency_sa>  (202) 
-0.309346

>  <r_i_glide_ligand_efficiency_ln>  (202) 
-0.658426

>  <r_i_glide_gscore>  (202) 
-2.85244

>  <r_i_glide_lipo>  (202) 
-0.0623337

>  <r_i_glide_hbond>  (202) 
-0.19186

>  <r_i_glide_metal>  (202) 
-0

>  <r_i_glide_rewards>  (202) 
-0.733051

>  <r_i_glide_evdw>  (202) 
-21.3003

>  <r_i_glide_ecoul>  (202) 
-5.79914

>  <r_i_glide_erotb>  (202) 
0.12675

>  <r_i_glide_esite>  (202) 
-0.0570551

>  <r_i_glide_emodel>  (202) 
-29.1436

>  <r_i_glide_energy>  (202) 
-27.0995

>  <r_i_glide_einternal>  (202) 
6.31665

>  <r_i_glide_intrahb_reward>  (202) 
-0

>  <i_i_glide_confnum>  (202) 
3

>  <i_i_glide_posenum>  (202) 
12

>  <r_i_glide_eff_state_penalty>  (202) 
0

>  <ligand_id>  (202) 
68

>  <original_smiles>  (202) 
C=C1C(O)C2C34CCC(O)C(C)(COC3)C2(C)C(OC(C)=O)C(=O)C4C1(C)C

>  <smiles>  (202) 
[H]OC1([H])C(=C([H])[H])C(C([H])([H])[H])(C([H])([H])[H])C2([H])C(=O)C([H])(OC(=O)C([H])([H])[H])C3(C([H])([H])[H])C1([H])C21C([H])([H])OC([H])([H])C3(C([H])([H])[H])C([H])(O[H])C([H])([H])C1([H])[H]

$$$$
69:0:0
     RDKit          3D

 15 15  0  0  1  0  0  0  0  0999 V2000
    6.5959   -1.4645   -0.6064 O   0  0  0  0  0  0  0  0  0  0  0  0
    5.5164   -2.0518   -0.3409 C   0  0  0  0  0  0  0  0  0  0  0  0
    5.2974   -2.5664    0.7782 O   0  0  0  0  0  0  0  0  0  0  0  0
    4.4737   -2.1733   -1.4201 C   0  0  0  0  0  0  0  0  0  0  0  0
    4.6044   -1.3960   -2.5880 C   0  0  0  0  0  0  0  0  0  0  0  0
    3.6866   -1.4935   -3.6495 C   0  0  0  0  0  0  0  0  0  0  0  0
    2.5996   -2.3764   -3.5276 C   0  0  0  0  0  0  0  0  0  0  0  0
    2.4285   -3.1352   -2.3593 C   0  0  0  0  0  0  0  0  0  0  0  0
    3.3625   -3.0535   -1.3046 C   0  0  0  0  0  0  0  0  0  0  0  0
    3.1794   -3.8242   -0.1876 O   0  0  0  0  0  0  0  0  0  0  0  0
    5.4094   -0.6860   -2.6589 H   0  0  0  0  0  0  0  0  0  0  0  0
    3.8048   -0.8813   -4.5327 H   0  0  0  0  0  0  0  0  0  0  0  0
    1.8667   -2.4496   -4.3201 H   0  0  0  0  0  0  0  0  0  0  0  0
    1.5765   -3.8043   -2.2785 H   0  0  0  0  0  0  0  0  0  0  0  0
    3.8765   -3.6116    0.4337 H   0  0  0  0  0  0  0  0  0  0  0  0
  1  2  2  0
  2  3  1  0
  2  4  1  0
  4  9  2  0
  4  5  1  0
  5  6  2  0
  5 11  1  0
  6  7  1  0
  6 12  1  0
  7  8  2  0
  7 13  1  0
  8  9  1  0
  8 14  1  0
  9 10  1  0
 10 15  1  0
M  CHG  1   3  -1
M  END
>  <i_m_ct_stereo_status>  (203) 
1

>  <s_m_source_file>  (203) 
/var/tmp/pbs.5076255.sched01/tmprh8juyh8/78tr4t3sa2.sdf

>  <i_m_source_file_index>  (203) 
9

>  <i_lp_mmshare_version>  (203) 
48012

>  <i_f3d_flags>  (203) 
0

>  <s_epik_input>  (203) 
Tz1DKFtPSF0pYzFbY0hdW2NIXVtjSF1bY0hdYzFbT0hd

>  <s_epik_cmdline>  (203) 
J2VwaWtfcHl0aG9uJywgJy1waHQnLCAnMi4wJywgJy1waCcsICc3LjAnLCAnLXRuJywgJzgnLCAnLW1hJywgJzIwMCcsICctaW1hZScsICc8aW5maWxlLm1hZT4nLCAnLW9tYWUnLCAnPG91dGZpbGUubWFlPic=

>  <r_lp_tautomer_probability>  (203) 
1

>  <r_epik_Ionization_Penalty>  (203) 
5.58782e-05

>  <r_epik_Ionization_Penalty_Charging>  (203) 
5.40329e-05

>  <r_epik_Ionization_Penalty_Neutral>  (203) 
1.84534e-06

>  <r_epik_State_Penalty>  (203) 
-0

>  <r_epik_Charging_Adjusted_Penalty>  (203) 
5.40329e-05

>  <i_epik_Tot_Q>  (203) 
-1

>  <i_epik_Tot_abs_Q>  (203) 
1

>  <s_lp_Force_Field>  (203) 
OPLS3e

>  <r_lp_Energy>  (203) 
19.397

>  <b_lp_Chiralities_Consistent>  (203) 
1

>  <s_lp_Variant>  (203) 
69:0-1

>  <s_i_glide_gridfile>  (203) 
pfpi4k_grid

>  <i_i_glide_lignum>  (203) 
9

>  <i_i_glide_rotatable_bonds>  (203) 
2

>  <r_i_docking_score>  (203) 
-4.30427

>  <r_i_glide_ligand_efficiency>  (203) 
-0.430427

>  <r_i_glide_ligand_efficiency_sa>  (203) 
-0.927327

>  <r_i_glide_ligand_efficiency_ln>  (203) 
-1.3033

>  <r_i_glide_gscore>  (203) 
-4.30427

>  <r_i_glide_lipo>  (203) 
-0.545435

>  <r_i_glide_hbond>  (203) 
-0.155904

>  <r_i_glide_metal>  (203) 
-0

>  <r_i_glide_rewards>  (203) 
-2.75

>  <r_i_glide_evdw>  (203) 
-14.2796

>  <r_i_glide_ecoul>  (203) 
-0.82836

>  <r_i_glide_erotb>  (203) 
0

>  <r_i_glide_esite>  (203) 
-0.0146953

>  <r_i_glide_emodel>  (203) 
-29.4007

>  <r_i_glide_energy>  (203) 
-15.108

>  <r_i_glide_einternal>  (203) 
0.25867

>  <r_i_glide_intrahb_reward>  (203) 
-0.5

>  <i_i_glide_confnum>  (203) 
2

>  <i_i_glide_posenum>  (203) 
24

>  <r_i_glide_eff_state_penalty>  (203) 
0

>  <ligand_id>  (203) 
69

>  <original_smiles>  (203) 
O=C(O)c1ccccc1O

>  <smiles>  (203) 
[H]Oc1c([H])c([H])c([H])c([H])c1C(=O)[O-]

$$$$
69:0:1
     RDKit          3D

 15 15  0  0  1  0  0  0  0  0999 V2000
    6.9728   -1.4569   -0.3207 O   0  0  0  0  0  0  0  0  0  0  0  0
    6.0028   -2.2472   -0.2163 C   0  0  0  0  0  0  0  0  0  0  0  0
    5.9404   -3.0587    0.7323 O   0  0  0  0  0  0  0  0  0  0  0  0
    4.9150   -2.1775   -1.2704 C   0  0  0  0  0  0  0  0  0  0  0  0
    4.8752   -1.0551   -2.1281 C   0  0  0  0  0  0  0  0  0  0  0  0
    3.9144   -0.9249   -3.1488 C   0  0  0  0  0  0  0  0  0  0  0  0
    2.9605   -1.9351   -3.3374 C   0  0  0  0  0  0  0  0  0  0  0  0
    2.9651   -3.0551   -2.4876 C   0  0  0  0  0  0  0  0  0  0  0  0
    3.9346   -3.1920   -1.4651 C   0  0  0  0  0  0  0  0  0  0  0  0
    3.8874   -4.3379   -0.7209 O   0  0  0  0  0  0  0  0  0  0  0  0
    5.5904   -0.2620   -1.9961 H   0  0  0  0  0  0  0  0  0  0  0  0
    3.8971   -0.0447   -3.7733 H   0  0  0  0  0  0  0  0  0  0  0  0
    2.2112   -1.8516   -4.1069 H   0  0  0  0  0  0  0  0  0  0  0  0
    2.2245   -3.8317   -2.6329 H   0  0  0  0  0  0  0  0  0  0  0  0
    3.4363   -5.0306   -1.1977 H   0  0  0  0  0  0  0  0  0  0  0  0
  1  2  2  0
  2  3  1  0
  2  4  1  0
  4  9  2  0
  4  5  1  0
  5  6  2  0
  5 11  1  0
  6  7  1  0
  6 12  1  0
  7  8  2  0
  7 13  1  0
  8  9  1  0
  8 14  1  0
  9 10  1  0
 10 15  1  0
M  CHG  1   3  -1
M  END
>  <i_m_ct_stereo_status>  (204) 
1

>  <s_m_source_file>  (204) 
/var/tmp/pbs.5076255.sched01/tmprh8juyh8/78tr4t3sa2.sdf

>  <i_m_source_file_index>  (204) 
9

>  <i_lp_mmshare_version>  (204) 
48012

>  <i_f3d_flags>  (204) 
0

>  <s_epik_input>  (204) 
Tz1DKFtPSF0pYzFbY0hdW2NIXVtjSF1bY0hdYzFbT0hd

>  <s_epik_cmdline>  (204) 
J2VwaWtfcHl0aG9uJywgJy1waHQnLCAnMi4wJywgJy1waCcsICc3LjAnLCAnLXRuJywgJzgnLCAnLW1hJywgJzIwMCcsICctaW1hZScsICc8aW5maWxlLm1hZT4nLCAnLW9tYWUnLCAnPG91dGZpbGUubWFlPic=

>  <r_lp_tautomer_probability>  (204) 
1

>  <r_epik_Ionization_Penalty>  (204) 
5.58782e-05

>  <r_epik_Ionization_Penalty_Charging>  (204) 
5.40329e-05

>  <r_epik_Ionization_Penalty_Neutral>  (204) 
1.84534e-06

>  <r_epik_State_Penalty>  (204) 
-0

>  <r_epik_Charging_Adjusted_Penalty>  (204) 
5.40329e-05

>  <i_epik_Tot_Q>  (204) 
-1

>  <i_epik_Tot_abs_Q>  (204) 
1

>  <s_lp_Force_Field>  (204) 
OPLS3e

>  <r_lp_Energy>  (204) 
19.397

>  <b_lp_Chiralities_Consistent>  (204) 
1

>  <s_lp_Variant>  (204) 
69:0-1

>  <s_i_glide_gridfile>  (204) 
pfpi4k_grid

>  <i_i_glide_lignum>  (204) 
9

>  <i_i_glide_rotatable_bonds>  (204) 
2

>  <r_i_docking_score>  (204) 
-4.13833

>  <r_i_glide_ligand_efficiency>  (204) 
-0.413833

>  <r_i_glide_ligand_efficiency_sa>  (204) 
-0.891575

>  <r_i_glide_ligand_efficiency_ln>  (204) 
-1.25306

>  <r_i_glide_gscore>  (204) 
-4.13833

>  <r_i_glide_lipo>  (204) 
-0.235475

>  <r_i_glide_hbond>  (204) 
-0.149726

>  <r_i_glide_metal>  (204) 
-0

>  <r_i_glide_rewards>  (204) 
-2.25

>  <r_i_glide_evdw>  (204) 
-13.2141

>  <r_i_glide_ecoul>  (204) 
-5.55328

>  <r_i_glide_erotb>  (204) 
0

>  <r_i_glide_esite>  (204) 
-0.0094262

>  <r_i_glide_emodel>  (204) 
-27.2969

>  <r_i_glide_energy>  (204) 
-18.7674

>  <r_i_glide_einternal>  (204) 
0.787803

>  <r_i_glide_intrahb_reward>  (204) 
-0

>  <i_i_glide_confnum>  (204) 
2

>  <i_i_glide_posenum>  (204) 
6

>  <r_i_glide_eff_state_penalty>  (204) 
0

>  <ligand_id>  (204) 
69

>  <original_smiles>  (204) 
O=C(O)c1ccccc1O

>  <smiles>  (204) 
[H]Oc1c([H])c([H])c([H])c([H])c1C(=O)[O-]

$$$$
69:0:2
     RDKit          3D

 15 15  0  0  1  0  0  0  0  0999 V2000
    4.0423   -3.6455    0.9885 O   0  0  0  0  0  0  0  0  0  0  0  0
    3.2252   -3.7364    0.0413 C   0  0  0  0  0  0  0  0  0  0  0  0
    2.2386   -4.5186    0.0832 O   0  0  0  0  0  0  0  0  0  0  0  0
    3.4290   -2.8639   -1.1823 C   0  0  0  0  0  0  0  0  0  0  0  0
    2.6133   -3.0543   -2.3175 C   0  0  0  0  0  0  0  0  0  0  0  0
    2.7696   -2.2658   -3.4733 C   0  0  0  0  0  0  0  0  0  0  0  0
    3.7490   -1.2511   -3.5090 C   0  0  0  0  0  0  0  0  0  0  0  0
    4.5638   -1.0384   -2.3787 C   0  0  0  0  0  0  0  0  0  0  0  0
    4.4122   -1.8362   -1.2232 C   0  0  0  0  0  0  0  0  0  0  0  0
    5.2205   -1.5843   -0.1541 O   0  0  0  0  0  0  0  0  0  0  0  0
    1.8562   -3.8221   -2.3083 H   0  0  0  0  0  0  0  0  0  0  0  0
    2.1134   -2.4352   -4.3164 H   0  0  0  0  0  0  0  0  0  0  0  0
    3.8555   -0.6276   -4.3849 H   0  0  0  0  0  0  0  0  0  0  0  0
    5.2974   -0.2475   -2.3762 H   0  0  0  0  0  0  0  0  0  0  0  0
    4.9839   -2.2066    0.5355 H   0  0  0  0  0  0  0  0  0  0  0  0
  1  2  2  0
  2  3  1  0
  2  4  1  0
  4  9  2  0
  4  5  1  0
  5  6  2  0
  5 11  1  0
  6  7  1  0
  6 12  1  0
  7  8  2  0
  7 13  1  0
  8  9  1  0
  8 14  1  0
  9 10  1  0
 10 15  1  0
M  CHG  1   3  -1
M  END
>  <i_m_ct_stereo_status>  (205) 
1

>  <s_m_source_file>  (205) 
/var/tmp/pbs.5076255.sched01/tmprh8juyh8/78tr4t3sa2.sdf

>  <i_m_source_file_index>  (205) 
9

>  <i_lp_mmshare_version>  (205) 
48012

>  <i_f3d_flags>  (205) 
0

>  <s_epik_input>  (205) 
Tz1DKFtPSF0pYzFbY0hdW2NIXVtjSF1bY0hdYzFbT0hd

>  <s_epik_cmdline>  (205) 
J2VwaWtfcHl0aG9uJywgJy1waHQnLCAnMi4wJywgJy1waCcsICc3LjAnLCAnLXRuJywgJzgnLCAnLW1hJywgJzIwMCcsICctaW1hZScsICc8aW5maWxlLm1hZT4nLCAnLW9tYWUnLCAnPG91dGZpbGUubWFlPic=

>  <r_lp_tautomer_probability>  (205) 
1

>  <r_epik_Ionization_Penalty>  (205) 
5.58782e-05

>  <r_epik_Ionization_Penalty_Charging>  (205) 
5.40329e-05

>  <r_epik_Ionization_Penalty_Neutral>  (205) 
1.84534e-06

>  <r_epik_State_Penalty>  (205) 
-0

>  <r_epik_Charging_Adjusted_Penalty>  (205) 
5.40329e-05

>  <i_epik_Tot_Q>  (205) 
-1

>  <i_epik_Tot_abs_Q>  (205) 
1

>  <s_lp_Force_Field>  (205) 
OPLS3e

>  <r_lp_Energy>  (205) 
19.397

>  <b_lp_Chiralities_Consistent>  (205) 
1

>  <s_lp_Variant>  (205) 
69:0-1

>  <s_i_glide_gridfile>  (205) 
pfpi4k_grid

>  <i_i_glide_lignum>  (205) 
9

>  <i_i_glide_rotatable_bonds>  (205) 
2

>  <r_i_docking_score>  (205) 
-3.87362

>  <r_i_glide_ligand_efficiency>  (205) 
-0.387362

>  <r_i_glide_ligand_efficiency_sa>  (205) 
-0.834547

>  <r_i_glide_ligand_efficiency_ln>  (205) 
-1.17291

>  <r_i_glide_gscore>  (205) 
-3.87362

>  <r_i_glide_lipo>  (205) 
-0.405675

>  <r_i_glide_hbond>  (205) 
-0.00474821

>  <r_i_glide_metal>  (205) 
-0

>  <r_i_glide_rewards>  (205) 
-2.75

>  <r_i_glide_evdw>  (205) 
-15.2152

>  <r_i_glide_ecoul>  (205) 
0.366981

>  <r_i_glide_erotb>  (205) 
0

>  <r_i_glide_esite>  (205) 
-0.00748793

>  <r_i_glide_emodel>  (205) 
-28.2601

>  <r_i_glide_energy>  (205) 
-14.8482

>  <r_i_glide_einternal>  (205) 
0.161591

>  <r_i_glide_intrahb_reward>  (205) 
-0.5

>  <i_i_glide_confnum>  (205) 
1

>  <i_i_glide_posenum>  (205) 
14

>  <r_i_glide_eff_state_penalty>  (205) 
0

>  <ligand_id>  (205) 
69

>  <original_smiles>  (205) 
O=C(O)c1ccccc1O

>  <smiles>  (205) 
[H]Oc1c([H])c([H])c([H])c([H])c1C(=O)[O-]

$$$$
70:0:0
     RDKit          3D

 77 81  0  0  1  0  0  0  0  0999 V2000
   -1.4738   -9.4089    2.4919 C   0  0  0  0  0  0  0  0  0  0  0  0
   -0.7196   -8.2380    3.1385 C   0  0  0  0  0  0  0  0  0  0  0  0
   -1.7044   -7.1043    3.4189 C   0  0  0  0  0  0  0  0  0  0  0  0
   -0.0191   -8.6492    4.4553 C   0  0  0  0  0  0  0  0  0  0  0  0
    1.4325   -8.1700    4.3899 C   0  0  0  0  0  0  0  0  0  0  0  0
    1.5217   -7.3071    3.1149 C   0  0  1  0  0  0  0  0  0  0  0  0
    2.9206   -7.2866    2.4323 C   0  0  2  0  0  0  0  0  0  0  0  0
    3.2635   -8.7793    2.1509 C   0  0  0  0  0  0  0  0  0  0  0  0
    4.4791   -9.0240    1.2927 C   0  0  0  0  0  0  0  0  0  0  0  0
    5.6003   -8.6285    1.8699 C   0  0  0  0  0  0  0  0  0  0  0  0
    7.0485   -8.4829    1.9558 C   0  0  0  0  0  0  0  0  0  0  0  0
    6.0380   -7.9171    3.0412 C   0  0  2  0  0  0  0  0  0  0  0  0
    5.9309   -8.6891    4.3650 C   0  0  0  0  0  0  0  0  0  0  0  0
    5.5529   -6.4359    3.1174 C   0  0  1  0  0  0  0  0  0  0  0  0
    6.2651   -5.8818    4.3771 C   0  0  0  0  0  0  0  0  0  0  0  0
    6.1780   -5.6471    1.9259 C   0  0  0  0  0  0  0  0  0  0  0  0
    5.6907   -4.1984    1.7605 C   0  0  0  0  0  0  0  0  0  0  0  0
    4.1624   -4.0981    1.5858 C   0  0  2  0  0  0  0  0  0  0  0  0
    3.7986   -4.8575    0.2758 C   0  0  0  0  0  0  0  0  0  0  0  0
    3.7896   -2.5896    1.3227 C   0  0  1  0  0  0  0  0  0  0  0  0
    2.5523   -2.5025    0.6177 O   0  0  0  0  0  0  0  0  0  0  0  0
    3.6392   -1.7262    2.5826 C   0  0  1  0  0  0  0  0  0  0  0  0
    3.3101   -0.3904    2.2442 O   0  0  0  0  0  0  0  0  0  0  0  0
    2.6511   -2.3407    3.5971 C   0  0  1  0  0  0  0  0  0  0  0  0
    1.3420   -2.3831    3.0554 O   0  0  0  0  0  0  0  0  0  0  0  0
    3.1282   -3.7500    4.0912 C   0  0  0  0  0  0  0  0  0  0  0  0
    4.2972   -3.4657    5.0566 C   0  0  0  0  0  0  0  0  0  0  0  0
    2.0129   -4.3171    5.0062 C   0  0  0  0  0  0  0  0  0  0  0  0
    3.4453   -4.7357    2.8542 C   0  0  2  0  0  0  0  0  0  0  0  0
    3.9344   -6.2431    3.1680 C   0  0  1  0  0  0  0  0  0  0  0  0
    0.3897   -7.7614    2.1899 C   0  0  0  0  0  0  0  0  0  0  0  0
   -2.2707   -9.7725    3.1397 H   0  0  0  0  0  0  0  0  0  0  0  0
   -0.8112  -10.2516    2.2983 H   0  0  0  0  0  0  0  0  0  0  0  0
   -1.9232   -9.1337    1.5365 H   0  0  0  0  0  0  0  0  0  0  0  0
   -1.1814   -6.2581    3.8616 H   0  0  0  0  0  0  0  0  0  0  0  0
   -2.4858   -7.4090    4.1087 H   0  0  0  0  0  0  0  0  0  0  0  0
   -2.1866   -6.7796    2.4940 H   0  0  0  0  0  0  0  0  0  0  0  0
   -0.5432   -8.2825    5.3462 H   0  0  0  0  0  0  0  0  0  0  0  0
    0.0012   -9.7300    4.5598 H   0  0  0  0  0  0  0  0  0  0  0  0
    1.6789   -7.5834    5.2813 H   0  0  0  0  0  0  0  0  0  0  0  0
    2.0893   -9.0476    4.3694 H   0  0  0  0  0  0  0  0  0  0  0  0
    1.2342   -6.3120    3.3968 H   0  0  0  0  0  0  0  0  0  0  0  0
    2.7521   -6.8816    1.4437 H   0  0  0  0  0  0  0  0  0  0  0  0
    3.4361   -9.3016    3.0983 H   0  0  0  0  0  0  0  0  0  0  0  0
    2.4579   -9.2775    1.6359 H   0  0  0  0  0  0  0  0  0  0  0  0
    4.4272   -9.5681    0.3638 H   0  0  0  0  0  0  0  0  0  0  0  0
    7.6132   -9.3667    2.2378 H   0  0  0  0  0  0  0  0  0  0  0  0
    7.5610   -7.8352    1.2408 H   0  0  0  0  0  0  0  0  0  0  0  0
    6.7387   -8.4157    5.0399 H   0  0  0  0  0  0  0  0  0  0  0  0
    6.0361   -9.7611    4.1755 H   0  0  0  0  0  0  0  0  0  0  0  0
    4.9798   -8.5275    4.8630 H   0  0  0  0  0  0  0  0  0  0  0  0
    6.3706   -4.8059    4.3676 H   0  0  0  0  0  0  0  0  0  0  0  0
    7.2880   -6.2507    4.4456 H   0  0  0  0  0  0  0  0  0  0  0  0
    5.7615   -6.1705    5.3034 H   0  0  0  0  0  0  0  0  0  0  0  0
    7.2570   -5.6185    2.0597 H   0  0  0  0  0  0  0  0  0  0  0  0
    6.0262   -6.1804    0.9946 H   0  0  0  0  0  0  0  0  0  0  0  0
    6.0102   -3.5940    2.5988 H   0  0  0  0  0  0  0  0  0  0  0  0
    6.1925   -3.7750    0.8920 H   0  0  0  0  0  0  0  0  0  0  0  0
    2.7193   -4.8919    0.1090 H   0  0  0  0  0  0  0  0  0  0  0  0
    4.1285   -5.8870    0.2527 H   0  0  0  0  0  0  0  0  0  0  0  0
    4.2494   -4.3849   -0.5996 H   0  0  0  0  0  0  0  0  0  0  0  0
    4.5643   -2.1354    0.6956 H   0  0  0  0  0  0  0  0  0  0  0  0
    2.4593   -1.6460    0.2239 H   0  0  0  0  0  0  0  0  0  0  0  0
    4.6211   -1.6542    3.0559 H   0  0  0  0  0  0  0  0  0  0  0  0
    2.4303   -0.3832    1.8768 H   0  0  0  0  0  0  0  0  0  0  0  0
    2.5767   -1.6659    4.4496 H   0  0  0  0  0  0  0  0  0  0  0  0
    1.4175   -2.7454    2.1715 H   0  0  0  0  0  0  0  0  0  0  0  0
    4.5545   -4.3416    5.6424 H   0  0  0  0  0  0  0  0  0  0  0  0
    4.0193   -2.7065    5.7899 H   0  0  0  0  0  0  0  0  0  0  0  0
    5.1833   -3.0794    4.5628 H   0  0  0  0  0  0  0  0  0  0  0  0
    2.2832   -5.2832    5.4242 H   0  0  0  0  0  0  0  0  0  0  0  0
    1.0602   -4.4319    4.4909 H   0  0  0  0  0  0  0  0  0  0  0  0
    1.8307   -3.6539    5.8525 H   0  0  0  0  0  0  0  0  0  0  0  0
    2.4364   -4.8471    2.4642 H   0  0  0  0  0  0  0  0  0  0  0  0
    3.7197   -6.4250    4.2140 H   0  0  0  0  0  0  0  0  0  0  0  0
    0.7141   -8.5867    1.5596 H   0  0  0  0  0  0  0  0  0  0  0  0
    0.0549   -6.9401    1.5381 H   0  0  0  0  0  0  0  0  0  0  0  0
  1  2  1  0
  1 32  1  0
  1 33  1  0
  1 34  1  0
  2 31  1  0
  2  3  1  0
  2  4  1  0
  3 35  1  0
  3 36  1  0
  3 37  1  0
  4  5  1  0
  4 38  1  0
  4 39  1  0
  5  6  1  0
  5 40  1  0
  5 41  1  0
  6  7  1  0
  6 31  1  0
  6 42  1  1
  7 30  1  0
  7  8  1  0
  7 43  1  6
  8  9  1  0
  8 44  1  0
  8 45  1  0
  9 10  2  0
  9 46  1  0
 10 12  1  0
 10 11  1  0
 11 12  1  0
 11 47  1  0
 11 48  1  0
 12 13  1  1
 12 14  1  0
 13 49  1  0
 13 50  1  0
 13 51  1  0
 14 30  1  0
 14 15  1  1
 14 16  1  0
 15 52  1  0
 15 53  1  0
 15 54  1  0
 16 17  1  0
 16 55  1  0
 16 56  1  0
 17 18  1  0
 17 57  1  0
 17 58  1  0
 18 29  1  0
 18 19  1  6
 18 20  1  0
 19 59  1  0
 19 60  1  0
 19 61  1  0
 20 21  1  0
 20 22  1  0
 20 62  1  6
 21 63  1  0
 22 23  1  0
 22 24  1  0
 22 64  1  1
 23 65  1  0
 24 25  1  0
 24 26  1  0
 24 66  1  1
 25 67  1  0
 26 27  1  0
 26 28  1  0
 26 29  1  0
 27 68  1  0
 27 69  1  0
 27 70  1  0
 28 71  1  0
 28 72  1  0
 28 73  1  0
 29 30  1  0
 29 74  1  6
 30 75  1  1
 31 76  1  0
 31 77  1  0
M  END
>  <i_m_ct_stereo_status>  (206) 
1

>  <s_m_source_file>  (206) 
/var/tmp/pbs.5076255.sched01/tmprh8juyh8/78tr4t3sa2.sdf

>  <i_m_source_file_index>  (206) 
10

>  <i_lp_mmshare_version>  (206) 
48012

>  <i_f3d_flags>  (206) 
0

>  <s_epik_input>  (206) 
W0NIM11DMShbQ0gzXSlbQ0gyXVtDSDJdW0NASF0oW0NIMl0xKVtDQEhdKFtDSDJdW0NIXT1DKFtDSDJdMilDMjNbQ0gzXSlbQ0BIXTRbQ0BdMyhbQ0gzXSlbQ0gyXVtDSDJdW0NAQF01KFtDSDNdKVtDQEBIXTRDKFtDSDNdKShbQ0gzXSlbQ0BIXShbT0hdKVtDQEhdKFtPSF0pW0NAQEhdNVtPSF0=

>  <s_epik_cmdline>  (206) 
J2VwaWtfcHl0aG9uJywgJy1waHQnLCAnMi4wJywgJy1waCcsICc3LjAnLCAnLXRuJywgJzgnLCAnLW1hJywgJzIwMCcsICctaW1hZScsICc8aW5maWxlLm1hZT4nLCAnLW9tYWUnLCAnPG91dGZpbGUubWFlPic=

>  <r_lp_tautomer_probability>  (206) 
1

>  <r_epik_Ionization_Penalty>  (206) 
9.45251e-07

>  <r_epik_Ionization_Penalty_Charging>  (206) 
0

>  <r_epik_Ionization_Penalty_Neutral>  (206) 
9.45251e-07

>  <r_epik_State_Penalty>  (206) 
-0

>  <r_epik_Charging_Adjusted_Penalty>  (206) 
0

>  <i_epik_Tot_Q>  (206) 
0

>  <i_epik_Tot_abs_Q>  (206) 
0

>  <s_lp_Force_Field>  (206) 
OPLS3e

>  <r_lp_Energy>  (206) 
102.579

>  <b_lp_Chiralities_Consistent>  (206) 
1

>  <s_lp_Variant>  (206) 
70:0-1

>  <s_i_glide_gridfile>  (206) 
pfpi4k_grid

>  <i_i_glide_lignum>  (206) 
10

>  <i_i_glide_rotatable_bonds>  (206) 
4

>  <r_i_docking_score>  (206) 
-2.92222

>  <r_i_glide_ligand_efficiency>  (206) 
-0.0942652

>  <r_i_glide_ligand_efficiency_sa>  (206) 
-0.296123

>  <r_i_glide_ligand_efficiency_ln>  (206) 
-0.659051

>  <r_i_glide_gscore>  (206) 
-2.92222

>  <r_i_glide_lipo>  (206) 
-0.510292

>  <r_i_glide_hbond>  (206) 
0

>  <r_i_glide_metal>  (206) 
-0

>  <r_i_glide_rewards>  (206) 
-0.972752

>  <r_i_glide_evdw>  (206) 
-27.7502

>  <r_i_glide_ecoul>  (206) 
-1.05913

>  <r_i_glide_erotb>  (206) 
0.107204

>  <r_i_glide_esite>  (206) 
0

>  <r_i_glide_emodel>  (206) 
-37.3925

>  <r_i_glide_energy>  (206) 
-28.8094

>  <r_i_glide_einternal>  (206) 
4.05027

>  <r_i_glide_intrahb_reward>  (206) 
-0.5

>  <i_i_glide_confnum>  (206) 
5

>  <i_i_glide_posenum>  (206) 
30

>  <r_i_glide_eff_state_penalty>  (206) 
0

>  <ligand_id>  (206) 
70

>  <original_smiles>  (206) 
CC1(C)CCC(C2CC=C3CC3(C)C3(C)CCC4(C)C(O)C(O)C(O)C(C)(C)C4C23)C1

>  <smiles>  (206) 
[H]OC1([H])C([H])(O[H])C(C([H])([H])[H])(C([H])([H])[H])C2([H])C3([H])C([H])(C4([H])C([H])([H])C([H])([H])C(C([H])([H])[H])(C([H])([H])[H])C4([H])[H])C([H])([H])C([H])=C4C([H])([H])C4(C([H])([H])[H])C3(C([H])([H])[H])C([H])([H])C([H])([H])C2(C([H])([H])[H])C1([H])O[H]

$$$$
70:0:1
     RDKit          3D

 77 81  0  0  1  0  0  0  0  0999 V2000
   -0.2133   -9.8221    2.8921 C   0  0  0  0  0  0  0  0  0  0  0  0
   -0.4824   -8.3621    3.2780 C   0  0  0  0  0  0  0  0  0  0  0  0
   -1.9824   -8.0804    3.1775 C   0  0  0  0  0  0  0  0  0  0  0  0
    0.0347   -8.0934    4.6957 C   0  0  0  0  0  0  0  0  0  0  0  0
    1.5038   -7.7336    4.5115 C   0  0  0  0  0  0  0  0  0  0  0  0
    1.5578   -6.9911    3.1729 C   0  0  1  0  0  0  0  0  0  0  0  0
    2.9016   -7.1371    2.4042 C   0  0  2  0  0  0  0  0  0  0  0  0
    3.0568   -8.6489    2.0820 C   0  0  0  0  0  0  0  0  0  0  0  0
    4.1639   -9.0516    1.1716 C   0  0  0  0  0  0  0  0  0  0  0  0
    5.3610   -8.8005    1.6615 C   0  0  0  0  0  0  0  0  0  0  0  0
    6.8287   -8.8177    1.6327 C   0  0  0  0  0  0  0  0  0  0  0  0
    5.9509   -8.1356    2.7981 C   0  0  2  0  0  0  0  0  0  0  0  0
    5.8456   -8.8891    4.1147 C   0  0  0  0  0  0  0  0  0  0  0  0
    5.6563   -6.6092    2.8751 C   0  0  1  0  0  0  0  0  0  0  0  0
    6.5080   -6.1388    4.0814 C   0  0  0  0  0  0  0  0  0  0  0  0
    6.2835   -5.9003    1.6440 C   0  0  0  0  0  0  0  0  0  0  0  0
    5.9585   -4.4077    1.4957 C   0  0  0  0  0  0  0  0  0  0  0  0
    4.4475   -4.1316    1.4247 C   0  0  2  0  0  0  0  0  0  0  0  0
    3.9063   -4.8410    0.1434 C   0  0  0  0  0  0  0  0  0  0  0  0
    4.2369   -2.5928    1.1871 C   0  0  1  0  0  0  0  0  0  0  0  0
    3.0011   -2.3407    0.5422 O   0  0  0  0  0  0  0  0  0  0  0  0
    4.2731   -1.7174    2.4460 C   0  0  1  0  0  0  0  0  0  0  0  0
    4.0656   -0.3483    2.1539 O   0  0  0  0  0  0  0  0  0  0  0  0
    3.2899   -2.2162    3.5243 C   0  0  1  0  0  0  0  0  0  0  0  0
    1.9463   -2.1458    3.0581 O   0  0  0  0  0  0  0  0  0  0  0  0
    3.6429   -3.6613    3.9967 C   0  0  0  0  0  0  0  0  0  0  0  0
    4.8997   -3.5082    4.8785 C   0  0  0  0  0  0  0  0  0  0  0  0
    2.5350   -4.0825    4.9959 C   0  0  0  0  0  0  0  0  0  0  0  0
    3.7518   -4.6695    2.7484 C   0  0  2  0  0  0  0  0  0  0  0  0
    4.0737   -6.2207    3.0479 C   0  0  1  0  0  0  0  0  0  0  0  0
    0.3199   -7.4106    2.3768 C   0  0  0  0  0  0  0  0  0  0  0  0
   -0.7496  -10.5000    3.5471 H   0  0  0  0  0  0  0  0  0  0  0  0
    0.8399  -10.1047    2.9663 H   0  0  0  0  0  0  0  0  0  0  0  0
   -0.5442  -10.0486    1.8747 H   0  0  0  0  0  0  0  0  0  0  0  0
   -2.2188   -7.0604    3.4664 H   0  0  0  0  0  0  0  0  0  0  0  0
   -2.5568   -8.7401    3.8253 H   0  0  0  0  0  0  0  0  0  0  0  0
   -2.3462   -8.2226    2.1588 H   0  0  0  0  0  0  0  0  0  0  0  0
   -0.5114   -7.2686    5.1808 H   0  0  0  0  0  0  0  0  0  0  0  0
   -0.0789   -8.9445    5.3641 H   0  0  0  0  0  0  0  0  0  0  0  0
    1.8347   -7.1162    5.3439 H   0  0  0  0  0  0  0  0  0  0  0  0
    2.1023   -8.6281    4.5323 H   0  0  0  0  0  0  0  0  0  0  0  0
    1.3670   -5.9393    3.3873 H   0  0  0  0  0  0  0  0  0  0  0  0
    2.7088   -6.7313    1.4221 H   0  0  0  0  0  0  0  0  0  0  0  0
    3.1881   -9.1941    3.0027 H   0  0  0  0  0  0  0  0  0  0  0  0
    2.1678   -9.0028    1.5997 H   0  0  0  0  0  0  0  0  0  0  0  0
    4.0024   -9.5788    0.2472 H   0  0  0  0  0  0  0  0  0  0  0  0
    7.3062   -9.7680    1.8558 H   0  0  0  0  0  0  0  0  0  0  0  0
    7.3677   -8.2351    0.8867 H   0  0  0  0  0  0  0  0  0  0  0  0
    6.7178   -8.7074    4.7401 H   0  0  0  0  0  0  0  0  0  0  0  0
    5.7992   -9.9595    3.9357 H   0  0  0  0  0  0  0  0  0  0  0  0
    4.9552   -8.5983    4.6709 H   0  0  0  0  0  0  0  0  0  0  0  0
    6.7409   -5.0864    4.0554 H   0  0  0  0  0  0  0  0  0  0  0  0
    7.4822   -6.6273    4.0796 H   0  0  0  0  0  0  0  0  0  0  0  0
    6.0476   -6.3734    5.0390 H   0  0  0  0  0  0  0  0  0  0  0  0
    7.3700   -5.9970    1.7010 H   0  0  0  0  0  0  0  0  0  0  0  0
    6.0092   -6.4165    0.7236 H   0  0  0  0  0  0  0  0  0  0  0  0
    6.4059   -3.8363    2.3043 H   0  0  0  0  0  0  0  0  0  0  0  0
    6.4450   -4.0483    0.5901 H   0  0  0  0  0  0  0  0  0  0  0  0
    2.8247   -4.7534    0.0576 H   0  0  0  0  0  0  0  0  0  0  0  0
    4.1138   -5.9000    0.1069 H   0  0  0  0  0  0  0  0  0  0  0  0
    4.3468   -4.4215   -0.7596 H   0  0  0  0  0  0  0  0  0  0  0  0
    5.0022   -2.2246    0.5022 H   0  0  0  0  0  0  0  0  0  0  0  0
    3.0830   -2.5324   -0.3802 H   0  0  0  0  0  0  0  0  0  0  0  0
    5.2818   -1.7552    2.8370 H   0  0  0  0  0  0  0  0  0  0  0  0
    4.5596   -0.1197    1.3794 H   0  0  0  0  0  0  0  0  0  0  0  0
    3.3455   -1.5218    4.3645 H   0  0  0  0  0  0  0  0  0  0  0  0
    1.9787   -2.3209    2.1248 H   0  0  0  0  0  0  0  0  0  0  0  0
    5.0844   -4.4097    5.4517 H   0  0  0  0  0  0  0  0  0  0  0  0
    4.7589   -2.7223    5.6242 H   0  0  0  0  0  0  0  0  0  0  0  0
    5.7921   -3.2300    4.3239 H   0  0  0  0  0  0  0  0  0  0  0  0
    2.7404   -5.0615    5.4135 H   0  0  0  0  0  0  0  0  0  0  0  0
    1.5420   -4.0999    4.5464 H   0  0  0  0  0  0  0  0  0  0  0  0
    2.4900   -3.3842    5.8344 H   0  0  0  0  0  0  0  0  0  0  0  0
    2.7107   -4.6600    2.4335 H   0  0  0  0  0  0  0  0  0  0  0  0
    3.9172   -6.3705    4.1070 H   0  0  0  0  0  0  0  0  0  0  0  0
    0.5476   -7.8658    1.4127 H   0  0  0  0  0  0  0  0  0  0  0  0
   -0.2538   -6.5030    2.1699 H   0  0  0  0  0  0  0  0  0  0  0  0
  1  2  1  0
  1 32  1  0
  1 33  1  0
  1 34  1  0
  2 31  1  0
  2  3  1  0
  2  4  1  0
  3 35  1  0
  3 36  1  0
  3 37  1  0
  4  5  1  0
  4 38  1  0
  4 39  1  0
  5  6  1  0
  5 40  1  0
  5 41  1  0
  6  7  1  0
  6 31  1  0
  6 42  1  1
  7 30  1  0
  7  8  1  0
  7 43  1  6
  8  9  1  0
  8 44  1  0
  8 45  1  0
  9 10  2  0
  9 46  1  0
 10 12  1  0
 10 11  1  0
 11 12  1  0
 11 47  1  0
 11 48  1  0
 12 13  1  1
 12 14  1  0
 13 49  1  0
 13 50  1  0
 13 51  1  0
 14 30  1  0
 14 15  1  1
 14 16  1  0
 15 52  1  0
 15 53  1  0
 15 54  1  0
 16 17  1  0
 16 55  1  0
 16 56  1  0
 17 18  1  0
 17 57  1  0
 17 58  1  0
 18 29  1  0
 18 19  1  6
 18 20  1  0
 19 59  1  0
 19 60  1  0
 19 61  1  0
 20 21  1  0
 20 22  1  0
 20 62  1  6
 21 63  1  0
 22 23  1  0
 22 24  1  0
 22 64  1  1
 23 65  1  0
 24 25  1  0
 24 26  1  0
 24 66  1  1
 25 67  1  0
 26 27  1  0
 26 28  1  0
 26 29  1  0
 27 68  1  0
 27 69  1  0
 27 70  1  0
 28 71  1  0
 28 72  1  0
 28 73  1  0
 29 30  1  0
 29 74  1  6
 30 75  1  1
 31 76  1  0
 31 77  1  0
M  END
>  <i_m_ct_stereo_status>  (207) 
1

>  <s_m_source_file>  (207) 
/var/tmp/pbs.5076255.sched01/tmprh8juyh8/78tr4t3sa2.sdf

>  <i_m_source_file_index>  (207) 
10

>  <i_lp_mmshare_version>  (207) 
48012

>  <i_f3d_flags>  (207) 
0

>  <s_epik_input>  (207) 
W0NIM11DMShbQ0gzXSlbQ0gyXVtDSDJdW0NASF0oW0NIMl0xKVtDQEhdKFtDSDJdW0NIXT1DKFtDSDJdMilDMjNbQ0gzXSlbQ0BIXTRbQ0BdMyhbQ0gzXSlbQ0gyXVtDSDJdW0NAQF01KFtDSDNdKVtDQEBIXTRDKFtDSDNdKShbQ0gzXSlbQ0BIXShbT0hdKVtDQEhdKFtPSF0pW0NAQEhdNVtPSF0=

>  <s_epik_cmdline>  (207) 
J2VwaWtfcHl0aG9uJywgJy1waHQnLCAnMi4wJywgJy1waCcsICc3LjAnLCAnLXRuJywgJzgnLCAnLW1hJywgJzIwMCcsICctaW1hZScsICc8aW5maWxlLm1hZT4nLCAnLW9tYWUnLCAnPG91dGZpbGUubWFlPic=

>  <r_lp_tautomer_probability>  (207) 
1

>  <r_epik_Ionization_Penalty>  (207) 
9.45251e-07

>  <r_epik_Ionization_Penalty_Charging>  (207) 
0

>  <r_epik_Ionization_Penalty_Neutral>  (207) 
9.45251e-07

>  <r_epik_State_Penalty>  (207) 
-0

>  <r_epik_Charging_Adjusted_Penalty>  (207) 
0

>  <i_epik_Tot_Q>  (207) 
0

>  <i_epik_Tot_abs_Q>  (207) 
0

>  <s_lp_Force_Field>  (207) 
OPLS3e

>  <r_lp_Energy>  (207) 
102.579

>  <b_lp_Chiralities_Consistent>  (207) 
1

>  <s_lp_Variant>  (207) 
70:0-1

>  <s_i_glide_gridfile>  (207) 
pfpi4k_grid

>  <i_i_glide_lignum>  (207) 
10

>  <i_i_glide_rotatable_bonds>  (207) 
4

>  <r_i_docking_score>  (207) 
-2.48586

>  <r_i_glide_ligand_efficiency>  (207) 
-0.080189

>  <r_i_glide_ligand_efficiency_sa>  (207) 
-0.251904

>  <r_i_glide_ligand_efficiency_ln>  (207) 
-0.560637

>  <r_i_glide_gscore>  (207) 
-2.48586

>  <r_i_glide_lipo>  (207) 
-0.317151

>  <r_i_glide_hbond>  (207) 
0

>  <r_i_glide_metal>  (207) 
-0

>  <r_i_glide_rewards>  (207) 
-0.972752

>  <r_i_glide_evdw>  (207) 
-30.2174

>  <r_i_glide_ecoul>  (207) 
1.38475

>  <r_i_glide_erotb>  (207) 
0.107204

>  <r_i_glide_esite>  (207) 
0

>  <r_i_glide_emodel>  (207) 
-38.0935

>  <r_i_glide_energy>  (207) 
-28.8327

>  <r_i_glide_einternal>  (207) 
1.14622

>  <r_i_glide_intrahb_reward>  (207) 
-0.5

>  <i_i_glide_confnum>  (207) 
1

>  <i_i_glide_posenum>  (207) 
32

>  <r_i_glide_eff_state_penalty>  (207) 
0

>  <ligand_id>  (207) 
70

>  <original_smiles>  (207) 
CC1(C)CCC(C2CC=C3CC3(C)C3(C)CCC4(C)C(O)C(O)C(O)C(C)(C)C4C23)C1

>  <smiles>  (207) 
[H]OC1([H])C([H])(O[H])C(C([H])([H])[H])(C([H])([H])[H])C2([H])C3([H])C([H])(C4([H])C([H])([H])C([H])([H])C(C([H])([H])[H])(C([H])([H])[H])C4([H])[H])C([H])([H])C([H])=C4C([H])([H])C4(C([H])([H])[H])C3(C([H])([H])[H])C([H])([H])C([H])([H])C2(C([H])([H])[H])C1([H])O[H]

$$$$
70:0:2
     RDKit          3D

 77 81  0  0  1  0  0  0  0  0999 V2000
    0.1095  -10.0842    3.1304 C   0  0  0  0  0  0  0  0  0  0  0  0
   -0.2541   -8.5901    3.0043 C   0  0  0  0  0  0  0  0  0  0  0  0
   -1.6913   -8.4672    2.4875 C   0  0  0  0  0  0  0  0  0  0  0  0
   -0.0957   -7.8816    4.3592 C   0  0  0  0  0  0  0  0  0  0  0  0
    1.3758   -7.4861    4.4317 C   0  0  0  0  0  0  0  0  0  0  0  0
    1.7654   -7.1938    2.9718 C   0  0  1  0  0  0  0  0  0  0  0  0
    3.2538   -7.4593    2.6179 C   0  0  2  0  0  0  0  0  0  0  0  0
    3.4977   -8.9750    2.8420 C   0  0  0  0  0  0  0  0  0  0  0  0
    4.7943   -9.5444    2.3702 C   0  0  0  0  0  0  0  0  0  0  0  0
    5.8498   -9.0664    3.0269 C   0  0  0  0  0  0  0  0  0  0  0  0
    7.2693   -8.9878    3.3443 C   0  0  0  0  0  0  0  0  0  0  0  0
    6.1287   -8.0502    3.9881 C   0  0  2  0  0  0  0  0  0  0  0  0
    5.6943   -8.3568    5.4188 C   0  0  0  0  0  0  0  0  0  0  0  0
    5.8085   -6.6003    3.5093 C   0  0  1  0  0  0  0  0  0  0  0  0
    6.3473   -5.7254    4.6676 C   0  0  0  0  0  0  0  0  0  0  0  0
    6.7165   -6.2652    2.2927 C   0  0  0  0  0  0  0  0  0  0  0  0
    6.4295   -4.9242    1.5958 C   0  0  0  0  0  0  0  0  0  0  0  0
    4.9814   -4.7832    1.0978 C   0  0  2  0  0  0  0  0  0  0  0  0
    4.7553   -5.8975    0.0421 C   0  0  0  0  0  0  0  0  0  0  0  0
    4.8576   -3.4110    0.3220 C   0  0  1  0  0  0  0  0  0  0  0  0
    3.8598   -3.4460   -0.6979 O   0  0  0  0  0  0  0  0  0  0  0  0
    4.6200   -2.1882    1.2211 C   0  0  1  0  0  0  0  0  0  0  0  0
    4.4579   -1.0025    0.4628 O   0  0  0  0  0  0  0  0  0  0  0  0
    3.3992   -2.3936    2.1429 C   0  0  1  0  0  0  0  0  0  0  0  0
    2.2066   -2.5677    1.3918 O   0  0  0  0  0  0  0  0  0  0  0  0
    3.6058   -3.5976    3.1251 C   0  0  0  0  0  0  0  0  0  0  0  0
    4.6032   -3.0983    4.1856 C   0  0  0  0  0  0  0  0  0  0  0  0
    2.2833   -3.7676    3.9149 C   0  0  0  0  0  0  0  0  0  0  0  0
    3.9975   -4.9411    2.3327 C   0  0  2  0  0  0  0  0  0  0  0  0
    4.2400   -6.2955    3.1777 C   0  0  1  0  0  0  0  0  0  0  0  0
    0.7411   -7.8908    2.0652 C   0  0  0  0  0  0  0  0  0  0  0  0
   -0.5897  -10.6066    3.7706 H   0  0  0  0  0  0  0  0  0  0  0  0
    1.0989  -10.2678    3.5706 H   0  0  0  0  0  0  0  0  0  0  0  0
    0.0774  -10.6100    2.1637 H   0  0  0  0  0  0  0  0  0  0  0  0
   -1.9898   -7.4258    2.3867 H   0  0  0  0  0  0  0  0  0  0  0  0
   -2.4049   -8.9444    3.1585 H   0  0  0  0  0  0  0  0  0  0  0  0
   -1.7950   -8.9363    1.5081 H   0  0  0  0  0  0  0  0  0  0  0  0
   -0.7461   -6.9838    4.4174 H   0  0  0  0  0  0  0  0  0  0  0  0
   -0.3779   -8.4919    5.2113 H   0  0  0  0  0  0  0  0  0  0  0  0
    1.4843   -6.6032    5.0692 H   0  0  0  0  0  0  0  0  0  0  0  0
    1.9446   -8.2862    4.8745 H   0  0  0  0  0  0  0  0  0  0  0  0
    1.5214   -6.1398    2.7925 H   0  0  0  0  0  0  0  0  0  0  0  0
    3.3095   -7.3925    1.5387 H   0  0  0  0  0  0  0  0  0  0  0  0
    3.4100   -9.1986    3.8987 H   0  0  0  0  0  0  0  0  0  0  0  0
    2.7550   -9.5315    2.2877 H   0  0  0  0  0  0  0  0  0  0  0  0
    4.8572  -10.3332    1.6379 H   0  0  0  0  0  0  0  0  0  0  0  0
    7.6907   -9.7907    3.9574 H   0  0  0  0  0  0  0  0  0  0  0  0
    7.9667   -8.6277    2.5813 H   0  0  0  0  0  0  0  0  0  0  0  0
    6.3887   -7.9239    6.1361 H   0  0  0  0  0  0  0  0  0  0  0  0
    5.6914   -9.4320    5.5872 H   0  0  0  0  0  0  0  0  0  0  0  0
    4.6971   -7.9750    5.6288 H   0  0  0  0  0  0  0  0  0  0  0  0
    6.5758   -4.7162    4.3650 H   0  0  0  0  0  0  0  0  0  0  0  0
    7.2962   -6.1149    5.0452 H   0  0  0  0  0  0  0  0  0  0  0  0
    5.6657   -5.6877    5.5181 H   0  0  0  0  0  0  0  0  0  0  0  0
    7.7561   -6.2440    2.6298 H   0  0  0  0  0  0  0  0  0  0  0  0
    6.6805   -7.0653    1.5552 H   0  0  0  0  0  0  0  0  0  0  0  0
    6.6472   -4.0987    2.2622 H   0  0  0  0  0  0  0  0  0  0  0  0
    7.1280   -4.8251    0.7623 H   0  0  0  0  0  0  0  0  0  0  0  0
    3.7297   -5.9224   -0.3216 H   0  0  0  0  0  0  0  0  0  0  0  0
    4.9789   -6.8928    0.4034 H   0  0  0  0  0  0  0  0  0  0  0  0
    5.4105   -5.7434   -0.8090 H   0  0  0  0  0  0  0  0  0  0  0  0
    5.7858   -3.2402   -0.2270 H   0  0  0  0  0  0  0  0  0  0  0  0
    4.0054   -4.2071   -1.2486 H   0  0  0  0  0  0  0  0  0  0  0  0
    5.5107   -2.0348    1.8206 H   0  0  0  0  0  0  0  0  0  0  0  0
    3.7113   -1.1180   -0.1078 H   0  0  0  0  0  0  0  0  0  0  0  0
    3.2662   -1.4631    2.7199 H   0  0  0  0  0  0  0  0  0  0  0  0
    2.0923   -1.8121    0.8211 H   0  0  0  0  0  0  0  0  0  0  0  0
    4.6370   -3.7658    5.0430 H   0  0  0  0  0  0  0  0  0  0  0  0
    4.2866   -2.1314    4.5891 H   0  0  0  0  0  0  0  0  0  0  0  0
    5.6035   -2.9400    3.7910 H   0  0  0  0  0  0  0  0  0  0  0  0
    2.3720   -4.5563    4.6556 H   0  0  0  0  0  0  0  0  0  0  0  0
    1.4334   -3.9970    3.2718 H   0  0  0  0  0  0  0  0  0  0  0  0
    2.0337   -2.8554    4.4628 H   0  0  0  0  0  0  0  0  0  0  0  0
    3.0597   -5.1081    1.8093 H   0  0  0  0  0  0  0  0  0  0  0  0
    3.8304   -6.1218    4.1618 H   0  0  0  0  0  0  0  0  0  0  0  0
    1.1990   -8.5993    1.3662 H   0  0  0  0  0  0  0  0  0  0  0  0
    0.2356   -7.1111    1.4734 H   0  0  0  0  0  0  0  0  0  0  0  0
  1  2  1  0
  1 32  1  0
  1 33  1  0
  1 34  1  0
  2 31  1  0
  2  3  1  0
  2  4  1  0
  3 35  1  0
  3 36  1  0
  3 37  1  0
  4  5  1  0
  4 38  1  0
  4 39  1  0
  5  6  1  0
  5 40  1  0
  5 41  1  0
  6  7  1  0
  6 31  1  0
  6 42  1  1
  7 30  1  0
  7  8  1  0
  7 43  1  6
  8  9  1  0
  8 44  1  0
  8 45  1  0
  9 10  2  0
  9 46  1  0
 10 12  1  0
 10 11  1  0
 11 12  1  0
 11 47  1  0
 11 48  1  0
 12 13  1  1
 12 14  1  0
 13 49  1  0
 13 50  1  0
 13 51  1  0
 14 30  1  0
 14 15  1  1
 14 16  1  0
 15 52  1  0
 15 53  1  0
 15 54  1  0
 16 17  1  0
 16 55  1  0
 16 56  1  0
 17 18  1  0
 17 57  1  0
 17 58  1  0
 18 29  1  0
 18 19  1  6
 18 20  1  0
 19 59  1  0
 19 60  1  0
 19 61  1  0
 20 21  1  0
 20 22  1  0
 20 62  1  6
 21 63  1  0
 22 23  1  0
 22 24  1  0
 22 64  1  1
 23 65  1  0
 24 25  1  0
 24 26  1  0
 24 66  1  1
 25 67  1  0
 26 27  1  0
 26 28  1  0
 26 29  1  0
 27 68  1  0
 27 69  1  0
 27 70  1  0
 28 71  1  0
 28 72  1  0
 28 73  1  0
 29 30  1  0
 29 74  1  6
 30 75  1  1
 31 76  1  0
 31 77  1  0
M  END
>  <i_m_ct_stereo_status>  (208) 
1

>  <s_m_source_file>  (208) 
/var/tmp/pbs.5076255.sched01/tmprh8juyh8/78tr4t3sa2.sdf

>  <i_m_source_file_index>  (208) 
10

>  <i_lp_mmshare_version>  (208) 
48012

>  <i_f3d_flags>  (208) 
0

>  <s_epik_input>  (208) 
W0NIM11DMShbQ0gzXSlbQ0gyXVtDSDJdW0NASF0oW0NIMl0xKVtDQEhdKFtDSDJdW0NIXT1DKFtDSDJdMilDMjNbQ0gzXSlbQ0BIXTRbQ0BdMyhbQ0gzXSlbQ0gyXVtDSDJdW0NAQF01KFtDSDNdKVtDQEBIXTRDKFtDSDNdKShbQ0gzXSlbQ0BIXShbT0hdKVtDQEhdKFtPSF0pW0NAQEhdNVtPSF0=

>  <s_epik_cmdline>  (208) 
J2VwaWtfcHl0aG9uJywgJy1waHQnLCAnMi4wJywgJy1waCcsICc3LjAnLCAnLXRuJywgJzgnLCAnLW1hJywgJzIwMCcsICctaW1hZScsICc8aW5maWxlLm1hZT4nLCAnLW9tYWUnLCAnPG91dGZpbGUubWFlPic=

>  <r_lp_tautomer_probability>  (208) 
1

>  <r_epik_Ionization_Penalty>  (208) 
9.45251e-07

>  <r_epik_Ionization_Penalty_Charging>  (208) 
0

>  <r_epik_Ionization_Penalty_Neutral>  (208) 
9.45251e-07

>  <r_epik_State_Penalty>  (208) 
-0

>  <r_epik_Charging_Adjusted_Penalty>  (208) 
0

>  <i_epik_Tot_Q>  (208) 
0

>  <i_epik_Tot_abs_Q>  (208) 
0

>  <s_lp_Force_Field>  (208) 
OPLS3e

>  <r_lp_Energy>  (208) 
102.579

>  <b_lp_Chiralities_Consistent>  (208) 
1

>  <s_lp_Variant>  (208) 
70:0-1

>  <s_i_glide_gridfile>  (208) 
pfpi4k_grid

>  <i_i_glide_lignum>  (208) 
10

>  <i_i_glide_rotatable_bonds>  (208) 
4

>  <r_i_docking_score>  (208) 
-2.47442

>  <r_i_glide_ligand_efficiency>  (208) 
-0.07982

>  <r_i_glide_ligand_efficiency_sa>  (208) 
-0.250745

>  <r_i_glide_ligand_efficiency_ln>  (208) 
-0.558058

>  <r_i_glide_gscore>  (208) 
-2.47442

>  <r_i_glide_lipo>  (208) 
-0.434775

>  <r_i_glide_hbond>  (208) 
0

>  <r_i_glide_metal>  (208) 
-0

>  <r_i_glide_rewards>  (208) 
-0.472752

>  <r_i_glide_evdw>  (208) 
-28.9589

>  <r_i_glide_ecoul>  (208) 
-1.50769

>  <r_i_glide_erotb>  (208) 
0.107204

>  <r_i_glide_esite>  (208) 
0

>  <r_i_glide_emodel>  (208) 
-35.197

>  <r_i_glide_energy>  (208) 
-30.4666

>  <r_i_glide_einternal>  (208) 
0.793578

>  <r_i_glide_intrahb_reward>  (208) 
-0

>  <i_i_glide_confnum>  (208) 
2

>  <i_i_glide_posenum>  (208) 
9

>  <r_i_glide_eff_state_penalty>  (208) 
0

>  <ligand_id>  (208) 
70

>  <original_smiles>  (208) 
CC1(C)CCC(C2CC=C3CC3(C)C3(C)CCC4(C)C(O)C(O)C(O)C(C)(C)C4C23)C1

>  <smiles>  (208) 
[H]OC1([H])C([H])(O[H])C(C([H])([H])[H])(C([H])([H])[H])C2([H])C3([H])C([H])(C4([H])C([H])([H])C([H])([H])C(C([H])([H])[H])(C([H])([H])[H])C4([H])[H])C([H])([H])C([H])=C4C([H])([H])C4(C([H])([H])[H])C3(C([H])([H])[H])C([H])([H])C([H])([H])C2(C([H])([H])[H])C1([H])O[H]

$$$$
70:1:0
     RDKit          3D

 77 81  0  0  1  0  0  0  0  0999 V2000
    0.9124   -9.3586    3.7228 C   0  0  0  0  0  0  0  0  0  0  0  0
   -0.1725   -8.3182    3.3535 C   0  0  0  0  0  0  0  0  0  0  0  0
   -1.2775   -9.0595    2.5877 C   0  0  0  0  0  0  0  0  0  0  0  0
   -0.7301   -7.6155    4.5981 C   0  0  0  0  0  0  0  0  0  0  0  0
   -0.1815   -6.1825    4.5752 C   0  0  0  0  0  0  0  0  0  0  0  0
    0.9093   -6.0998    3.4870 C   0  0  1  0  0  0  0  0  0  0  0  0
    2.3720   -6.3995    3.9912 C   0  0  2  0  0  0  0  0  0  0  0  0
    2.4052   -6.6776    5.5405 C   0  0  0  0  0  0  0  0  0  0  0  0
    3.6041   -7.4148    6.0658 C   0  0  0  0  0  0  0  0  0  0  0  0
    4.5791   -7.8174    5.2517 C   0  0  0  0  0  0  0  0  0  0  0  0
    5.9337   -8.3388    5.0736 C   0  0  0  0  0  0  0  0  0  0  0  0
    5.0310   -7.8053    3.8600 C   0  0  1  0  0  0  0  0  0  0  0  0
    4.5566   -8.9427    2.9459 C   0  0  0  0  0  0  0  0  0  0  0  0
    5.0126   -6.3443    3.2612 C   0  0  1  0  0  0  0  0  0  0  0  0
    6.1893   -5.5950    3.9373 C   0  0  0  0  0  0  0  0  0  0  0  0
    5.4244   -6.4131    1.7534 C   0  0  0  0  0  0  0  0  0  0  0  0
    5.1833   -5.1321    0.9504 C   0  0  0  0  0  0  0  0  0  0  0  0
    3.7142   -4.6814    0.9914 C   0  0  2  0  0  0  0  0  0  0  0  0
    2.8533   -5.8778    0.5011 C   0  0  0  0  0  0  0  0  0  0  0  0
    3.5309   -3.5038   -0.0301 C   0  0  1  0  0  0  0  0  0  0  0  0
    2.2057   -3.4499   -0.5248 O   0  0  0  0  0  0  0  0  0  0  0  0
    3.9430   -2.1330    0.5410 C   0  0  1  0  0  0  0  0  0  0  0  0
    3.8062   -1.0940   -0.4243 O   0  0  0  0  0  0  0  0  0  0  0  0
    3.2326   -1.7825    1.8708 C   0  0  1  0  0  0  0  0  0  0  0  0
    1.8275   -1.6348    1.6746 O   0  0  0  0  0  0  0  0  0  0  0  0
    3.5367   -2.8383    2.9932 C   0  0  0  0  0  0  0  0  0  0  0  0
    4.9671   -2.5493    3.5085 C   0  0  0  0  0  0  0  0  0  0  0  0
    2.5981   -2.5500    4.2025 C   0  0  0  0  0  0  0  0  0  0  0  0
    3.2954   -4.3300    2.4695 C   0  0  2  0  0  0  0  0  0  0  0  0
    3.6197   -5.5087    3.5107 C   0  0  1  0  0  0  0  0  0  0  0  0
    0.4097   -7.1786    2.4983 C   0  0  0  0  0  0  0  0  0  0  0  0
    0.4952  -10.1960    4.2954 H   0  0  0  0  0  0  0  0  0  0  0  0
    1.7426   -8.9353    4.2804 H   0  0  0  0  0  0  0  0  0  0  0  0
    1.3652   -9.8122    2.8377 H   0  0  0  0  0  0  0  0  0  0  0  0
   -2.1089   -8.4096    2.2991 H   0  0  0  0  0  0  0  0  0  0  0  0
   -1.6923   -9.8567    3.2078 H   0  0  0  0  0  0  0  0  0  0  0  0
   -0.8940   -9.5276    1.6876 H   0  0  0  0  0  0  0  0  0  0  0  0
   -1.8226   -7.5859    4.5915 H   0  0  0  0  0  0  0  0  0  0  0  0
   -0.4364   -8.1311    5.5075 H   0  0  0  0  0  0  0  0  0  0  0  0
   -0.9972   -5.5633    4.2533 H   0  0  0  0  0  0  0  0  0  0  0  0
    0.1444   -5.8432    5.5677 H   0  0  0  0  0  0  0  0  0  0  0  0
    0.7661   -5.1194    3.0722 H   0  0  0  0  0  0  0  0  0  0  0  0
    2.5582   -7.3565    3.5313 H   0  0  0  0  0  0  0  0  0  0  0  0
    2.3046   -5.7530    6.1090 H   0  0  0  0  0  0  0  0  0  0  0  0
    1.5728   -7.3118    5.8275 H   0  0  0  0  0  0  0  0  0  0  0  0
    3.6854   -7.5836    7.1260 H   0  0  0  0  0  0  0  0  0  0  0  0
    6.7572   -7.7451    5.4615 H   0  0  0  0  0  0  0  0  0  0  0  0
    6.1022   -9.4130    5.1647 H   0  0  0  0  0  0  0  0  0  0  0  0
    5.3660   -9.2473    2.2833 H   0  0  0  0  0  0  0  0  0  0  0  0
    3.7022   -8.6726    2.3314 H   0  0  0  0  0  0  0  0  0  0  0  0
    4.2682   -9.8085    3.5364 H   0  0  0  0  0  0  0  0  0  0  0  0
    6.4283   -4.6909    3.4013 H   0  0  0  0  0  0  0  0  0  0  0  0
    7.1021   -6.1875    3.9189 H   0  0  0  0  0  0  0  0  0  0  0  0
    5.9783   -5.3432    4.9769 H   0  0  0  0  0  0  0  0  0  0  0  0
    6.4764   -6.6770    1.6890 H   0  0  0  0  0  0  0  0  0  0  0  0
    4.9345   -7.2280    1.2216 H   0  0  0  0  0  0  0  0  0  0  0  0
    5.8443   -4.3466    1.2911 H   0  0  0  0  0  0  0  0  0  0  0  0
    5.4794   -5.3319   -0.0813 H   0  0  0  0  0  0  0  0  0  0  0  0
    1.7960   -5.6373    0.4022 H   0  0  0  0  0  0  0  0  0  0  0  0
    2.8784   -6.7144    1.1880 H   0  0  0  0  0  0  0  0  0  0  0  0
    3.2240   -6.2583   -0.4439 H   0  0  0  0  0  0  0  0  0  0  0  0
    4.1363   -3.6940   -0.9197 H   0  0  0  0  0  0  0  0  0  0  0  0
    1.9903   -2.5570   -0.7621 H   0  0  0  0  0  0  0  0  0  0  0  0
    5.0070   -2.1890    0.7421 H   0  0  0  0  0  0  0  0  0  0  0  0
    2.8973   -0.9808   -0.6390 H   0  0  0  0  0  0  0  0  0  0  0  0
    3.5959   -0.8026    2.1986 H   0  0  0  0  0  0  0  0  0  0  0  0
    1.6565   -1.1368    0.8803 H   0  0  0  0  0  0  0  0  0  0  0  0
    5.1985   -3.1255    4.4003 H   0  0  0  0  0  0  0  0  0  0  0  0
    5.0759   -1.5041    3.8007 H   0  0  0  0  0  0  0  0  0  0  0  0
    5.7313   -2.7362    2.7612 H   0  0  0  0  0  0  0  0  0  0  0  0
    2.8043   -3.1908    5.0592 H   0  0  0  0  0  0  0  0  0  0  0  0
    1.5486   -2.6966    3.9496 H   0  0  0  0  0  0  0  0  0  0  0  0
    2.7117   -1.5212    4.5438 H   0  0  0  0  0  0  0  0  0  0  0  0
    2.2504   -4.2754    2.3273 H   0  0  0  0  0  0  0  0  0  0  0  0
    3.8408   -4.9638    4.4297 H   0  0  0  0  0  0  0  0  0  0  0  0
    1.1533   -7.5615    1.7934 H   0  0  0  0  0  0  0  0  0  0  0  0
   -0.3828   -6.7388    1.8892 H   0  0  0  0  0  0  0  0  0  0  0  0
  1  2  1  0
  1 32  1  0
  1 33  1  0
  1 34  1  0
  2 31  1  0
  2  3  1  0
  2  4  1  0
  3 35  1  0
  3 36  1  0
  3 37  1  0
  4  5  1  0
  4 38  1  0
  4 39  1  0
  5  6  1  0
  5 40  1  0
  5 41  1  0
  6  7  1  0
  6 31  1  0
  6 42  1  6
  7 30  1  0
  7  8  1  0
  7 43  1  6
  8  9  1  0
  8 44  1  0
  8 45  1  0
  9 10  2  0
  9 46  1  0
 10 12  1  0
 10 11  1  0
 11 12  1  0
 11 47  1  0
 11 48  1  0
 12 13  1  6
 12 14  1  0
 13 49  1  0
 13 50  1  0
 13 51  1  0
 14 30  1  0
 14 15  1  1
 14 16  1  0
 15 52  1  0
 15 53  1  0
 15 54  1  0
 16 17  1  0
 16 55  1  0
 16 56  1  0
 17 18  1  0
 17 57  1  0
 17 58  1  0
 18 29  1  0
 18 19  1  6
 18 20  1  0
 19 59  1  0
 19 60  1  0
 19 61  1  0
 20 21  1  0
 20 22  1  0
 20 62  1  6
 21 63  1  0
 22 23  1  0
 22 24  1  0
 22 64  1  1
 23 65  1  0
 24 25  1  0
 24 26  1  0
 24 66  1  1
 25 67  1  0
 26 27  1  0
 26 28  1  0
 26 29  1  0
 27 68  1  0
 27 69  1  0
 27 70  1  0
 28 71  1  0
 28 72  1  0
 28 73  1  0
 29 30  1  0
 29 74  1  6
 30 75  1  1
 31 76  1  0
 31 77  1  0
M  END
>  <i_m_ct_stereo_status>  (209) 
1

>  <s_m_source_file>  (209) 
/var/tmp/pbs.5076255.sched01/tmprh8juyh8/78tr4t3sa2.sdf

>  <i_m_source_file_index>  (209) 
11

>  <i_lp_mmshare_version>  (209) 
48012

>  <i_f3d_flags>  (209) 
0

>  <s_epik_input>  (209) 
W0NIM11DMShbQ0gzXSlbQ0gyXVtDSDJdW0NASF0oW0NIMl0xKVtDQEhdKFtDSDJdW0NIXT1DKFtDSDJdMilDMjNbQ0gzXSlbQ0BIXTRbQ0BdMyhbQ0gzXSlbQ0gyXVtDSDJdW0NAQF01KFtDSDNdKVtDQEBIXTRDKFtDSDNdKShbQ0gzXSlbQ0BIXShbT0hdKVtDQEhdKFtPSF0pW0NAQEhdNVtPSF0=

>  <s_epik_cmdline>  (209) 
J2VwaWtfcHl0aG9uJywgJy1waHQnLCAnMi4wJywgJy1waCcsICc3LjAnLCAnLXRuJywgJzgnLCAnLW1hJywgJzIwMCcsICctaW1hZScsICc8aW5maWxlLm1hZT4nLCAnLW9tYWUnLCAnPG91dGZpbGUubWFlPic=

>  <r_lp_tautomer_probability>  (209) 
1

>  <r_epik_Ionization_Penalty>  (209) 
9.45251e-07

>  <r_epik_Ionization_Penalty_Charging>  (209) 
0

>  <r_epik_Ionization_Penalty_Neutral>  (209) 
9.45251e-07

>  <r_epik_State_Penalty>  (209) 
-0

>  <r_epik_Charging_Adjusted_Penalty>  (209) 
0

>  <i_epik_Tot_Q>  (209) 
0

>  <i_epik_Tot_abs_Q>  (209) 
0

>  <s_lp_Force_Field>  (209) 
OPLS3e

>  <r_lp_Energy>  (209) 
91.7639

>  <b_lp_Chiralities_Consistent>  (209) 
1

>  <s_lp_Variant>  (209) 
70:0-2

>  <s_i_glide_gridfile>  (209) 
pfpi4k_grid

>  <i_i_glide_lignum>  (209) 
11

>  <i_i_glide_rotatable_bonds>  (209) 
4

>  <r_i_docking_score>  (209) 
-2.63615

>  <r_i_glide_ligand_efficiency>  (209) 
-0.085037

>  <r_i_glide_ligand_efficiency_sa>  (209) 
-0.267134

>  <r_i_glide_ligand_efficiency_ln>  (209) 
-0.594532

>  <r_i_glide_gscore>  (209) 
-2.63615

>  <r_i_glide_lipo>  (209) 
-0.294413

>  <r_i_glide_hbond>  (209) 
0

>  <r_i_glide_metal>  (209) 
-0

>  <r_i_glide_rewards>  (209) 
-0.472752

>  <r_i_glide_evdw>  (209) 
-25.0238

>  <r_i_glide_ecoul>  (209) 
-4.61891

>  <r_i_glide_erotb>  (209) 
0.0750426

>  <r_i_glide_esite>  (209) 
0

>  <r_i_glide_emodel>  (209) 
-28.1063

>  <r_i_glide_energy>  (209) 
-29.6427

>  <r_i_glide_einternal>  (209) 
11.9145

>  <r_i_glide_intrahb_reward>  (209) 
-0

>  <i_i_glide_confnum>  (209) 
3

>  <i_i_glide_posenum>  (209) 
40

>  <r_i_glide_eff_state_penalty>  (209) 
0

>  <ligand_id>  (209) 
70

>  <original_smiles>  (209) 
CC1(C)CCC(C2CC=C3CC3(C)C3(C)CCC4(C)C(O)C(O)C(O)C(C)(C)C4C23)C1

>  <smiles>  (209) 
[H]OC1([H])C([H])(O[H])C(C([H])([H])[H])(C([H])([H])[H])C2([H])C3([H])C([H])(C4([H])C([H])([H])C([H])([H])C(C([H])([H])[H])(C([H])([H])[H])C4([H])[H])C([H])([H])C([H])=C4C([H])([H])C4(C([H])([H])[H])C3(C([H])([H])[H])C([H])([H])C([H])([H])C2(C([H])([H])[H])C1([H])O[H]

$$$$
70:1:1
     RDKit          3D

 77 81  0  0  1  0  0  0  0  0999 V2000
    0.7748  -10.0012    5.4316 C   0  0  0  0  0  0  0  0  0  0  0  0
    0.3746   -8.4959    5.2867 C   0  0  0  0  0  0  0  0  0  0  0  0
   -1.0915   -8.4715    4.8587 C   0  0  0  0  0  0  0  0  0  0  0  0
    0.6342   -7.7010    6.5857 C   0  0  0  0  0  0  0  0  0  0  0  0
    1.8029   -6.7539    6.3016 C   0  0  0  0  0  0  0  0  0  0  0  0
    2.4674   -7.1759    4.9689 C   0  0  1  0  0  0  0  0  0  0  0  0
    3.6061   -8.2744    5.0653 C   0  0  2  0  0  0  0  0  0  0  0  0
    3.9715   -8.6151    6.5551 C   0  0  0  0  0  0  0  0  0  0  0  0
    4.6892   -9.8903    6.8158 C   0  0  0  0  0  0  0  0  0  0  0  0
    5.0041  -10.7431    5.8219 C   0  0  0  0  0  0  0  0  0  0  0  0
    5.7360  -11.9000    5.3422 C   0  0  0  0  0  0  0  0  0  0  0  0
    4.9431  -10.9065    4.3715 C   0  0  1  0  0  0  0  0  0  0  0  0
    3.6812  -11.5480    3.7868 C   0  0  0  0  0  0  0  0  0  0  0  0
    5.5111   -9.6414    3.6259 C   0  0  1  0  0  0  0  0  0  0  0  0
    7.0495   -9.6859    3.8451 C   0  0  0  0  0  0  0  0  0  0  0  0
    5.3431   -9.8499    2.0903 C   0  0  0  0  0  0  0  0  0  0  0  0
    5.5832   -8.6114    1.2385 C   0  0  0  0  0  0  0  0  0  0  0  0
    4.6751   -7.4368    1.6240 C   0  0  2  0  0  0  0  0  0  0  0  0
    3.2280   -7.9708    1.5403 C   0  0  0  0  0  0  0  0  0  0  0  0
    4.8114   -6.2917    0.5618 C   0  0  1  0  0  0  0  0  0  0  0  0
    3.6654   -5.4592    0.4967 O   0  0  0  0  0  0  0  0  0  0  0  0
    6.0353   -5.4046    0.8044 C   0  0  1  0  0  0  0  0  0  0  0  0
    6.1240   -4.3717   -0.1692 O   0  0  0  0  0  0  0  0  0  0  0  0
    6.0870   -4.8063    2.2256 C   0  0  1  0  0  0  0  0  0  0  0  0
    5.0083   -3.9010    2.4434 O   0  0  0  0  0  0  0  0  0  0  0  0
    6.1105   -5.8996    3.3410 C   0  0  0  0  0  0  0  0  0  0  0  0
    7.5522   -6.4435    3.3931 C   0  0  0  0  0  0  0  0  0  0  0  0
    5.8614   -5.2084    4.7135 C   0  0  0  0  0  0  0  0  0  0  0  0
    4.9639   -6.9785    3.0972 C   0  0  2  0  0  0  0  0  0  0  0  0
    4.9275   -8.1853    4.1457 C   0  0  1  0  0  0  0  0  0  0  0  0
    1.2317   -7.7631    4.2343 C   0  0  0  0  0  0  0  0  0  0  0  0
    0.0948  -10.5435    6.0940 H   0  0  0  0  0  0  0  0  0  0  0  0
    1.7960  -10.1545    5.7670 H   0  0  0  0  0  0  0  0  0  0  0  0
    0.6938  -10.5332    4.4846 H   0  0  0  0  0  0  0  0  0  0  0  0
   -1.5006   -7.4660    4.7813 H   0  0  0  0  0  0  0  0  0  0  0  0
   -1.6829   -9.0281    5.5767 H   0  0  0  0  0  0  0  0  0  0  0  0
   -1.2446   -8.9663    3.8983 H   0  0  0  0  0  0  0  0  0  0  0  0
   -0.2085   -7.0973    6.8931 H   0  0  0  0  0  0  0  0  0  0  0  0
    0.8496   -8.3680    7.4155 H   0  0  0  0  0  0  0  0  0  0  0  0
    1.3590   -5.7538    6.1282 H   0  0  0  0  0  0  0  0  0  0  0  0
    2.4868   -6.7082    7.1595 H   0  0  0  0  0  0  0  0  0  0  0  0
    2.7509   -6.2230    4.5665 H   0  0  0  0  0  0  0  0  0  0  0  0
    3.1286   -9.1417    4.6858 H   0  0  0  0  0  0  0  0  0  0  0  0
    4.5337   -7.8113    7.0398 H   0  0  0  0  0  0  0  0  0  0  0  0
    3.0430   -8.7090    7.1208 H   0  0  0  0  0  0  0  0  0  0  0  0
    4.9925  -10.1470    7.8135 H   0  0  0  0  0  0  0  0  0  0  0  0
    6.8228  -11.8789    5.4138 H   0  0  0  0  0  0  0  0  0  0  0  0
    5.3226  -12.8977    5.5239 H   0  0  0  0  0  0  0  0  0  0  0  0
    3.9547  -12.2122    2.9690 H   0  0  0  0  0  0  0  0  0  0  0  0
    2.9680  -10.8218    3.4039 H   0  0  0  0  0  0  0  0  0  0  0  0
    3.1763  -12.1336    4.5462 H   0  0  0  0  0  0  0  0  0  0  0  0
    7.5637   -9.0411    3.1607 H   0  0  0  0  0  0  0  0  0  0  0  0
    7.4274  -10.6817    3.6469 H   0  0  0  0  0  0  0  0  0  0  0  0
    7.3165   -9.4181    4.8602 H   0  0  0  0  0  0  0  0  0  0  0  0
    6.0228  -10.6217    1.7714 H   0  0  0  0  0  0  0  0  0  0  0  0
    4.3695  -10.2628    1.8183 H   0  0  0  0  0  0  0  0  0  0  0  0
    6.6283   -8.3283    1.2747 H   0  0  0  0  0  0  0  0  0  0  0  0
    5.3839   -8.8896    0.2028 H   0  0  0  0  0  0  0  0  0  0  0  0
    2.4842   -7.2007    1.7035 H   0  0  0  0  0  0  0  0  0  0  0  0
    3.0112   -8.7120    2.3000 H   0  0  0  0  0  0  0  0  0  0  0  0
    3.0893   -8.4278    0.5630 H   0  0  0  0  0  0  0  0  0  0  0  0
    4.8982   -6.7350   -0.4329 H   0  0  0  0  0  0  0  0  0  0  0  0
    3.5954   -5.1141   -0.3728 H   0  0  0  0  0  0  0  0  0  0  0  0
    6.9150   -6.0273    0.6665 H   0  0  0  0  0  0  0  0  0  0  0  0
    5.9883   -4.7616   -1.0119 H   0  0  0  0  0  0  0  0  0  0  0  0
    7.0122   -4.2338    2.2532 H   0  0  0  0  0  0  0  0  0  0  0  0
    4.2254   -4.3272    2.1380 H   0  0  0  0  0  0  0  0  0  0  0  0
    7.7013   -7.0916    4.2508 H   0  0  0  0  0  0  0  0  0  0  0  0
    8.2776   -5.6379    3.5076 H   0  0  0  0  0  0  0  0  0  0  0  0
    7.8417   -6.9809    2.4925 H   0  0  0  0  0  0  0  0  0  0  0  0
    5.9672   -5.8980    5.5463 H   0  0  0  0  0  0  0  0  0  0  0  0
    4.8660   -4.7781    4.7870 H   0  0  0  0  0  0  0  0  0  0  0  0
    6.5801   -4.4063    4.8771 H   0  0  0  0  0  0  0  0  0  0  0  0
    4.1030   -6.3788    3.2409 H   0  0  0  0  0  0  0  0  0  0  0  0
    5.6848   -7.8923    4.8848 H   0  0  0  0  0  0  0  0  0  0  0  0
    1.4034   -8.4097    3.3790 H   0  0  0  0  0  0  0  0  0  0  0  0
    0.6500   -6.9061    3.8605 H   0  0  0  0  0  0  0  0  0  0  0  0
  1  2  1  0
  1 32  1  0
  1 33  1  0
  1 34  1  0
  2 31  1  0
  2  3  1  0
  2  4  1  0
  3 35  1  0
  3 36  1  0
  3 37  1  0
  4  5  1  0
  4 38  1  0
  4 39  1  0
  5  6  1  0
  5 40  1  0
  5 41  1  0
  6  7  1  0
  6 31  1  0
  6 42  1  6
  7 30  1  0
  7  8  1  0
  7 43  1  6
  8  9  1  0
  8 44  1  0
  8 45  1  0
  9 10  2  0
  9 46  1  0
 10 12  1  0
 10 11  1  0
 11 12  1  0
 11 47  1  0
 11 48  1  0
 12 13  1  6
 12 14  1  0
 13 49  1  0
 13 50  1  0
 13 51  1  0
 14 30  1  0
 14 15  1  6
 14 16  1  0
 15 52  1  0
 15 53  1  0
 15 54  1  0
 16 17  1  0
 16 55  1  0
 16 56  1  0
 17 18  1  0
 17 57  1  0
 17 58  1  0
 18 29  1  0
 18 19  1  1
 18 20  1  0
 19 59  1  0
 19 60  1  0
 19 61  1  0
 20 21  1  0
 20 22  1  0
 20 62  1  6
 21 63  1  0
 22 23  1  0
 22 24  1  0
 22 64  1  6
 23 65  1  0
 24 25  1  0
 24 26  1  0
 24 66  1  6
 25 67  1  0
 26 27  1  0
 26 28  1  0
 26 29  1  0
 27 68  1  0
 27 69  1  0
 27 70  1  0
 28 71  1  0
 28 72  1  0
 28 73  1  0
 29 30  1  0
 29 74  1  1
 30 75  1  1
 31 76  1  0
 31 77  1  0
M  END
>  <i_m_ct_stereo_status>  (210) 
1

>  <s_m_source_file>  (210) 
/var/tmp/pbs.5076255.sched01/tmprh8juyh8/78tr4t3sa2.sdf

>  <i_m_source_file_index>  (210) 
11

>  <i_lp_mmshare_version>  (210) 
48012

>  <i_f3d_flags>  (210) 
0

>  <s_epik_input>  (210) 
W0NIM11DMShbQ0gzXSlbQ0gyXVtDSDJdW0NASF0oW0NIMl0xKVtDQEhdKFtDSDJdW0NIXT1DKFtDSDJdMilDMjNbQ0gzXSlbQ0BIXTRbQ0BdMyhbQ0gzXSlbQ0gyXVtDSDJdW0NAQF01KFtDSDNdKVtDQEBIXTRDKFtDSDNdKShbQ0gzXSlbQ0BIXShbT0hdKVtDQEhdKFtPSF0pW0NAQEhdNVtPSF0=

>  <s_epik_cmdline>  (210) 
J2VwaWtfcHl0aG9uJywgJy1waHQnLCAnMi4wJywgJy1waCcsICc3LjAnLCAnLXRuJywgJzgnLCAnLW1hJywgJzIwMCcsICctaW1hZScsICc8aW5maWxlLm1hZT4nLCAnLW9tYWUnLCAnPG91dGZpbGUubWFlPic=

>  <r_lp_tautomer_probability>  (210) 
1

>  <r_epik_Ionization_Penalty>  (210) 
9.45251e-07

>  <r_epik_Ionization_Penalty_Charging>  (210) 
0

>  <r_epik_Ionization_Penalty_Neutral>  (210) 
9.45251e-07

>  <r_epik_State_Penalty>  (210) 
-0

>  <r_epik_Charging_Adjusted_Penalty>  (210) 
0

>  <i_epik_Tot_Q>  (210) 
0

>  <i_epik_Tot_abs_Q>  (210) 
0

>  <s_lp_Force_Field>  (210) 
OPLS3e

>  <r_lp_Energy>  (210) 
91.7639

>  <b_lp_Chiralities_Consistent>  (210) 
1

>  <s_lp_Variant>  (210) 
70:0-2

>  <s_i_glide_gridfile>  (210) 
pfpi4k_grid

>  <i_i_glide_lignum>  (210) 
11

>  <i_i_glide_rotatable_bonds>  (210) 
4

>  <r_i_docking_score>  (210) 
-2.52146

>  <r_i_glide_ligand_efficiency>  (210) 
-0.0813376

>  <r_i_glide_ligand_efficiency_sa>  (210) 
-0.255512

>  <r_i_glide_ligand_efficiency_ln>  (210) 
-0.568667

>  <r_i_glide_gscore>  (210) 
-2.52146

>  <r_i_glide_lipo>  (210) 
-0.428764

>  <r_i_glide_hbond>  (210) 
0

>  <r_i_glide_metal>  (210) 
-0

>  <r_i_glide_rewards>  (210) 
-0.972752

>  <r_i_glide_evdw>  (210) 
-20.545

>  <r_i_glide_ecoul>  (210) 
-1.33267

>  <r_i_glide_erotb>  (210) 
0.107204

>  <r_i_glide_esite>  (210) 
0

>  <r_i_glide_emodel>  (210) 
-24.9412

>  <r_i_glide_energy>  (210) 
-21.8777

>  <r_i_glide_einternal>  (210) 
11.8577

>  <r_i_glide_intrahb_reward>  (210) 
-0.5

>  <i_i_glide_confnum>  (210) 
3

>  <i_i_glide_posenum>  (210) 
2

>  <r_i_glide_eff_state_penalty>  (210) 
0

>  <ligand_id>  (210) 
70

>  <original_smiles>  (210) 
CC1(C)CCC(C2CC=C3CC3(C)C3(C)CCC4(C)C(O)C(O)C(O)C(C)(C)C4C23)C1

>  <smiles>  (210) 
[H]OC1([H])C([H])(O[H])C(C([H])([H])[H])(C([H])([H])[H])C2([H])C3([H])C([H])(C4([H])C([H])([H])C([H])([H])C(C([H])([H])[H])(C([H])([H])[H])C4([H])[H])C([H])([H])C([H])=C4C([H])([H])C4(C([H])([H])[H])C3(C([H])([H])[H])C([H])([H])C([H])([H])C2(C([H])([H])[H])C1([H])O[H]

$$$$
71:1:0
     RDKit          3D

 45 49  0  0  1  0  0  0  0  0999 V2000
    6.5434   -4.8860    0.7872 C   0  0  0  0  0  0  0  0  0  0  0  0
    5.1997   -5.1211    0.0778 C   0  0  0  0  0  0  0  0  0  0  0  0
    4.9558   -4.0703   -1.0211 C   0  0  0  0  0  0  0  0  0  0  0  0
    4.0471   -5.1888    1.0760 C   0  0  0  0  0  0  0  0  0  0  0  0
    3.5745   -4.0118    1.7249 C   0  0  0  0  0  0  0  0  0  0  0  0
    2.5544   -4.0624    2.7164 C   0  0  0  0  0  0  0  0  0  0  0  0
    1.9311   -5.2884    3.0241 C   0  0  0  0  0  0  0  0  0  0  0  0
    2.3974   -6.3835    2.2869 C   0  0  0  0  0  0  0  0  0  0  0  0
    3.4544   -6.4338    1.3936 C   0  0  0  0  0  0  0  0  0  0  0  0
    3.8223   -7.7222    1.0740 O   0  0  0  0  0  0  0  0  0  0  0  0
    3.0650   -8.5496    1.8776 C   0  0  0  0  0  0  0  0  0  0  0  0
    3.3949   -9.7706    2.3409 C   0  0  0  0  0  0  0  0  0  0  0  0
    2.5905  -10.3460    3.4256 C   0  0  0  0  0  0  0  0  0  0  0  0
    1.8043   -9.5553    4.1998 C   0  0  0  0  0  0  0  0  0  0  0  0
    1.7478   -8.0447    3.9523 C   0  0  2  0  0  0  0  0  0  0  0  0
    0.5734   -7.1318    4.4132 C   0  0  1  0  0  0  0  0  0  0  0  0
    0.9547   -5.6255    4.1749 C   0  0  0  0  0  0  0  0  0  0  0  0
   -0.6998   -7.3874    3.7164 N   0  0  0  0  0  0  0  0  0  0  0  0
   -1.3585   -8.6093    4.1638 C   0  0  0  0  0  0  0  0  0  0  0  0
   -0.5953   -7.3158    2.2559 C   0  0  0  0  0  0  0  0  0  0  0  0
    0.6160   -8.0748    1.7024 C   0  0  0  0  0  0  0  0  0  0  0  0
    1.9203   -7.7692    2.4707 C   0  0  1  0  0  0  0  0  0  0  0  0
    6.7265   -5.6512    1.5426 H   0  0  0  0  0  0  0  0  0  0  0  0
    6.5739   -3.9157    1.2844 H   0  0  0  0  0  0  0  0  0  0  0  0
    7.3734   -4.9202    0.0808 H   0  0  0  0  0  0  0  0  0  0  0  0
    5.2582   -6.0921   -0.4187 H   0  0  0  0  0  0  0  0  0  0  0  0
    4.0114   -4.2558   -1.5330 H   0  0  0  0  0  0  0  0  0  0  0  0
    5.7456   -4.0909   -1.7725 H   0  0  0  0  0  0  0  0  0  0  0  0
    4.9161   -3.0576   -0.6204 H   0  0  0  0  0  0  0  0  0  0  0  0
    4.0314   -3.0614    1.5026 H   0  0  0  0  0  0  0  0  0  0  0  0
    2.2800   -3.1643    3.2484 H   0  0  0  0  0  0  0  0  0  0  0  0
    4.2980  -10.2570    2.0024 H   0  0  0  0  0  0  0  0  0  0  0  0
    2.6357  -11.4136    3.6069 H   0  0  0  0  0  0  0  0  0  0  0  0
    1.2162   -9.9686    5.0055 H   0  0  0  0  0  0  0  0  0  0  0  0
    2.6353   -7.6912    4.4807 H   0  0  0  0  0  0  0  0  0  0  0  0
    0.3936   -7.2733    5.4787 H   0  0  0  0  0  0  0  0  0  0  0  0
    1.4425   -5.2737    5.0821 H   0  0  0  0  0  0  0  0  0  0  0  0
    0.0622   -5.0060    4.0749 H   0  0  0  0  0  0  0  0  0  0  0  0
   -2.3701   -8.6659    3.7588 H   0  0  0  0  0  0  0  0  0  0  0  0
   -1.4431   -8.6235    5.2528 H   0  0  0  0  0  0  0  0  0  0  0  0
   -0.8219   -9.5052    3.8529 H   0  0  0  0  0  0  0  0  0  0  0  0
   -1.5108   -7.6919    1.8010 H   0  0  0  0  0  0  0  0  0  0  0  0
   -0.5027   -6.2736    1.9577 H   0  0  0  0  0  0  0  0  0  0  0  0
    0.4106   -9.1437    1.7541 H   0  0  0  0  0  0  0  0  0  0  0  0
    0.7360   -7.8414    0.6445 H   0  0  0  0  0  0  0  0  0  0  0  0
  1  2  1  0
  1 23  1  0
  1 24  1  0
  1 25  1  0
  2  3  1  0
  2  4  1  0
  2 26  1  0
  3 27  1  0
  3 28  1  0
  3 29  1  0
  4  9  2  0
  4  5  1  0
  5  6  2  0
  5 30  1  0
  6  7  1  0
  6 31  1  0
  7 17  1  0
  7  8  2  0
  8 22  1  0
  8  9  1  0
  9 10  1  0
 10 11  1  0
 11 22  1  0
 11 12  2  0
 12 13  1  0
 12 32  1  0
 13 14  2  0
 13 33  1  0
 14 15  1  0
 14 34  1  0
 15 22  1  0
 15 16  1  0
 15 35  1  1
 16 17  1  0
 16 18  1  0
 16 36  1  1
 17 37  1  0
 17 38  1  0
 18 19  1  0
 18 20  1  0
 19 39  1  0
 19 40  1  0
 19 41  1  0
 20 21  1  0
 20 42  1  0
 20 43  1  0
 22 21  1  6
 21 44  1  0
 21 45  1  0
M  END
>  <i_m_ct_stereo_status>  (211) 
1

>  <s_m_source_file>  (211) 
/var/tmp/pbs.5076255.sched01/tmprh8juyh8/78tr4t3sa2.sdf

>  <i_m_source_file_index>  (211) 
13

>  <i_lp_mmshare_version>  (211) 
48012

>  <i_f3d_flags>  (211) 
0

>  <s_epik_input>  (211) 
W0NAXTEyM2M0YzVbY0hdW2NIXWMoW0NIXShbQ0gzXSlbQ0gzXSljNE9DMT1bQ0hdW0NIXT1bQ0hdW0NAQEhdMltDQEBIXShbQ0gyXTUpTihbQ0gzXSlbQ0gyXVtDSDJdMw==

>  <s_epik_cmdline>  (211) 
J2VwaWtfcHl0aG9uJywgJy1waHQnLCAnMi4wJywgJy1waCcsICc3LjAnLCAnLXRuJywgJzgnLCAnLW1hJywgJzIwMCcsICctaW1hZScsICc8aW5maWxlLm1hZT4nLCAnLW9tYWUnLCAnPG91dGZpbGUubWFlPic=

>  <r_epik_Ionization_Penalty>  (211) 
0.566556

>  <r_epik_Ionization_Penalty_Charging>  (211) 
0

>  <r_epik_Ionization_Penalty_Neutral>  (211) 
0.566556

>  <r_epik_State_Penalty>  (211) 
0.578155

>  <r_epik_Charging_Adjusted_Penalty>  (211) 
0.578155

>  <i_epik_Tot_Q>  (211) 
0

>  <i_epik_Tot_abs_Q>  (211) 
0

>  <s_lp_Force_Field>  (211) 
OPLS3e

>  <r_lp_Energy>  (211) 
59.4602

>  <b_lp_Chiralities_Consistent>  (211) 
1

>  <s_lp_Variant>  (211) 
71:0-2

>  <s_i_glide_gridfile>  (211) 
pfpi4k_grid

>  <i_i_glide_lignum>  (211) 
13

>  <i_i_glide_rotatable_bonds>  (211) 
1

>  <r_i_docking_score>  (211) 
-2.91459

>  <r_i_glide_ligand_efficiency>  (211) 
-0.132481

>  <r_i_glide_ligand_efficiency_sa>  (211) 
-0.371217

>  <r_i_glide_ligand_efficiency_ln>  (211) 
-0.712431

>  <r_i_glide_gscore>  (211) 
-2.91459

>  <r_i_glide_lipo>  (211) 
-0.246397

>  <r_i_glide_hbond>  (211) 
0

>  <r_i_glide_metal>  (211) 
-0

>  <r_i_glide_rewards>  (211) 
-1.40862

>  <r_i_glide_evdw>  (211) 
-20.8875

>  <r_i_glide_ecoul>  (211) 
-1.43462

>  <r_i_glide_erotb>  (211) 
0

>  <r_i_glide_esite>  (211) 
0

>  <r_i_glide_emodel>  (211) 
-26.5818

>  <r_i_glide_energy>  (211) 
-22.3222

>  <r_i_glide_einternal>  (211) 
0.0924547

>  <r_i_glide_intrahb_reward>  (211) 
-0

>  <i_i_glide_confnum>  (211) 
1

>  <i_i_glide_posenum>  (211) 
5

>  <r_i_glide_eff_state_penalty>  (211) 
0

>  <ligand_id>  (211) 
71

>  <original_smiles>  (211) 
CC(C)c1ccc2c3c1OC1=CC=CC4C(C2)N(C)CCC134

>  <smiles>  (211) 
[H]C1=C([H])C2([H])C34C(=C1[H])Oc1c(C([H])(C([H])([H])[H])C([H])([H])[H])c([H])c([H])c(c13)C([H])([H])C2([H])N(C([H])([H])[H])C([H])([H])C4([H])[H]

$$$$
71:1:1
     RDKit          3D

 45 49  0  0  1  0  0  0  0  0999 V2000
    5.2846   -1.9912    2.5298 C   0  0  0  0  0  0  0  0  0  0  0  0
    4.2376   -2.5139    1.5322 C   0  0  0  0  0  0  0  0  0  0  0  0
    3.5651   -1.3594    0.7691 C   0  0  0  0  0  0  0  0  0  0  0  0
    3.2145   -3.4190    2.2143 C   0  0  0  0  0  0  0  0  0  0  0  0
    2.3386   -2.9039    3.2133 C   0  0  0  0  0  0  0  0  0  0  0  0
    1.4370   -3.7459    3.9244 C   0  0  0  0  0  0  0  0  0  0  0  0
    1.3390   -5.1122    3.5915 C   0  0  0  0  0  0  0  0  0  0  0  0
    2.1703   -5.5208    2.5417 C   0  0  0  0  0  0  0  0  0  0  0  0
    3.1470   -4.7929    1.8838 C   0  0  0  0  0  0  0  0  0  0  0  0
    3.9703   -5.5823    1.1102 O   0  0  0  0  0  0  0  0  0  0  0  0
    3.6046   -6.8872    1.3660 C   0  0  0  0  0  0  0  0  0  0  0  0
    4.3871   -7.9834    1.3190 C   0  0  0  0  0  0  0  0  0  0  0  0
    3.8854   -9.2225    1.9258 C   0  0  0  0  0  0  0  0  0  0  0  0
    2.8716   -9.1919    2.8275 C   0  0  0  0  0  0  0  0  0  0  0  0
    2.2376   -7.8585    3.2327 C   0  0  2  0  0  0  0  0  0  0  0  0
    0.8134   -7.7262    3.8467 C   0  0  1  0  0  0  0  0  0  0  0  0
    0.5836   -6.2455    4.3251 C   0  0  0  0  0  0  0  0  0  0  0  0
   -0.2743   -8.0731    2.9157 N   0  0  0  0  0  0  0  0  0  0  0  0
   -0.4162   -9.5096    2.7080 C   0  0  0  0  0  0  0  0  0  0  0  0
   -0.2444   -7.3250    1.6572 C   0  0  0  0  0  0  0  0  0  0  0  0
    1.1550   -7.2740    1.0311 C   0  0  0  0  0  0  0  0  0  0  0  0
    2.2602   -6.9099    2.0486 C   0  0  1  0  0  0  0  0  0  0  0  0
    5.7759   -2.8159    3.0469 H   0  0  0  0  0  0  0  0  0  0  0  0
    4.8374   -1.3450    3.2858 H   0  0  0  0  0  0  0  0  0  0  0  0
    6.0593   -1.4142    2.0236 H   0  0  0  0  0  0  0  0  0  0  0  0
    4.7705   -3.1159    0.7924 H   0  0  0  0  0  0  0  0  0  0  0  0
    2.8454   -1.7417    0.0451 H   0  0  0  0  0  0  0  0  0  0  0  0
    4.2976   -0.7666    0.2196 H   0  0  0  0  0  0  0  0  0  0  0  0
    3.0311   -0.6816    1.4360 H   0  0  0  0  0  0  0  0  0  0  0  0
    2.3944   -1.8600    3.4776 H   0  0  0  0  0  0  0  0  0  0  0  0
    0.8497   -3.3419    4.7348 H   0  0  0  0  0  0  0  0  0  0  0  0
    5.4036   -7.9124    0.9623 H   0  0  0  0  0  0  0  0  0  0  0  0
    4.3329  -10.1712    1.6512 H   0  0  0  0  0  0  0  0  0  0  0  0
    2.5011  -10.0975    3.2833 H   0  0  0  0  0  0  0  0  0  0  0  0
    2.9325   -7.4944    3.9921 H   0  0  0  0  0  0  0  0  0  0  0  0
    0.7193   -8.3822    4.7124 H   0  0  0  0  0  0  0  0  0  0  0  0
    0.9121   -6.1912    5.3613 H   0  0  0  0  0  0  0  0  0  0  0  0
   -0.4801   -6.0020    4.3487 H   0  0  0  0  0  0  0  0  0  0  0  0
   -1.3386   -9.7236    2.1657 H   0  0  0  0  0  0  0  0  0  0  0  0
   -0.4771  -10.0277    3.6683 H   0  0  0  0  0  0  0  0  0  0  0  0
    0.4137   -9.9274    2.1371 H   0  0  0  0  0  0  0  0  0  0  0  0
   -0.9623   -7.7494    0.9548 H   0  0  0  0  0  0  0  0  0  0  0  0
   -0.5687   -6.3055    1.8508 H   0  0  0  0  0  0  0  0  0  0  0  0
    1.3794   -8.2539    0.6129 H   0  0  0  0  0  0  0  0  0  0  0  0
    1.1585   -6.5727    0.1957 H   0  0  0  0  0  0  0  0  0  0  0  0
  1  2  1  0
  1 23  1  0
  1 24  1  0
  1 25  1  0
  2  3  1  0
  2  4  1  0
  2 26  1  0
  3 27  1  0
  3 28  1  0
  3 29  1  0
  4  9  2  0
  4  5  1  0
  5  6  2  0
  5 30  1  0
  6  7  1  0
  6 31  1  0
  7 17  1  0
  7  8  2  0
  8 22  1  0
  8  9  1  0
  9 10  1  0
 10 11  1  0
 11 22  1  0
 11 12  2  0
 12 13  1  0
 12 32  1  0
 13 14  2  0
 13 33  1  0
 14 15  1  0
 14 34  1  0
 15 22  1  0
 15 16  1  0
 15 35  1  1
 16 17  1  0
 16 18  1  0
 16 36  1  1
 17 37  1  0
 17 38  1  0
 18 19  1  0
 18 20  1  0
 19 39  1  0
 19 40  1  0
 19 41  1  0
 20 21  1  0
 20 42  1  0
 20 43  1  0
 22 21  1  6
 21 44  1  0
 21 45  1  0
M  END
>  <i_m_ct_stereo_status>  (212) 
1

>  <s_m_source_file>  (212) 
/var/tmp/pbs.5076255.sched01/tmprh8juyh8/78tr4t3sa2.sdf

>  <i_m_source_file_index>  (212) 
13

>  <i_lp_mmshare_version>  (212) 
48012

>  <i_f3d_flags>  (212) 
0

>  <s_epik_input>  (212) 
W0NAXTEyM2M0YzVbY0hdW2NIXWMoW0NIXShbQ0gzXSlbQ0gzXSljNE9DMT1bQ0hdW0NIXT1bQ0hdW0NAQEhdMltDQEBIXShbQ0gyXTUpTihbQ0gzXSlbQ0gyXVtDSDJdMw==

>  <s_epik_cmdline>  (212) 
J2VwaWtfcHl0aG9uJywgJy1waHQnLCAnMi4wJywgJy1waCcsICc3LjAnLCAnLXRuJywgJzgnLCAnLW1hJywgJzIwMCcsICctaW1hZScsICc8aW5maWxlLm1hZT4nLCAnLW9tYWUnLCAnPG91dGZpbGUubWFlPic=

>  <r_epik_Ionization_Penalty>  (212) 
0.566556

>  <r_epik_Ionization_Penalty_Charging>  (212) 
0

>  <r_epik_Ionization_Penalty_Neutral>  (212) 
0.566556

>  <r_epik_State_Penalty>  (212) 
0.578155

>  <r_epik_Charging_Adjusted_Penalty>  (212) 
0.578155

>  <i_epik_Tot_Q>  (212) 
0

>  <i_epik_Tot_abs_Q>  (212) 
0

>  <s_lp_Force_Field>  (212) 
OPLS3e

>  <r_lp_Energy>  (212) 
59.4602

>  <b_lp_Chiralities_Consistent>  (212) 
1

>  <s_lp_Variant>  (212) 
71:0-2

>  <s_i_glide_gridfile>  (212) 
pfpi4k_grid

>  <i_i_glide_lignum>  (212) 
13

>  <i_i_glide_rotatable_bonds>  (212) 
1

>  <r_i_docking_score>  (212) 
-2.54675

>  <r_i_glide_ligand_efficiency>  (212) 
-0.115761

>  <r_i_glide_ligand_efficiency_sa>  (212) 
-0.324367

>  <r_i_glide_ligand_efficiency_ln>  (212) 
-0.622518

>  <r_i_glide_gscore>  (212) 
-2.54675

>  <r_i_glide_lipo>  (212) 
-0.181133

>  <r_i_glide_hbond>  (212) 
0

>  <r_i_glide_metal>  (212) 
-0

>  <r_i_glide_rewards>  (212) 
-1.40862

>  <r_i_glide_evdw>  (212) 
-20.3881

>  <r_i_glide_ecoul>  (212) 
0.416067

>  <r_i_glide_erotb>  (212) 
0

>  <r_i_glide_esite>  (212) 
0

>  <r_i_glide_emodel>  (212) 
-23.7116

>  <r_i_glide_energy>  (212) 
-19.972

>  <r_i_glide_einternal>  (212) 
0.0267231

>  <r_i_glide_intrahb_reward>  (212) 
-0

>  <i_i_glide_confnum>  (212) 
1

>  <i_i_glide_posenum>  (212) 
31

>  <r_i_glide_eff_state_penalty>  (212) 
0

>  <ligand_id>  (212) 
71

>  <original_smiles>  (212) 
CC(C)c1ccc2c3c1OC1=CC=CC4C(C2)N(C)CCC134

>  <smiles>  (212) 
[H]C1=C([H])C2([H])C34C(=C1[H])Oc1c(C([H])(C([H])([H])[H])C([H])([H])[H])c([H])c([H])c(c13)C([H])([H])C2([H])N(C([H])([H])[H])C([H])([H])C4([H])[H]

$$$$
71:1:2
     RDKit          3D

 45 49  0  0  1  0  0  0  0  0999 V2000
    3.6185   -3.2042   -1.2230 C   0  0  0  0  0  0  0  0  0  0  0  0
    4.1678   -3.0079    0.1993 C   0  0  0  0  0  0  0  0  0  0  0  0
    5.6257   -3.4826    0.3163 C   0  0  0  0  0  0  0  0  0  0  0  0
    3.2741   -3.6535    1.2517 C   0  0  0  0  0  0  0  0  0  0  0  0
    2.6185   -2.8403    2.2230 C   0  0  0  0  0  0  0  0  0  0  0  0
    1.8492   -3.4054    3.2761 C   0  0  0  0  0  0  0  0  0  0  0  0
    1.6523   -4.8000    3.3365 C   0  0  0  0  0  0  0  0  0  0  0  0
    2.2550   -5.5196    2.2976 C   0  0  0  0  0  0  0  0  0  0  0  0
    3.1043   -5.0576    1.3064 C   0  0  0  0  0  0  0  0  0  0  0  0
    3.7427   -6.0746    0.6320 O   0  0  0  0  0  0  0  0  0  0  0  0
    3.4060   -7.2399    1.2862 C   0  0  0  0  0  0  0  0  0  0  0  0
    4.1385   -8.3640    1.3875 C   0  0  0  0  0  0  0  0  0  0  0  0
    3.7304   -9.3728    2.3734 C   0  0  0  0  0  0  0  0  0  0  0  0
    2.9111   -9.0411    3.4039 C   0  0  0  0  0  0  0  0  0  0  0  0
    2.3999   -7.6048    3.5537 C   0  0  2  0  0  0  0  0  0  0  0  0
    1.1228   -7.2180    4.3546 C   0  0  1  0  0  0  0  0  0  0  0  0
    1.0252   -5.6527    4.4636 C   0  0  0  0  0  0  0  0  0  0  0  0
   -0.1329   -7.7073    3.7589 N   0  0  0  0  0  0  0  0  0  0  0  0
   -0.3468   -9.1348    3.9585 C   0  0  0  0  0  0  0  0  0  0  0  0
   -0.3229   -7.3111    2.3612 C   0  0  0  0  0  0  0  0  0  0  0  0
    0.9309   -7.5244    1.5037 C   0  0  0  0  0  0  0  0  0  0  0  0
    2.2167   -6.9905    2.1788 C   0  0  1  0  0  0  0  0  0  0  0  0
    2.5979   -2.8296   -1.3036 H   0  0  0  0  0  0  0  0  0  0  0  0
    3.6137   -4.2529   -1.5074 H   0  0  0  0  0  0  0  0  0  0  0  0
    4.2210   -2.6681   -1.9564 H   0  0  0  0  0  0  0  0  0  0  0  0
    4.1677   -1.9344    0.3889 H   0  0  0  0  0  0  0  0  0  0  0  0
    6.0124   -3.3077    1.3221 H   0  0  0  0  0  0  0  0  0  0  0  0
    6.2722   -2.9514   -0.3821 H   0  0  0  0  0  0  0  0  0  0  0  0
    5.7256   -4.5480    0.1045 H   0  0  0  0  0  0  0  0  0  0  0  0
    2.7473   -1.7690    2.1904 H   0  0  0  0  0  0  0  0  0  0  0  0
    1.4398   -2.7670    4.0456 H   0  0  0  0  0  0  0  0  0  0  0  0
    5.0675   -8.4631    0.8448 H   0  0  0  0  0  0  0  0  0  0  0  0
    4.0924  -10.3892    2.2696 H   0  0  0  0  0  0  0  0  0  0  0  0
    2.6102   -9.7727    4.1392 H   0  0  0  0  0  0  0  0  0  0  0  0
    3.2354   -7.1118    4.0538 H   0  0  0  0  0  0  0  0  0  0  0  0
    1.1799   -7.6244    5.3634 H   0  0  0  0  0  0  0  0  0  0  0  0
    1.5481   -5.3604    5.3737 H   0  0  0  0  0  0  0  0  0  0  0  0
   -0.0080   -5.3303    4.6115 H   0  0  0  0  0  0  0  0  0  0  0  0
   -1.3614   -9.4088    3.6661 H   0  0  0  0  0  0  0  0  0  0  0  0
   -0.2346   -9.3923    5.0135 H   0  0  0  0  0  0  0  0  0  0  0  0
    0.3469   -9.7417    3.3776 H   0  0  0  0  0  0  0  0  0  0  0  0
   -1.1792   -7.8324    1.9317 H   0  0  0  0  0  0  0  0  0  0  0  0
   -0.5738   -6.2547    2.3383 H   0  0  0  0  0  0  0  0  0  0  0  0
    1.0377   -8.5928    1.3156 H   0  0  0  0  0  0  0  0  0  0  0  0
    0.7898   -7.0594    0.5280 H   0  0  0  0  0  0  0  0  0  0  0  0
  1  2  1  0
  1 23  1  0
  1 24  1  0
  1 25  1  0
  2  3  1  0
  2  4  1  0
  2 26  1  0
  3 27  1  0
  3 28  1  0
  3 29  1  0
  4  9  2  0
  4  5  1  0
  5  6  2  0
  5 30  1  0
  6  7  1  0
  6 31  1  0
  7 17  1  0
  7  8  2  0
  8 22  1  0
  8  9  1  0
  9 10  1  0
 10 11  1  0
 11 22  1  0
 11 12  2  0
 12 13  1  0
 12 32  1  0
 13 14  2  0
 13 33  1  0
 14 15  1  0
 14 34  1  0
 15 22  1  0
 15 16  1  0
 15 35  1  1
 16 17  1  0
 16 18  1  0
 16 36  1  1
 17 37  1  0
 17 38  1  0
 18 19  1  0
 18 20  1  0
 19 39  1  0
 19 40  1  0
 19 41  1  0
 20 21  1  0
 20 42  1  0
 20 43  1  0
 22 21  1  6
 21 44  1  0
 21 45  1  0
M  END
>  <i_m_ct_stereo_status>  (213) 
1

>  <s_m_source_file>  (213) 
/var/tmp/pbs.5076255.sched01/tmprh8juyh8/78tr4t3sa2.sdf

>  <i_m_source_file_index>  (213) 
13

>  <i_lp_mmshare_version>  (213) 
48012

>  <i_f3d_flags>  (213) 
0

>  <s_epik_input>  (213) 
W0NAXTEyM2M0YzVbY0hdW2NIXWMoW0NIXShbQ0gzXSlbQ0gzXSljNE9DMT1bQ0hdW0NIXT1bQ0hdW0NAQEhdMltDQEBIXShbQ0gyXTUpTihbQ0gzXSlbQ0gyXVtDSDJdMw==

>  <s_epik_cmdline>  (213) 
J2VwaWtfcHl0aG9uJywgJy1waHQnLCAnMi4wJywgJy1waCcsICc3LjAnLCAnLXRuJywgJzgnLCAnLW1hJywgJzIwMCcsICctaW1hZScsICc8aW5maWxlLm1hZT4nLCAnLW9tYWUnLCAnPG91dGZpbGUubWFlPic=

>  <r_epik_Ionization_Penalty>  (213) 
0.566556

>  <r_epik_Ionization_Penalty_Charging>  (213) 
0

>  <r_epik_Ionization_Penalty_Neutral>  (213) 
0.566556

>  <r_epik_State_Penalty>  (213) 
0.578155

>  <r_epik_Charging_Adjusted_Penalty>  (213) 
0.578155

>  <i_epik_Tot_Q>  (213) 
0

>  <i_epik_Tot_abs_Q>  (213) 
0

>  <s_lp_Force_Field>  (213) 
OPLS3e

>  <r_lp_Energy>  (213) 
59.4602

>  <b_lp_Chiralities_Consistent>  (213) 
1

>  <s_lp_Variant>  (213) 
71:0-2

>  <s_i_glide_gridfile>  (213) 
pfpi4k_grid

>  <i_i_glide_lignum>  (213) 
13

>  <i_i_glide_rotatable_bonds>  (213) 
1

>  <r_i_docking_score>  (213) 
-2.53026

>  <r_i_glide_ligand_efficiency>  (213) 
-0.115012

>  <r_i_glide_ligand_efficiency_sa>  (213) 
-0.322268

>  <r_i_glide_ligand_efficiency_ln>  (213) 
-0.618489

>  <r_i_glide_gscore>  (213) 
-2.53026

>  <r_i_glide_lipo>  (213) 
-0.161409

>  <r_i_glide_hbond>  (213) 
0

>  <r_i_glide_metal>  (213) 
-0

>  <r_i_glide_rewards>  (213) 
-1.40862

>  <r_i_glide_evdw>  (213) 
-19.697

>  <r_i_glide_ecoul>  (213) 
0.164083

>  <r_i_glide_erotb>  (213) 
0

>  <r_i_glide_esite>  (213) 
0

>  <r_i_glide_emodel>  (213) 
-23.2381

>  <r_i_glide_energy>  (213) 
-19.5329

>  <r_i_glide_einternal>  (213) 
0.0417598

>  <r_i_glide_intrahb_reward>  (213) 
-0

>  <i_i_glide_confnum>  (213) 
2

>  <i_i_glide_posenum>  (213) 
28

>  <r_i_glide_eff_state_penalty>  (213) 
0

>  <ligand_id>  (213) 
71

>  <original_smiles>  (213) 
CC(C)c1ccc2c3c1OC1=CC=CC4C(C2)N(C)CCC134

>  <smiles>  (213) 
[H]C1=C([H])C2([H])C34C(=C1[H])Oc1c(C([H])(C([H])([H])[H])C([H])([H])[H])c([H])c([H])c(c13)C([H])([H])C2([H])N(C([H])([H])[H])C([H])([H])C4([H])[H]

$$$$
74:0:0
     RDKit          3D

 14 15  0  0  1  0  0  0  0  0999 V2000
    3.5915   -3.0270   -3.6991 C   0  0  0  0  0  0  0  0  0  0  0  0
    2.5640   -2.9146   -2.5348 C   0  0  0  0  0  0  0  0  0  0  0  0
    3.3606   -3.3933   -1.3866 C   0  0  0  0  0  0  0  0  0  0  0  0
    3.1414   -3.7979   -0.1487 N   0  0  0  0  0  0  0  0  0  0  0  0
    4.4398   -4.1127    0.2808 N   0  0  0  0  0  0  0  0  0  0  0  0
    5.3372   -3.8898   -0.6577 N   0  0  0  0  0  0  0  0  0  0  0  0
    4.6217   -3.4438   -1.7084 N   0  0  0  0  0  0  0  0  0  0  0  0
    4.9960   -3.0516   -3.0271 C   0  0  0  0  0  0  0  0  0  0  0  0
    3.4689   -2.2624   -4.4631 H   0  0  0  0  0  0  0  0  0  0  0  0
    3.4453   -3.9930   -4.1818 H   0  0  0  0  0  0  0  0  0  0  0  0
    2.2835   -1.8763   -2.3525 H   0  0  0  0  0  0  0  0  0  0  0  0
    1.6684   -3.5208   -2.6784 H   0  0  0  0  0  0  0  0  0  0  0  0
    5.6955   -3.7582   -3.4636 H   0  0  0  0  0  0  0  0  0  0  0  0
    5.4273   -2.0532   -2.9795 H   0  0  0  0  0  0  0  0  0  0  0  0
  1  8  1  0
  1  2  1  0
  1  9  1  0
  1 10  1  0
  2  3  1  0
  2 11  1  0
  2 12  1  0
  3  7  1  0
  3  4  2  0
  4  5  1  0
  5  6  2  0
  6  7  1  0
  7  8  1  0
  8 13  1  0
  8 14  1  0
M  END
>  <i_m_ct_stereo_status>  (214) 
1

>  <s_m_source_file>  (214) 
/var/tmp/pbs.5076255.sched01/tmprh8juyh8/78tr4t3sa2.sdf

>  <i_m_source_file_index>  (214) 
16

>  <i_lp_mmshare_version>  (214) 
48012

>  <i_f3d_flags>  (214) 
0

>  <s_epik_input>  (214) 
W0NIMl0xW0NIMl1bQ0gyXW4oYzEyKW5ubjI=

>  <s_epik_cmdline>  (214) 
J2VwaWtfcHl0aG9uJywgJy1waHQnLCAnMi4wJywgJy1waCcsICc3LjAnLCAnLXRuJywgJzgnLCAnLW1hJywgJzIwMCcsICctaW1hZScsICc8aW5maWxlLm1hZT4nLCAnLW9tYWUnLCAnPG91dGZpbGUubWFlPic=

>  <r_lp_tautomer_probability>  (214) 
1

>  <r_epik_Ionization_Penalty>  (214) 
4.10561e-10

>  <r_epik_Ionization_Penalty_Charging>  (214) 
0

>  <r_epik_Ionization_Penalty_Neutral>  (214) 
4.10561e-10

>  <r_epik_State_Penalty>  (214) 
-0

>  <r_epik_Charging_Adjusted_Penalty>  (214) 
0

>  <i_epik_Tot_Q>  (214) 
0

>  <i_epik_Tot_abs_Q>  (214) 
0

>  <s_lp_Force_Field>  (214) 
OPLS3e

>  <r_lp_Energy>  (214) 
8.67577

>  <b_lp_Chiralities_Consistent>  (214) 
1

>  <s_lp_Variant>  (214) 
74:0-1

>  <s_i_glide_gridfile>  (214) 
pfpi4k_grid

>  <i_i_glide_lignum>  (214) 
16

>  <i_i_glide_rotatable_bonds>  (214) 
0

>  <r_i_docking_score>  (214) 
-3.55839

>  <r_i_glide_ligand_efficiency>  (214) 
-0.444799

>  <r_i_glide_ligand_efficiency_sa>  (214) 
-0.889599

>  <r_i_glide_ligand_efficiency_ln>  (214) 
-1.15553

>  <r_i_glide_gscore>  (214) 
-3.55839

>  <r_i_glide_lipo>  (214) 
-0.36824

>  <r_i_glide_hbond>  (214) 
0

>  <r_i_glide_metal>  (214) 
-0

>  <r_i_glide_rewards>  (214) 
-2.34856

>  <r_i_glide_evdw>  (214) 
-14.8392

>  <r_i_glide_ecoul>  (214) 
-0.597801

>  <r_i_glide_erotb>  (214) 
0

>  <r_i_glide_esite>  (214) 
-0.00996011

>  <r_i_glide_emodel>  (214) 
-18.7798

>  <r_i_glide_energy>  (214) 
-15.437

>  <r_i_glide_einternal>  (214) 
0

>  <r_i_glide_intrahb_reward>  (214) 
-0

>  <i_i_glide_confnum>  (214) 
2

>  <i_i_glide_posenum>  (214) 
40

>  <r_i_glide_eff_state_penalty>  (214) 
0

>  <ligand_id>  (214) 
74

>  <original_smiles>  (214) 
C1Cc2nnnn2C1

>  <smiles>  (214) 
[H]C1([H])c2nnnn2C([H])([H])C1([H])[H]

$$$$
74:0:1
     RDKit          3D

 14 15  0  0  1  0  0  0  0  0999 V2000
    3.5154   -1.9447   -3.8994 C   0  0  0  0  0  0  0  0  0  0  0  0
    2.6039   -2.9982   -3.2055 C   0  0  0  0  0  0  0  0  0  0  0  0
    3.0408   -2.8840   -1.7968 C   0  0  0  0  0  0  0  0  0  0  0  0
    2.9152   -3.5709   -0.6771 N   0  0  0  0  0  0  0  0  0  0  0  0
    3.6661   -2.7971    0.2201 N   0  0  0  0  0  0  0  0  0  0  0  0
    4.1795   -1.7321   -0.3625 N   0  0  0  0  0  0  0  0  0  0  0  0
    3.7598   -1.8114   -1.6387 N   0  0  0  0  0  0  0  0  0  0  0  0
    3.9863   -0.9805   -2.7768 C   0  0  0  0  0  0  0  0  0  0  0  0
    3.0377   -1.4330   -4.7328 H   0  0  0  0  0  0  0  0  0  0  0  0
    4.3993   -2.4585   -4.2832 H   0  0  0  0  0  0  0  0  0  0  0  0
    1.5544   -2.7102   -3.2633 H   0  0  0  0  0  0  0  0  0  0  0  0
    2.7370   -4.0065   -3.5940 H   0  0  0  0  0  0  0  0  0  0  0  0
    5.0265   -0.6799   -2.8364 H   0  0  0  0  0  0  0  0  0  0  0  0
    3.3401   -0.1082   -2.7226 H   0  0  0  0  0  0  0  0  0  0  0  0
  1  8  1  0
  1  2  1  0
  1  9  1  0
  1 10  1  0
  2  3  1  0
  2 11  1  0
  2 12  1  0
  3  7  1  0
  3  4  2  0
  4  5  1  0
  5  6  2  0
  6  7  1  0
  7  8  1  0
  8 13  1  0
  8 14  1  0
M  END
>  <i_m_ct_stereo_status>  (215) 
1

>  <s_m_source_file>  (215) 
/var/tmp/pbs.5076255.sched01/tmprh8juyh8/78tr4t3sa2.sdf

>  <i_m_source_file_index>  (215) 
16

>  <i_lp_mmshare_version>  (215) 
48012

>  <i_f3d_flags>  (215) 
0

>  <s_epik_input>  (215) 
W0NIMl0xW0NIMl1bQ0gyXW4oYzEyKW5ubjI=

>  <s_epik_cmdline>  (215) 
J2VwaWtfcHl0aG9uJywgJy1waHQnLCAnMi4wJywgJy1waCcsICc3LjAnLCAnLXRuJywgJzgnLCAnLW1hJywgJzIwMCcsICctaW1hZScsICc8aW5maWxlLm1hZT4nLCAnLW9tYWUnLCAnPG91dGZpbGUubWFlPic=

>  <r_lp_tautomer_probability>  (215) 
1

>  <r_epik_Ionization_Penalty>  (215) 
4.10561e-10

>  <r_epik_Ionization_Penalty_Charging>  (215) 
0

>  <r_epik_Ionization_Penalty_Neutral>  (215) 
4.10561e-10

>  <r_epik_State_Penalty>  (215) 
-0

>  <r_epik_Charging_Adjusted_Penalty>  (215) 
0

>  <i_epik_Tot_Q>  (215) 
0

>  <i_epik_Tot_abs_Q>  (215) 
0

>  <s_lp_Force_Field>  (215) 
OPLS3e

>  <r_lp_Energy>  (215) 
8.67577

>  <b_lp_Chiralities_Consistent>  (215) 
1

>  <s_lp_Variant>  (215) 
74:0-1

>  <s_i_glide_gridfile>  (215) 
pfpi4k_grid

>  <i_i_glide_lignum>  (215) 
16

>  <i_i_glide_rotatable_bonds>  (215) 
0

>  <r_i_docking_score>  (215) 
-3.40411

>  <r_i_glide_ligand_efficiency>  (215) 
-0.425513

>  <r_i_glide_ligand_efficiency_sa>  (215) 
-0.851027

>  <r_i_glide_ligand_efficiency_ln>  (215) 
-1.10543

>  <r_i_glide_gscore>  (215) 
-3.40411

>  <r_i_glide_lipo>  (215) 
-0.249764

>  <r_i_glide_hbond>  (215) 
0

>  <r_i_glide_metal>  (215) 
-0

>  <r_i_glide_rewards>  (215) 
-2.25

>  <r_i_glide_evdw>  (215) 
-15.8249

>  <r_i_glide_ecoul>  (215) 
0.108237

>  <r_i_glide_erotb>  (215) 
0

>  <r_i_glide_esite>  (215) 
-0.129332

>  <r_i_glide_emodel>  (215) 
-18.8725

>  <r_i_glide_energy>  (215) 
-15.7167

>  <r_i_glide_einternal>  (215) 
0

>  <r_i_glide_intrahb_reward>  (215) 
-0

>  <i_i_glide_confnum>  (215) 
1

>  <i_i_glide_posenum>  (215) 
1

>  <r_i_glide_eff_state_penalty>  (215) 
0

>  <ligand_id>  (215) 
74

>  <original_smiles>  (215) 
C1Cc2nnnn2C1

>  <smiles>  (215) 
[H]C1([H])c2nnnn2C([H])([H])C1([H])[H]

$$$$
74:0:2
     RDKit          3D

 14 15  0  0  1  0  0  0  0  0999 V2000
    3.3452   -1.5365   -3.4003 C   0  0  0  0  0  0  0  0  0  0  0  0
    4.4442   -1.3955   -2.3070 C   0  0  0  0  0  0  0  0  0  0  0  0
    3.9256   -2.2863   -1.2496 C   0  0  0  0  0  0  0  0  0  0  0  0
    4.1687   -2.5197    0.0269 N   0  0  0  0  0  0  0  0  0  0  0  0
    3.2241   -3.5133    0.3206 N   0  0  0  0  0  0  0  0  0  0  0  0
    2.4985   -3.8286   -0.7313 N   0  0  0  0  0  0  0  0  0  0  0  0
    2.9674   -3.0340   -1.7164 N   0  0  0  0  0  0  0  0  0  0  0  0
    2.5995   -2.8726   -3.0869 C   0  0  0  0  0  0  0  0  0  0  0  0
    3.7134   -1.4546   -4.4219 H   0  0  0  0  0  0  0  0  0  0  0  0
    2.6284   -0.7254   -3.2559 H   0  0  0  0  0  0  0  0  0  0  0  0
    5.3966   -1.7959   -2.6542 H   0  0  0  0  0  0  0  0  0  0  0  0
    4.5744   -0.3747   -1.9398 H   0  0  0  0  0  0  0  0  0  0  0  0
    1.5202   -2.8179   -3.1942 H   0  0  0  0  0  0  0  0  0  0  0  0
    3.0009   -3.7075   -3.6598 H   0  0  0  0  0  0  0  0  0  0  0  0
  1  8  1  0
  1  2  1  0
  1  9  1  0
  1 10  1  0
  2  3  1  0
  2 11  1  0
  2 12  1  0
  3  7  1  0
  3  4  2  0
  4  5  1  0
  5  6  2  0
  6  7  1  0
  7  8  1  0
  8 13  1  0
  8 14  1  0
M  END
>  <i_m_ct_stereo_status>  (216) 
1

>  <s_m_source_file>  (216) 
/var/tmp/pbs.5076255.sched01/tmprh8juyh8/78tr4t3sa2.sdf

>  <i_m_source_file_index>  (216) 
16

>  <i_lp_mmshare_version>  (216) 
48012

>  <i_f3d_flags>  (216) 
0

>  <s_epik_input>  (216) 
W0NIMl0xW0NIMl1bQ0gyXW4oYzEyKW5ubjI=

>  <s_epik_cmdline>  (216) 
J2VwaWtfcHl0aG9uJywgJy1waHQnLCAnMi4wJywgJy1waCcsICc3LjAnLCAnLXRuJywgJzgnLCAnLW1hJywgJzIwMCcsICctaW1hZScsICc8aW5maWxlLm1hZT4nLCAnLW9tYWUnLCAnPG91dGZpbGUubWFlPic=

>  <r_lp_tautomer_probability>  (216) 
1

>  <r_epik_Ionization_Penalty>  (216) 
4.10561e-10

>  <r_epik_Ionization_Penalty_Charging>  (216) 
0

>  <r_epik_Ionization_Penalty_Neutral>  (216) 
4.10561e-10

>  <r_epik_State_Penalty>  (216) 
-0

>  <r_epik_Charging_Adjusted_Penalty>  (216) 
0

>  <i_epik_Tot_Q>  (216) 
0

>  <i_epik_Tot_abs_Q>  (216) 
0

>  <s_lp_Force_Field>  (216) 
OPLS3e

>  <r_lp_Energy>  (216) 
8.67577

>  <b_lp_Chiralities_Consistent>  (216) 
1

>  <s_lp_Variant>  (216) 
74:0-1

>  <s_i_glide_gridfile>  (216) 
pfpi4k_grid

>  <i_i_glide_lignum>  (216) 
16

>  <i_i_glide_rotatable_bonds>  (216) 
0

>  <r_i_docking_score>  (216) 
-3.34828

>  <r_i_glide_ligand_efficiency>  (216) 
-0.418535

>  <r_i_glide_ligand_efficiency_sa>  (216) 
-0.837071

>  <r_i_glide_ligand_efficiency_ln>  (216) 
-1.0873

>  <r_i_glide_gscore>  (216) 
-3.34828

>  <r_i_glide_lipo>  (216) 
-0.242361

>  <r_i_glide_hbond>  (216) 
0

>  <r_i_glide_metal>  (216) 
-0

>  <r_i_glide_rewards>  (216) 
-2.25489

>  <r_i_glide_evdw>  (216) 
-15.4158

>  <r_i_glide_ecoul>  (216) 
0.0996049

>  <r_i_glide_erotb>  (216) 
0

>  <r_i_glide_esite>  (216) 
-0.0951838

>  <r_i_glide_emodel>  (216) 
-18.5815

>  <r_i_glide_energy>  (216) 
-15.3162

>  <r_i_glide_einternal>  (216) 
0

>  <r_i_glide_intrahb_reward>  (216) 
-0

>  <i_i_glide_confnum>  (216) 
2

>  <i_i_glide_posenum>  (216) 
4

>  <r_i_glide_eff_state_penalty>  (216) 
0

>  <ligand_id>  (216) 
74

>  <original_smiles>  (216) 
C1Cc2nnnn2C1

>  <smiles>  (216) 
[H]C1([H])c2nnnn2C([H])([H])C1([H])[H]

$$$$
75:0:0
     RDKit          3D

 57 62  0  0  1  0  0  0  0  0999 V2000
    4.8577   -7.5055    3.7559 C   0  0  0  0  0  0  0  0  0  0  0  0
    4.9013   -6.8188    2.3606 C   0  0  2  0  0  0  0  0  0  0  0  0
    6.0888   -7.4784    1.5127 C   0  0  0  0  0  0  0  0  0  0  0  0
    7.4856   -6.7528    1.4213 C   0  0  0  0  0  0  0  0  0  0  0  0
    7.2109   -5.2587    1.5152 C   0  0  2  0  0  0  0  0  0  0  0  0
    8.0932   -4.1491    0.9006 C   0  0  0  0  0  0  0  0  0  0  0  0
    7.3841   -2.7760    0.5599 C   0  0  0  0  0  0  0  0  0  0  0  0
    6.2310   -2.6013   -0.5133 C   0  0  1  0  0  0  0  0  0  0  0  0
    6.5619   -3.3244   -1.6706 O   0  0  0  0  0  0  0  0  0  0  0  0
    4.6559   -2.6850   -0.1949 C   0  0  2  0  0  0  0  0  0  0  0  0
    3.9178   -2.0314   -1.3860 C   0  0  0  0  0  0  0  0  0  0  0  0
    4.3132   -1.8913    1.1355 C   0  0  0  0  0  0  0  0  0  0  0  0
    4.0720   -2.9343    2.2845 C   0  0  2  0  0  0  0  0  0  0  0  0
    4.9804   -2.9536    3.5255 C   0  0  0  0  0  0  0  0  0  0  0  0
    5.4213   -4.4276    3.6879 C   0  0  2  0  0  0  0  0  0  0  0  0
    6.5757   -5.0962    2.9135 C   0  0  2  0  0  0  0  0  0  0  0  0
    5.1096   -5.2756    2.5137 C   0  0  1  0  0  0  0  0  0  0  0  0
    4.4767   -4.2052    1.5977 C   0  0  1  0  0  0  0  0  0  0  0  0
    4.1002   -4.1457    0.1305 C   0  0  2  0  0  0  0  0  0  0  0  0
    4.6581   -5.1256   -0.7271 O   0  0  0  0  0  0  0  0  0  0  0  0
    2.5629   -4.2706    0.0389 C   0  0  0  0  0  0  0  0  0  0  0  0
    1.9331   -5.5985    0.5011 C   0  0  0  0  0  0  0  0  0  0  0  0
    2.3636   -6.2245    1.8444 C   0  0  0  0  0  0  0  0  0  0  0  0
    3.5533   -7.1634    1.7063 C   0  0  0  0  0  0  0  0  0  0  0  0
    3.4098   -8.2437    1.1176 O   0  0  0  0  0  0  0  0  0  0  0  0
    5.8045   -7.4296    4.2942 H   0  0  0  0  0  0  0  0  0  0  0  0
    4.6483   -8.5732    3.6660 H   0  0  0  0  0  0  0  0  0  0  0  0
    4.0799   -7.0891    4.4049 H   0  0  0  0  0  0  0  0  0  0  0  0
    6.2735   -8.4826    1.8699 H   0  0  0  0  0  0  0  0  0  0  0  0
    5.7359   -7.5875    0.4849 H   0  0  0  0  0  0  0  0  0  0  0  0
    8.1600   -7.0799    2.2134 H   0  0  0  0  0  0  0  0  0  0  0  0
    7.9864   -7.0018    0.4815 H   0  0  0  0  0  0  0  0  0  0  0  0
    6.5047   -5.2895    0.7067 H   0  0  0  0  0  0  0  0  0  0  0  0
    8.9323   -3.9592    1.5693 H   0  0  0  0  0  0  0  0  0  0  0  0
    8.5319   -4.5398   -0.0213 H   0  0  0  0  0  0  0  0  0  0  0  0
    7.0618   -2.2922    1.4788 H   0  0  0  0  0  0  0  0  0  0  0  0
    8.2020   -2.1487    0.2032 H   0  0  0  0  0  0  0  0  0  0  0  0
    6.3638   -1.5674   -0.8258 H   0  0  0  0  0  0  0  0  0  0  0  0
    6.2168   -4.1992   -1.5375 H   0  0  0  0  0  0  0  0  0  0  0  0
    2.8541   -1.8996   -1.1928 H   0  0  0  0  0  0  0  0  0  0  0  0
    4.0154   -2.6266   -2.2950 H   0  0  0  0  0  0  0  0  0  0  0  0
    4.3112   -1.0359   -1.5990 H   0  0  0  0  0  0  0  0  0  0  0  0
    5.0948   -1.1828    1.3973 H   0  0  0  0  0  0  0  0  0  0  0  0
    3.4006   -1.3116    1.0108 H   0  0  0  0  0  0  0  0  0  0  0  0
    3.0192   -3.0033    2.5675 H   0  0  0  0  0  0  0  0  0  0  0  0
    5.8255   -2.2852    3.4481 H   0  0  0  0  0  0  0  0  0  0  0  0
    4.4145   -2.6945    4.4153 H   0  0  0  0  0  0  0  0  0  0  0  0
    5.1826   -4.8565    4.6487 H   0  0  0  0  0  0  0  0  0  0  0  0
    7.0535   -5.7293    3.6394 H   0  0  0  0  0  0  0  0  0  0  0  0
    5.4398   -3.8119    1.4381 H   0  0  0  0  0  0  0  0  0  0  0  0
    4.0401   -5.3373   -1.4181 H   0  0  0  0  0  0  0  0  0  0  0  0
    2.0921   -3.4555    0.5886 H   0  0  0  0  0  0  0  0  0  0  0  0
    2.2521   -4.1231   -0.9964 H   0  0  0  0  0  0  0  0  0  0  0  0
    0.8573   -5.5082    0.5384 H   0  0  0  0  0  0  0  0  0  0  0  0
    2.1049   -6.2668   -0.3225 H   0  0  0  0  0  0  0  0  0  0  0  0
    2.5392   -5.4564    2.5993 H   0  0  0  0  0  0  0  0  0  0  0  0
    1.5514   -6.8291    2.2444 H   0  0  0  0  0  0  0  0  0  0  0  0
  2  1  1  1
  1 26  1  0
  1 27  1  0
  1 28  1  0
 17  2  1  1
  2 24  1  0
  2  3  1  0
  3  4  1  0
  3 29  1  0
  3 30  1  0
  4  5  1  0
  4 31  1  0
  4 32  1  0
  5 16  1  0
  5  6  1  0
  5 33  1  6
  6  7  1  0
  6 34  1  0
  6 35  1  0
  7  8  1  0
  7 36  1  0
  7 37  1  0
  8  9  1  0
  8 10  1  0
  8 38  1  6
  9 39  1  0
 10 19  1  0
 10 11  1  6
 10 12  1  0
 11 40  1  0
 11 41  1  0
 11 42  1  0
 12 13  1  0
 12 43  1  0
 12 44  1  0
 13 18  1  0
 13 14  1  0
 13 45  1  1
 14 15  1  0
 14 46  1  0
 14 47  1  0
 15 17  1  0
 15 16  1  0
 15 48  1  1
 16 17  1  0
 16 49  1  1
 17 18  1  0
 18 19  1  0
 18 50  1  6
 19 20  1  6
 19 21  1  0
 20 51  1  0
 21 22  1  0
 21 52  1  0
 21 53  1  0
 22 23  1  0
 22 54  1  0
 22 55  1  0
 23 24  1  0
 23 56  1  0
 23 57  1  0
 24 25  2  0
M  END
>  <i_m_ct_stereo_status>  (217) 
1

>  <s_m_source_file>  (217) 
/var/tmp/pbs.5076255.sched01/tmprh8juyh8/78tr4t3sa2.sdf

>  <i_m_source_file_index>  (217) 
17

>  <i_lp_mmshare_version>  (217) 
48012

>  <i_f3d_flags>  (217) 
0

>  <s_epik_input>  (217) 
W0NIM11bQ0BAXTEoW0NAQF0yMzQpW0NIMl1bQ0gyXVtDQEhdNVtDSF0zW0NASF0yW0NIMl1bQ0BASF02W0NIXTRbQ0BdKFtPSF0pKFtDQEBdKFtDSDNdKShbQ0gyXTYpW0NASF0oW09IXSlbQ0gyXVtDSDJdNSlbQ0gyXVtDSDJdW0NIMl1DMT1P

>  <s_epik_cmdline>  (217) 
J2VwaWtfcHl0aG9uJywgJy1waHQnLCAnMi4wJywgJy1waCcsICc3LjAnLCAnLXRuJywgJzgnLCAnLW1hJywgJzIwMCcsICctaW1hZScsICc8aW5maWxlLm1hZT4nLCAnLW9tYWUnLCAnPG91dGZpbGUubWFlPic=

>  <r_lp_tautomer_probability>  (217) 
1

>  <r_epik_Ionization_Penalty>  (217) 
5.07988e-06

>  <r_epik_Ionization_Penalty_Charging>  (217) 
0

>  <r_epik_Ionization_Penalty_Neutral>  (217) 
5.07988e-06

>  <r_epik_State_Penalty>  (217) 
-0

>  <r_epik_Charging_Adjusted_Penalty>  (217) 
0

>  <i_epik_Tot_Q>  (217) 
0

>  <i_epik_Tot_abs_Q>  (217) 
0

>  <s_lp_Force_Field>  (217) 
OPLS3e

>  <r_lp_Energy>  (217) 
204.567

>  <b_lp_Chiralities_Consistent>  (217) 
1

>  <s_lp_Variant>  (217) 
75:0-1

>  <s_i_glide_gridfile>  (217) 
pfpi4k_grid

>  <i_i_glide_lignum>  (217) 
17

>  <i_i_glide_rotatable_bonds>  (217) 
2

>  <r_i_docking_score>  (217) 
-3.65645

>  <r_i_glide_ligand_efficiency>  (217) 
-0.146258

>  <r_i_glide_ligand_efficiency_sa>  (217) 
-0.427661

>  <r_i_glide_ligand_efficiency_ln>  (217) 
-0.866689

>  <r_i_glide_gscore>  (217) 
-3.65645

>  <r_i_glide_lipo>  (217) 
-0.57298

>  <r_i_glide_hbond>  (217) 
0

>  <r_i_glide_metal>  (217) 
-0

>  <r_i_glide_rewards>  (217) 
-1.62947

>  <r_i_glide_evdw>  (217) 
-18.7379

>  <r_i_glide_ecoul>  (217) 
-3.44736

>  <r_i_glide_erotb>  (217) 
0

>  <r_i_glide_esite>  (217) 
0

>  <r_i_glide_emodel>  (217) 
-32.8258

>  <r_i_glide_energy>  (217) 
-22.1852

>  <r_i_glide_einternal>  (217) 
0.822346

>  <r_i_glide_intrahb_reward>  (217) 
-0.5

>  <i_i_glide_confnum>  (217) 
1

>  <i_i_glide_posenum>  (217) 
7

>  <r_i_glide_eff_state_penalty>  (217) 
0

>  <ligand_id>  (217) 
75

>  <original_smiles>  (217) 
CC12CCC3CCC(O)C4(C)CC5CC6C3C61C5C4(O)CCCC2=O

>  <smiles>  (217) 
[H]OC1([H])C([H])([H])C([H])([H])C2([H])C([H])([H])C([H])([H])C3(C([H])([H])[H])C(=O)C([H])([H])C([H])([H])C([H])([H])C4(O[H])C5([H])C([H])(C([H])([H])C6([H])C2([H])C653)C([H])([H])C14C([H])([H])[H]

$$$$
75:0:1
     RDKit          3D

 57 62  0  0  1  0  0  0  0  0999 V2000
   -0.8151    2.9915    8.6672 C   0  0  0  0  0  0  0  0  0  0  0  0
   -0.4520    2.0773    7.4628 C   0  0  2  0  0  0  0  0  0  0  0  0
   -0.0453    0.6363    8.0352 C   0  0  0  0  0  0  0  0  0  0  0  0
    1.4748    0.2699    8.2002 C   0  0  0  0  0  0  0  0  0  0  0  0
    2.2418    1.0227    7.1200 C   0  0  2  0  0  0  0  0  0  0  0  0
    3.5752    0.5613    6.4934 C   0  0  0  0  0  0  0  0  0  0  0  0
    3.8826    1.0823    5.0344 C   0  0  0  0  0  0  0  0  0  0  0  0
    3.0056    0.7008    3.7602 C   0  0  1  0  0  0  0  0  0  0  0  0
    2.7303   -0.6893    3.7746 O   0  0  0  0  0  0  0  0  0  0  0  0
    1.7739    1.5765    3.1902 C   0  0  2  0  0  0  0  0  0  0  0  0
    1.5238    1.1323    1.7345 C   0  0  0  0  0  0  0  0  0  0  0  0
    2.1461    3.1231    3.2070 C   0  0  0  0  0  0  0  0  0  0  0  0
    1.3975    3.7997    4.4053 C   0  0  2  0  0  0  0  0  0  0  0  0
    2.1854    4.4589    5.5632 C   0  0  0  0  0  0  0  0  0  0  0  0
    1.5975    3.8689    6.8551 C   0  0  2  0  0  0  0  0  0  0  0  0
    2.0182    2.5212    7.4549 C   0  0  2  0  0  0  0  0  0  0  0  0
    0.7117    2.6948    6.6318 C   0  0  1  0  0  0  0  0  0  0  0  0
    0.8262    2.6005    5.0929 C   0  0  1  0  0  0  0  0  0  0  0  0
    0.4278    1.5482    4.0561 C   0  0  2  0  0  0  0  0  0  0  0  0
    0.1084    0.2618    4.5337 O   0  0  0  0  0  0  0  0  0  0  0  0
   -0.8405    2.0525    3.3102 C   0  0  0  0  0  0  0  0  0  0  0  0
   -2.1426    2.2002    4.1349 C   0  0  0  0  0  0  0  0  0  0  0  0
   -2.0661    2.9161    5.5049 C   0  0  0  0  0  0  0  0  0  0  0  0
   -1.7599    1.9359    6.6370 C   0  0  0  0  0  0  0  0  0  0  0  0
   -2.5776    1.0483    6.8971 O   0  0  0  0  0  0  0  0  0  0  0  0
    0.0017    3.0799    9.3860 H   0  0  0  0  0  0  0  0  0  0  0  0
   -1.6668    2.6029    9.2268 H   0  0  0  0  0  0  0  0  0  0  0  0
   -1.0805    4.0055    8.3549 H   0  0  0  0  0  0  0  0  0  0  0  0
   -0.5178    0.4856    8.9978 H   0  0  0  0  0  0  0  0  0  0  0  0
   -0.4556   -0.1354    7.3814 H   0  0  0  0  0  0  0  0  0  0  0  0
    1.8392    0.5255    9.1972 H   0  0  0  0  0  0  0  0  0  0  0  0
    1.6102   -0.8095    8.0889 H   0  0  0  0  0  0  0  0  0  0  0  0
    1.6209    0.6236    6.3310 H   0  0  0  0  0  0  0  0  0  0  0  0
    4.4005    0.8299    7.1547 H   0  0  0  0  0  0  0  0  0  0  0  0
    3.5592   -0.5302    6.4583 H   0  0  0  0  0  0  0  0  0  0  0  0
    4.0555    2.1574    5.0608 H   0  0  0  0  0  0  0  0  0  0  0  0
    4.8698    0.6718    4.8195 H   0  0  0  0  0  0  0  0  0  0  0  0
    3.7407    0.7812    2.9583 H   0  0  0  0  0  0  0  0  0  0  0  0
    2.4094   -0.9351    2.9238 H   0  0  0  0  0  0  0  0  0  0  0  0
    0.8125    1.7912    1.2377 H   0  0  0  0  0  0  0  0  0  0  0  0
    1.1348    0.1164    1.6653 H   0  0  0  0  0  0  0  0  0  0  0  0
    2.4467    1.1725    1.1549 H   0  0  0  0  0  0  0  0  0  0  0  0
    3.2211    3.2884    3.2661 H   0  0  0  0  0  0  0  0  0  0  0  0
    1.8155    3.6153    2.2919 H   0  0  0  0  0  0  0  0  0  0  0  0
    0.5788    4.4448    4.0698 H   0  0  0  0  0  0  0  0  0  0  0  0
    3.2637    4.2902    5.5068 H   0  0  0  0  0  0  0  0  0  0  0  0
    2.0083    5.5306    5.5755 H   0  0  0  0  0  0  0  0  0  0  0  0
    1.2084    4.6105    7.5453 H   0  0  0  0  0  0  0  0  0  0  0  0
    2.0539    2.6818    8.5282 H   0  0  0  0  0  0  0  0  0  0  0  0
    1.7925    2.2099    5.2212 H   0  0  0  0  0  0  0  0  0  0  0  0
    0.0116   -0.3077    3.7866 H   0  0  0  0  0  0  0  0  0  0  0  0
   -0.6358    3.0060    2.8274 H   0  0  0  0  0  0  0  0  0  0  0  0
   -1.0677    1.3779    2.4842 H   0  0  0  0  0  0  0  0  0  0  0  0
   -2.8732    2.7218    3.5180 H   0  0  0  0  0  0  0  0  0  0  0  0
   -2.5529    1.2011    4.2841 H   0  0  0  0  0  0  0  0  0  0  0  0
   -1.3644    3.7452    5.4880 H   0  0  0  0  0  0  0  0  0  0  0  0
   -3.0351    3.3557    5.7341 H   0  0  0  0  0  0  0  0  0  0  0  0
  2  1  1  1
  1 26  1  0
  1 27  1  0
  1 28  1  0
 17  2  1  1
  2 24  1  0
  2  3  1  0
  3  4  1  0
  3 29  1  0
  3 30  1  0
  4  5  1  0
  4 31  1  0
  4 32  1  0
  5 16  1  0
  5  6  1  0
  5 33  1  6
  6  7  1  0
  6 34  1  0
  6 35  1  0
  7  8  1  0
  7 36  1  0
  7 37  1  0
  8  9  1  0
  8 10  1  0
  8 38  1  6
  9 39  1  0
 10 19  1  0
 10 11  1  6
 10 12  1  0
 11 40  1  0
 11 41  1  0
 11 42  1  0
 12 13  1  0
 12 43  1  0
 12 44  1  0
 13 18  1  0
 13 14  1  0
 13 45  1  6
 14 15  1  0
 14 46  1  0
 14 47  1  0
 15 17  1  0
 15 16  1  0
 15 48  1  1
 16 17  1  0
 16 49  1  1
 17 18  1  0
 18 19  1  0
 18 50  1  1
 19 20  1  1
 19 21  1  0
 20 51  1  0
 21 22  1  0
 21 52  1  0
 21 53  1  0
 22 23  1  0
 22 54  1  0
 22 55  1  0
 23 24  1  0
 23 56  1  0
 23 57  1  0
 24 25  2  0
M  END
>  <i_m_ct_stereo_status>  (218) 
1

>  <s_m_source_file>  (218) 
/var/tmp/pbs.5076255.sched01/tmprh8juyh8/78tr4t3sa2.sdf

>  <i_m_source_file_index>  (218) 
17

>  <i_lp_mmshare_version>  (218) 
48012

>  <i_f3d_flags>  (218) 
0

>  <s_epik_input>  (218) 
W0NIM11bQ0BAXTEoW0NAQF0yMzQpW0NIMl1bQ0gyXVtDQEhdNVtDSF0zW0NASF0yW0NIMl1bQ0BASF02W0NIXTRbQ0BdKFtPSF0pKFtDQEBdKFtDSDNdKShbQ0gyXTYpW0NASF0oW09IXSlbQ0gyXVtDSDJdNSlbQ0gyXVtDSDJdW0NIMl1DMT1P

>  <s_epik_cmdline>  (218) 
J2VwaWtfcHl0aG9uJywgJy1waHQnLCAnMi4wJywgJy1waCcsICc3LjAnLCAnLXRuJywgJzgnLCAnLW1hJywgJzIwMCcsICctaW1hZScsICc8aW5maWxlLm1hZT4nLCAnLW9tYWUnLCAnPG91dGZpbGUubWFlPic=

>  <r_lp_tautomer_probability>  (218) 
1

>  <r_epik_Ionization_Penalty>  (218) 
5.07988e-06

>  <r_epik_Ionization_Penalty_Charging>  (218) 
0

>  <r_epik_Ionization_Penalty_Neutral>  (218) 
5.07988e-06

>  <r_epik_State_Penalty>  (218) 
-0

>  <r_epik_Charging_Adjusted_Penalty>  (218) 
0

>  <i_epik_Tot_Q>  (218) 
0

>  <i_epik_Tot_abs_Q>  (218) 
0

>  <s_lp_Force_Field>  (218) 
OPLS3e

>  <r_lp_Energy>  (218) 
204.567

>  <b_lp_Chiralities_Consistent>  (218) 
1

>  <s_lp_Variant>  (218) 
75:0-1

>  <s_i_glide_gridfile>  (218) 
pfpi4k_grid

>  <i_i_glide_lignum>  (218) 
17

>  <i_i_glide_rotatable_bonds>  (218) 
2

>  <r_i_docking_score>  (218) 
-3.07351

>  <r_i_glide_ligand_efficiency>  (218) 
-0.12294

>  <r_i_glide_ligand_efficiency_sa>  (218) 
-0.35948

>  <r_i_glide_ligand_efficiency_ln>  (218) 
-0.728514

>  <r_i_glide_gscore>  (218) 
-3.07351

>  <r_i_glide_lipo>  (218) 
-0.0227769

>  <r_i_glide_hbond>  (218) 
-0.16

>  <r_i_glide_metal>  (218) 
-0

>  <r_i_glide_rewards>  (218) 
-1.06031

>  <r_i_glide_evdw>  (218) 
-20.7294

>  <r_i_glide_ecoul>  (218) 
-5.18061

>  <r_i_glide_erotb>  (218) 
0

>  <r_i_glide_esite>  (218) 
-0.0168568

>  <r_i_glide_emodel>  (218) 
-31.1394

>  <r_i_glide_energy>  (218) 
-25.91

>  <r_i_glide_einternal>  (218) 
0.367349

>  <r_i_glide_intrahb_reward>  (218) 
-0

>  <i_i_glide_confnum>  (218) 
1

>  <i_i_glide_posenum>  (218) 
11

>  <r_i_glide_eff_state_penalty>  (218) 
0

>  <ligand_id>  (218) 
75

>  <original_smiles>  (218) 
CC12CCC3CCC(O)C4(C)CC5CC6C3C61C5C4(O)CCCC2=O

>  <smiles>  (218) 
[H]OC1([H])C([H])([H])C([H])([H])C2([H])C([H])([H])C([H])([H])C3(C([H])([H])[H])C(=O)C([H])([H])C([H])([H])C([H])([H])C4(O[H])C5([H])C([H])(C([H])([H])C6([H])C2([H])C653)C([H])([H])C14C([H])([H])[H]

$$$$
75:0:2
     RDKit          3D

 57 62  0  0  1  0  0  0  0  0999 V2000
   -1.0703    3.2447    8.6020 C   0  0  0  0  0  0  0  0  0  0  0  0
   -0.5838    2.3043    7.4719 C   0  0  2  0  0  0  0  0  0  0  0  0
   -0.1177    0.9196    8.1177 C   0  0  0  0  0  0  0  0  0  0  0  0
    1.4077    0.6760    8.4003 C   0  0  0  0  0  0  0  0  0  0  0  0
    2.1870    1.4500    7.3358 C   0  0  2  0  0  0  0  0  0  0  0  0
    3.5738    1.0457    6.7927 C   0  0  0  0  0  0  0  0  0  0  0  0
    3.9176    1.5193    5.3247 C   0  0  0  0  0  0  0  0  0  0  0  0
    3.1386    1.0145    4.0309 C   0  0  1  0  0  0  0  0  0  0  0  0
    2.9337   -0.3732    4.1353 O   0  0  0  0  0  0  0  0  0  0  0  0
    1.8829    1.7749    3.3539 C   0  0  2  0  0  0  0  0  0  0  0  0
    1.7469    1.2485    1.9118 C   0  0  0  0  0  0  0  0  0  0  0  0
    2.1481    3.3372    3.3146 C   0  0  0  0  0  0  0  0  0  0  0  0
    1.2915    4.0107    4.4419 C   0  0  2  0  0  0  0  0  0  0  0  0
    1.9902    4.7654    5.6005 C   0  0  0  0  0  0  0  0  0  0  0  0
    1.3950    4.2059    6.8897 C   0  0  2  0  0  0  0  0  0  0  0  0
    1.8411    2.9179    7.5777 C   0  0  2  0  0  0  0  0  0  0  0  0
    0.5634    2.9693    6.6603 C   0  0  1  0  0  0  0  0  0  0  0  0
    0.7588    2.8074    5.1543 C   0  0  0  0  0  0  0  0  0  0  0  0
    0.5014    1.6743    4.1474 C   0  0  2  0  0  0  0  0  0  0  0  0
    0.2987    0.3871    4.6707 O   0  0  0  0  0  0  0  0  0  0  0  0
   -0.7561    2.0595    3.3213 C   0  0  0  0  0  0  0  0  0  0  0  0
   -2.1030    2.1617    4.0731 C   0  0  0  0  0  0  0  0  0  0  0  0
   -2.1554    2.9405    5.4057 C   0  0  0  0  0  0  0  0  0  0  0  0
   -1.8339    2.0202    6.5900 C   0  0  0  0  0  0  0  0  0  0  0  0
   -2.5962    1.0925    6.8791 O   0  0  0  0  0  0  0  0  0  0  0  0
   -0.3004    3.4226    9.3580 H   0  0  0  0  0  0  0  0  0  0  0  0
   -1.9215    2.8274    9.1389 H   0  0  0  0  0  0  0  0  0  0  0  0
   -1.3895    4.2229    8.2291 H   0  0  0  0  0  0  0  0  0  0  0  0
   -0.6118    0.8041    9.0741 H   0  0  0  0  0  0  0  0  0  0  0  0
   -0.4557    0.0833    7.5018 H   0  0  0  0  0  0  0  0  0  0  0  0
    1.6724    1.0169    9.4029 H   0  0  0  0  0  0  0  0  0  0  0  0
    1.6368   -0.3926    8.3570 H   0  0  0  0  0  0  0  0  0  0  0  0
    1.6414    0.9745    6.5468 H   0  0  0  0  0  0  0  0  0  0  0  0
    4.3506    1.3977    7.4726 H   0  0  0  0  0  0  0  0  0  0  0  0
    3.6293   -0.0430    6.8108 H   0  0  0  0  0  0  0  0  0  0  0  0
    4.0228    2.6006    5.3015 H   0  0  0  0  0  0  0  0  0  0  0  0
    4.9361    1.1577    5.1757 H   0  0  0  0  0  0  0  0  0  0  0  0
    3.9063    1.0836    3.2585 H   0  0  0  0  0  0  0  0  0  0  0  0
    2.1999   -0.4922    4.7347 H   0  0  0  0  0  0  0  0  0  0  0  0
    1.0291    1.8273    1.3258 H   0  0  0  0  0  0  0  0  0  0  0  0
    1.4384    0.2035    1.8785 H   0  0  0  0  0  0  0  0  0  0  0  0
    2.6961    1.3248    1.3820 H   0  0  0  0  0  0  0  0  0  0  0  0
    3.2068    3.5707    3.4226 H   0  0  0  0  0  0  0  0  0  0  0  0
    1.8390    3.7567    2.3567 H   0  0  0  0  0  0  0  0  0  0  0  0
    0.4563    4.5839    4.0318 H   0  0  0  0  0  0  0  0  0  0  0  0
    3.0779    4.6848    5.5869 H   0  0  0  0  0  0  0  0  0  0  0  0
    1.7281    5.8280    5.5615 H   0  0  0  0  0  0  0  0  0  0  0  0
    0.9460    4.9235    7.5244 H   0  0  0  0  0  0  0  0  0  0  0  0
    1.7812    3.1459    8.6214 H   0  0  0  0  0  0  0  0  0  0  0  0
    1.7402    2.4964    5.3428 H   0  0  0  0  0  0  0  0  0  0  0  0
    0.1761   -0.1961    3.9212 H   0  0  0  0  0  0  0  0  0  0  0  0
   -0.5845    3.0006    2.8048 H   0  0  0  0  0  0  0  0  0  0  0  0
   -0.8903    1.3374    2.5183 H   0  0  0  0  0  0  0  0  0  0  0  0
   -2.8309    2.5970    3.3929 H   0  0  0  0  0  0  0  0  0  0  0  0
   -2.4458    1.1429    4.2532 H   0  0  0  0  0  0  0  0  0  0  0  0
   -1.5128    3.8201    5.3842 H   0  0  0  0  0  0  0  0  0  0  0  0
   -3.1677    3.3156    5.5650 H   0  0  0  0  0  0  0  0  0  0  0  0
  2  1  1  1
  1 26  1  0
  1 27  1  0
  1 28  1  0
  2 17  1  0
  2 24  1  0
  2  3  1  0
  3  4  1  0
  3 29  1  0
  3 30  1  0
  4  5  1  0
  4 31  1  0
  4 32  1  0
  5 16  1  0
  5  6  1  0
  5 33  1  6
  6  7  1  0
  6 34  1  0
  6 35  1  0
  7  8  1  0
  7 36  1  0
  7 37  1  0
  8  9  1  0
  8 10  1  0
  8 38  1  6
  9 39  1  0
 10 19  1  0
 10 11  1  6
 10 12  1  0
 11 40  1  0
 11 41  1  0
 11 42  1  0
 12 13  1  0
 12 43  1  0
 12 44  1  0
 13 18  1  0
 13 14  1  0
 13 45  1  6
 14 15  1  0
 14 46  1  0
 14 47  1  0
 15 17  1  0
 15 16  1  0
 15 48  1  1
 16 17  1  0
 16 49  1  1
 17 18  1  6
 18 19  1  0
 18 50  1  0
 19 20  1  1
 19 21  1  0
 20 51  1  0
 21 22  1  0
 21 52  1  0
 21 53  1  0
 22 23  1  0
 22 54  1  0
 22 55  1  0
 23 24  1  0
 23 56  1  0
 23 57  1  0
 24 25  2  0
M  END
>  <i_m_ct_stereo_status>  (219) 
1

>  <s_m_source_file>  (219) 
/var/tmp/pbs.5076255.sched01/tmprh8juyh8/78tr4t3sa2.sdf

>  <i_m_source_file_index>  (219) 
17

>  <i_lp_mmshare_version>  (219) 
48012

>  <i_f3d_flags>  (219) 
0

>  <s_epik_input>  (219) 
W0NIM11bQ0BAXTEoW0NAQF0yMzQpW0NIMl1bQ0gyXVtDQEhdNVtDSF0zW0NASF0yW0NIMl1bQ0BASF02W0NIXTRbQ0BdKFtPSF0pKFtDQEBdKFtDSDNdKShbQ0gyXTYpW0NASF0oW09IXSlbQ0gyXVtDSDJdNSlbQ0gyXVtDSDJdW0NIMl1DMT1P

>  <s_epik_cmdline>  (219) 
J2VwaWtfcHl0aG9uJywgJy1waHQnLCAnMi4wJywgJy1waCcsICc3LjAnLCAnLXRuJywgJzgnLCAnLW1hJywgJzIwMCcsICctaW1hZScsICc8aW5maWxlLm1hZT4nLCAnLW9tYWUnLCAnPG91dGZpbGUubWFlPic=

>  <r_lp_tautomer_probability>  (219) 
1

>  <r_epik_Ionization_Penalty>  (219) 
5.07988e-06

>  <r_epik_Ionization_Penalty_Charging>  (219) 
0

>  <r_epik_Ionization_Penalty_Neutral>  (219) 
5.07988e-06

>  <r_epik_State_Penalty>  (219) 
-0

>  <r_epik_Charging_Adjusted_Penalty>  (219) 
0

>  <i_epik_Tot_Q>  (219) 
0

>  <i_epik_Tot_abs_Q>  (219) 
0

>  <s_lp_Force_Field>  (219) 
OPLS3e

>  <r_lp_Energy>  (219) 
204.567

>  <b_lp_Chiralities_Consistent>  (219) 
1

>  <s_lp_Variant>  (219) 
75:0-1

>  <s_i_glide_gridfile>  (219) 
pfpi4k_grid

>  <i_i_glide_lignum>  (219) 
17

>  <i_i_glide_rotatable_bonds>  (219) 
2

>  <r_i_docking_score>  (219) 
-2.93091

>  <r_i_glide_ligand_efficiency>  (219) 
-0.117236

>  <r_i_glide_ligand_efficiency_sa>  (219) 
-0.342801

>  <r_i_glide_ligand_efficiency_ln>  (219) 
-0.694713

>  <r_i_glide_gscore>  (219) 
-2.93091

>  <r_i_glide_lipo>  (219) 
-0.00791828

>  <r_i_glide_hbond>  (219) 
-0.16

>  <r_i_glide_metal>  (219) 
-0

>  <r_i_glide_rewards>  (219) 
-1.06031

>  <r_i_glide_evdw>  (219) 
-20.7987

>  <r_i_glide_ecoul>  (219) 
-4.33539

>  <r_i_glide_erotb>  (219) 
0

>  <r_i_glide_esite>  (219) 
-0.0124373

>  <r_i_glide_emodel>  (219) 
-30.2359

>  <r_i_glide_energy>  (219) 
-25.134

>  <r_i_glide_einternal>  (219) 
0.0258798

>  <r_i_glide_intrahb_reward>  (219) 
-0

>  <i_i_glide_confnum>  (219) 
1

>  <i_i_glide_posenum>  (219) 
2

>  <r_i_glide_eff_state_penalty>  (219) 
0

>  <ligand_id>  (219) 
75

>  <original_smiles>  (219) 
CC12CCC3CCC(O)C4(C)CC5CC6C3C61C5C4(O)CCCC2=O

>  <smiles>  (219) 
[H]OC1([H])C([H])([H])C([H])([H])C2([H])C([H])([H])C([H])([H])C3(C([H])([H])[H])C(=O)C([H])([H])C([H])([H])C([H])([H])C4(O[H])C5([H])C([H])(C([H])([H])C6([H])C2([H])C653)C([H])([H])C14C([H])([H])[H]

$$$$
76:0:0
     RDKit          3D

 33 37  0  0  1  0  0  0  0  0999 V2000
   -0.3733   -7.6750    2.9910 C   0  0  0  0  0  0  0  0  0  0  0  0
    0.2159   -6.9980    4.0719 C   0  0  0  0  0  0  0  0  0  0  0  0
    1.1790   -6.0188    3.8202 C   0  0  0  0  0  0  0  0  0  0  0  0
    1.4057   -5.6019    2.4823 C   0  0  0  0  0  0  0  0  0  0  0  0
    2.3228   -4.4824    2.1411 C   0  0  0  0  0  0  0  0  0  0  0  0
    3.3149   -4.7191    1.2804 N   0  0  0  0  0  0  0  0  0  0  0  0
    3.9658   -3.5162    1.1262 C   0  0  0  0  0  0  0  0  0  0  0  0
    5.0927   -3.1512    0.3466 C   0  0  0  0  0  0  0  0  0  0  0  0
    5.5732   -1.8230    0.3473 C   0  0  0  0  0  0  0  0  0  0  0  0
    4.9430   -0.8393    1.1299 C   0  0  0  0  0  0  0  0  0  0  0  0
    3.8362   -1.1854    1.9189 C   0  0  0  0  0  0  0  0  0  0  0  0
    3.3536   -2.5056    1.9126 C   0  0  0  0  0  0  0  0  0  0  0  0
    2.3112   -3.1582    2.5570 N   0  0  0  0  0  0  0  0  0  0  0  0
    1.3736   -2.6057    3.4914 C   0  0  0  0  0  0  0  0  0  0  0  0
    1.0713   -3.3556    4.5924 N   0  0  0  0  0  0  0  0  0  0  0  0
    0.2076   -2.8589    5.5060 N   0  0  0  0  0  0  0  0  0  0  0  0
   -0.2895   -1.5856    5.3574 C   0  0  0  0  0  0  0  0  0  0  0  0
   -1.1221   -0.8376    6.0807 N   0  0  0  0  0  0  0  0  0  0  0  0
   -1.1944    0.3868    5.4128 N   0  0  0  0  0  0  0  0  0  0  0  0
   -0.4330    0.3487    4.3254 C   0  0  0  0  0  0  0  0  0  0  0  0
    0.1332   -0.8910    4.2379 N   0  0  0  0  0  0  0  0  0  0  0  0
    0.9389   -1.3044    3.2597 N   0  0  0  0  0  0  0  0  0  0  0  0
    0.8300   -6.2520    1.4390 N   0  0  0  0  0  0  0  0  0  0  0  0
    0.0140   -7.3056    1.6937 C   0  0  0  0  0  0  0  0  0  0  0  0
   -1.0644   -8.4843    3.1633 H   0  0  0  0  0  0  0  0  0  0  0  0
   -0.0529   -7.2339    5.1016 H   0  0  0  0  0  0  0  0  0  0  0  0
    1.6984   -5.5646    4.6522 H   0  0  0  0  0  0  0  0  0  0  0  0
    5.5784   -3.9024   -0.2602 H   0  0  0  0  0  0  0  0  0  0  0  0
    6.4350   -1.5519   -0.2580 H   0  0  0  0  0  0  0  0  0  0  0  0
    5.3003    0.1881    1.1261 H   0  0  0  0  0  0  0  0  0  0  0  0
    3.3446   -0.4360    2.5184 H   0  0  0  0  0  0  0  0  0  0  0  0
   -0.2813    1.1471    3.6110 H   0  0  0  0  0  0  0  0  0  0  0  0
   -0.3725   -7.8380    0.8377 H   0  0  0  0  0  0  0  0  0  0  0  0
  1 24  2  0
  1  2  1  0
  1 25  1  0
  2  3  2  0
  2 26  1  0
  3  4  1  0
  3 27  1  0
  4  5  1  0
  4 23  2  0
  5 13  1  0
  5  6  2  0
  6  7  1  0
  7 12  2  0
  7  8  1  0
  8  9  2  0
  8 28  1  0
  9 10  1  0
  9 29  1  0
 10 11  2  0
 10 30  1  0
 11 12  1  0
 11 31  1  0
 12 13  1  0
 13 14  1  0
 14 22  2  0
 14 15  1  0
 15 16  2  0
 16 17  1  0
 17 21  1  0
 17 18  2  0
 18 19  1  0
 19 20  2  0
 20 21  1  0
 20 32  1  0
 21 22  1  0
 23 24  1  0
 24 33  1  0
M  END
>  <i_m_ct_stereo_status>  (220) 
1

>  <s_m_source_file>  (220) 
/var/tmp/pbs.5076255.sched01/tmprh8juyh8/78tr4t3sa2.sdf

>  <i_m_source_file_index>  (220) 
18

>  <i_lp_mmshare_version>  (220) 
48012

>  <i_f3d_flags>  (220) 
0

>  <s_epik_input>  (220) 
bjFbY0hdW2NIXVtjSF1bY0hdYzEtYyhuMiluKGMoYzIzKVtjSF1bY0hdW2NIXVtjSF0zKS1jKG5uNClubihjNDUpW2NIXW5uNQ==

>  <s_epik_cmdline>  (220) 
J2VwaWtfcHl0aG9uJywgJy1waHQnLCAnMi4wJywgJy1waCcsICc3LjAnLCAnLXRuJywgJzgnLCAnLW1hJywgJzIwMCcsICctaW1hZScsICc8aW5maWxlLm1hZT4nLCAnLW9tYWUnLCAnPG91dGZpbGUubWFlPic=

>  <r_lp_tautomer_probability>  (220) 
1

>  <r_epik_Ionization_Penalty>  (220) 
0.00206513

>  <r_epik_Ionization_Penalty_Charging>  (220) 
0

>  <r_epik_Ionization_Penalty_Neutral>  (220) 
0.00206513

>  <r_epik_State_Penalty>  (220) 
-0

>  <r_epik_Charging_Adjusted_Penalty>  (220) 
0

>  <i_epik_Tot_Q>  (220) 
0

>  <i_epik_Tot_abs_Q>  (220) 
0

>  <s_lp_Force_Field>  (220) 
OPLS3e

>  <r_lp_Energy>  (220) 
45.3819

>  <b_lp_Chiralities_Consistent>  (220) 
1

>  <s_lp_Variant>  (220) 
76:0-1

>  <s_i_glide_gridfile>  (220) 
pfpi4k_grid

>  <i_i_glide_lignum>  (220) 
18

>  <i_i_glide_rotatable_bonds>  (220) 
2

>  <r_i_docking_score>  (220) 
-3.73143

>  <r_i_glide_ligand_efficiency>  (220) 
-0.155476

>  <r_i_glide_ligand_efficiency_sa>  (220) 
-0.448471

>  <r_i_glide_ligand_efficiency_ln>  (220) 
-0.893102

>  <r_i_glide_gscore>  (220) 
-3.73143

>  <r_i_glide_lipo>  (220) 
-0.219098

>  <r_i_glide_hbond>  (220) 
-0.16

>  <r_i_glide_metal>  (220) 
-0

>  <r_i_glide_rewards>  (220) 
-1.32326

>  <r_i_glide_evdw>  (220) 
-24.4563

>  <r_i_glide_ecoul>  (220) 
-6.65417

>  <r_i_glide_erotb>  (220) 
0.374222

>  <r_i_glide_esite>  (220) 
-0.182352

>  <r_i_glide_emodel>  (220) 
-35.7784

>  <r_i_glide_energy>  (220) 
-31.1105

>  <r_i_glide_einternal>  (220) 
3.71852

>  <r_i_glide_intrahb_reward>  (220) 
-0

>  <i_i_glide_confnum>  (220) 
1

>  <i_i_glide_posenum>  (220) 
14

>  <r_i_glide_eff_state_penalty>  (220) 
0

>  <ligand_id>  (220) 
76

>  <original_smiles>  (220) 
c1ccc(-c2nc3ccccc3n2-c2nnc3nncn3n2)nc1

>  <smiles>  (220) 
[H]c1nc(-c2nc3c([H])c([H])c([H])c([H])c3n2-c2nnc3nnc([H])n3n2)c([H])c([H])c1[H]

$$$$
76:0:1
     RDKit          3D

 33 37  0  0  1  0  0  0  0  0999 V2000
   -0.1429   -7.2108    2.5663 C   0  0  0  0  0  0  0  0  0  0  0  0
    0.3961   -6.4621    3.6273 C   0  0  0  0  0  0  0  0  0  0  0  0
    1.4726   -5.6026    3.3662 C   0  0  0  0  0  0  0  0  0  0  0  0
    1.8872   -5.3916    2.0303 C   0  0  0  0  0  0  0  0  0  0  0  0
    2.9579   -4.4248    1.6652 C   0  0  0  0  0  0  0  0  0  0  0  0
    4.0352   -4.8782    1.0132 N   0  0  0  0  0  0  0  0  0  0  0  0
    4.8180   -3.7622    0.7921 C   0  0  0  0  0  0  0  0  0  0  0  0
    6.0703   -3.6267    0.1469 C   0  0  0  0  0  0  0  0  0  0  0  0
    6.6852   -2.3586    0.0302 C   0  0  0  0  0  0  0  0  0  0  0  0
    6.0580   -1.2135    0.5636 C   0  0  0  0  0  0  0  0  0  0  0  0
    4.8181   -1.3403    1.2187 C   0  0  0  0  0  0  0  0  0  0  0  0
    4.2073   -2.6048    1.3207 C   0  0  0  0  0  0  0  0  0  0  0  0
    3.0173   -3.0657    1.8882 N   0  0  0  0  0  0  0  0  0  0  0  0
    2.0352   -2.2968    2.5899 C   0  0  0  0  0  0  0  0  0  0  0  0
    1.5438   -2.7938    3.7585 N   0  0  0  0  0  0  0  0  0  0  0  0
    0.6470   -2.1131    4.4634 N   0  0  0  0  0  0  0  0  0  0  0  0
    0.2667   -0.8730    4.0320 C   0  0  0  0  0  0  0  0  0  0  0  0
   -0.5884    0.0490    4.4896 N   0  0  0  0  0  0  0  0  0  0  0  0
   -0.5028    1.1371    3.6210 N   0  0  0  0  0  0  0  0  0  0  0  0
    0.3739    0.8491    2.6520 C   0  0  0  0  0  0  0  0  0  0  0  0
    0.8537   -0.4070    2.8589 N   0  0  0  0  0  0  0  0  0  0  0  0
    1.7251   -1.0634    2.0814 N   0  0  0  0  0  0  0  0  0  0  0  0
    1.3590   -6.1223    1.0096 N   0  0  0  0  0  0  0  0  0  0  0  0
    0.4178   -7.0538    1.2864 C   0  0  0  0  0  0  0  0  0  0  0  0
   -0.9395   -7.9198    2.7395 H   0  0  0  0  0  0  0  0  0  0  0  0
    0.0025   -6.5426    4.6291 H   0  0  0  0  0  0  0  0  0  0  0  0
    1.9468   -5.1059    4.1968 H   0  0  0  0  0  0  0  0  0  0  0  0
    6.5531   -4.4994   -0.2629 H   0  0  0  0  0  0  0  0  0  0  0  0
    7.6460   -2.2676   -0.4629 H   0  0  0  0  0  0  0  0  0  0  0  0
    6.5137   -0.2325    0.4833 H   0  0  0  0  0  0  0  0  0  0  0  0
    4.3292   -0.4776    1.6256 H   0  0  0  0  0  0  0  0  0  0  0  0
    0.6591    1.4823    1.8276 H   0  0  0  0  0  0  0  0  0  0  0  0
    0.0614   -7.6378    0.4591 H   0  0  0  0  0  0  0  0  0  0  0  0
  1 24  2  0
  1  2  1  0
  1 25  1  0
  2  3  2  0
  2 26  1  0
  3  4  1  0
  3 27  1  0
  4  5  1  0
  4 23  2  0
  5 13  1  0
  5  6  2  0
  6  7  1  0
  7 12  2  0
  7  8  1  0
  8  9  2  0
  8 28  1  0
  9 10  1  0
  9 29  1  0
 10 11  2  0
 10 30  1  0
 11 12  1  0
 11 31  1  0
 12 13  1  0
 13 14  1  0
 14 22  2  0
 14 15  1  0
 15 16  2  0
 16 17  1  0
 17 21  1  0
 17 18  2  0
 18 19  1  0
 19 20  2  0
 20 21  1  0
 20 32  1  0
 21 22  1  0
 23 24  1  0
 24 33  1  0
M  END
>  <i_m_ct_stereo_status>  (221) 
1

>  <s_m_source_file>  (221) 
/var/tmp/pbs.5076255.sched01/tmprh8juyh8/78tr4t3sa2.sdf

>  <i_m_source_file_index>  (221) 
18

>  <i_lp_mmshare_version>  (221) 
48012

>  <i_f3d_flags>  (221) 
0

>  <s_epik_input>  (221) 
bjFbY0hdW2NIXVtjSF1bY0hdYzEtYyhuMiluKGMoYzIzKVtjSF1bY0hdW2NIXVtjSF0zKS1jKG5uNClubihjNDUpW2NIXW5uNQ==

>  <s_epik_cmdline>  (221) 
J2VwaWtfcHl0aG9uJywgJy1waHQnLCAnMi4wJywgJy1waCcsICc3LjAnLCAnLXRuJywgJzgnLCAnLW1hJywgJzIwMCcsICctaW1hZScsICc8aW5maWxlLm1hZT4nLCAnLW9tYWUnLCAnPG91dGZpbGUubWFlPic=

>  <r_lp_tautomer_probability>  (221) 
1

>  <r_epik_Ionization_Penalty>  (221) 
0.00206513

>  <r_epik_Ionization_Penalty_Charging>  (221) 
0

>  <r_epik_Ionization_Penalty_Neutral>  (221) 
0.00206513

>  <r_epik_State_Penalty>  (221) 
-0

>  <r_epik_Charging_Adjusted_Penalty>  (221) 
0

>  <i_epik_Tot_Q>  (221) 
0

>  <i_epik_Tot_abs_Q>  (221) 
0

>  <s_lp_Force_Field>  (221) 
OPLS3e

>  <r_lp_Energy>  (221) 
45.3819

>  <b_lp_Chiralities_Consistent>  (221) 
1

>  <s_lp_Variant>  (221) 
76:0-1

>  <s_i_glide_gridfile>  (221) 
pfpi4k_grid

>  <i_i_glide_lignum>  (221) 
18

>  <i_i_glide_rotatable_bonds>  (221) 
2

>  <r_i_docking_score>  (221) 
-3.40298

>  <r_i_glide_ligand_efficiency>  (221) 
-0.141791

>  <r_i_glide_ligand_efficiency_sa>  (221) 
-0.408996

>  <r_i_glide_ligand_efficiency_ln>  (221) 
-0.81449

>  <r_i_glide_gscore>  (221) 
-3.40298

>  <r_i_glide_lipo>  (221) 
-0.305145

>  <r_i_glide_hbond>  (221) 
-0.142933

>  <r_i_glide_metal>  (221) 
-0

>  <r_i_glide_rewards>  (221) 
-1.25937

>  <r_i_glide_evdw>  (221) 
-26.6934

>  <r_i_glide_ecoul>  (221) 
-3.90834

>  <r_i_glide_erotb>  (221) 
0.374222

>  <r_i_glide_esite>  (221) 
-0.148835

>  <r_i_glide_emodel>  (221) 
-34.57

>  <r_i_glide_energy>  (221) 
-30.6017

>  <r_i_glide_einternal>  (221) 
3.86832

>  <r_i_glide_intrahb_reward>  (221) 
-0

>  <i_i_glide_confnum>  (221) 
4

>  <i_i_glide_posenum>  (221) 
26

>  <r_i_glide_eff_state_penalty>  (221) 
0

>  <ligand_id>  (221) 
76

>  <original_smiles>  (221) 
c1ccc(-c2nc3ccccc3n2-c2nnc3nncn3n2)nc1

>  <smiles>  (221) 
[H]c1nc(-c2nc3c([H])c([H])c([H])c([H])c3n2-c2nnc3nnc([H])n3n2)c([H])c([H])c1[H]

$$$$
76:0:2
     RDKit          3D

 33 37  0  0  1  0  0  0  0  0999 V2000
   -1.6079    2.8672    4.1049 C   0  0  0  0  0  0  0  0  0  0  0  0
   -1.0052    2.1274    3.0702 C   0  0  0  0  0  0  0  0  0  0  0  0
   -0.6238    0.8026    3.3277 C   0  0  0  0  0  0  0  0  0  0  0  0
   -0.7872    0.2685    4.6258 C   0  0  0  0  0  0  0  0  0  0  0  0
   -0.3744   -1.1125    4.9632 C   0  0  0  0  0  0  0  0  0  0  0  0
   -1.0823   -1.8030    5.8796 N   0  0  0  0  0  0  0  0  0  0  0  0
   -0.4732   -3.0433    5.9276 C   0  0  0  0  0  0  0  0  0  0  0  0
   -0.7771   -4.1912    6.6993 C   0  0  0  0  0  0  0  0  0  0  0  0
   -0.0176   -5.3743    6.5538 C   0  0  0  0  0  0  0  0  0  0  0  0
    1.0589   -5.4239    5.6459 C   0  0  0  0  0  0  0  0  0  0  0  0
    1.3752   -4.2863    4.8790 C   0  0  0  0  0  0  0  0  0  0  0  0
    0.6089   -3.1141    5.0180 C   0  0  0  0  0  0  0  0  0  0  0  0
    0.6586   -1.8502    4.4407 N   0  0  0  0  0  0  0  0  0  0  0  0
    1.6003   -1.3598    3.4957 C   0  0  0  0  0  0  0  0  0  0  0  0
    2.1908   -0.1519    3.7209 N   0  0  0  0  0  0  0  0  0  0  0  0
    3.0829    0.3401    2.8492 N   0  0  0  0  0  0  0  0  0  0  0  0
    3.4379   -0.4218    1.7832 C   0  0  0  0  0  0  0  0  0  0  0  0
    4.3128   -0.2615    0.7886 N   0  0  0  0  0  0  0  0  0  0  0  0
    4.2790   -1.4343    0.0276 N   0  0  0  0  0  0  0  0  0  0  0  0
    3.3779   -2.2637    0.5692 C   0  0  0  0  0  0  0  0  0  0  0  0
    2.8307   -1.6585    1.6558 N   0  0  0  0  0  0  0  0  0  0  0  0
    1.9032   -2.1836    2.4570 N   0  0  0  0  0  0  0  0  0  0  0  0
   -1.3690    0.9898    5.6206 N   0  0  0  0  0  0  0  0  0  0  0  0
   -1.7788    2.2487    5.3577 C   0  0  0  0  0  0  0  0  0  0  0  0
   -1.9214    3.8829    3.9371 H   0  0  0  0  0  0  0  0  0  0  0  0
   -0.8402    2.5564    2.0937 H   0  0  0  0  0  0  0  0  0  0  0  0
   -0.2022    0.2312    2.5167 H   0  0  0  0  0  0  0  0  0  0  0  0
   -1.6069   -4.1702    7.3877 H   0  0  0  0  0  0  0  0  0  0  0  0
   -0.2626   -6.2491    7.1407 H   0  0  0  0  0  0  0  0  0  0  0  0
    1.6456   -6.3235    5.5347 H   0  0  0  0  0  0  0  0  0  0  0  0
    2.1973   -4.3085    4.1884 H   0  0  0  0  0  0  0  0  0  0  0  0
    3.1308   -3.2530    0.2096 H   0  0  0  0  0  0  0  0  0  0  0  0
   -2.2507    2.7803    6.1708 H   0  0  0  0  0  0  0  0  0  0  0  0
  1 24  2  0
  1  2  1  0
  1 25  1  0
  2  3  2  0
  2 26  1  0
  3  4  1  0
  3 27  1  0
  4  5  1  0
  4 23  2  0
  5 13  1  0
  5  6  2  0
  6  7  1  0
  7 12  2  0
  7  8  1  0
  8  9  2  0
  8 28  1  0
  9 10  1  0
  9 29  1  0
 10 11  2  0
 10 30  1  0
 11 12  1  0
 11 31  1  0
 12 13  1  0
 13 14  1  0
 14 22  2  0
 14 15  1  0
 15 16  2  0
 16 17  1  0
 17 21  1  0
 17 18  2  0
 18 19  1  0
 19 20  2  0
 20 21  1  0
 20 32  1  0
 21 22  1  0
 23 24  1  0
 24 33  1  0
M  END
>  <i_m_ct_stereo_status>  (222) 
1

>  <s_m_source_file>  (222) 
/var/tmp/pbs.5076255.sched01/tmprh8juyh8/78tr4t3sa2.sdf

>  <i_m_source_file_index>  (222) 
18

>  <i_lp_mmshare_version>  (222) 
48012

>  <i_f3d_flags>  (222) 
0

>  <s_epik_input>  (222) 
bjFbY0hdW2NIXVtjSF1bY0hdYzEtYyhuMiluKGMoYzIzKVtjSF1bY0hdW2NIXVtjSF0zKS1jKG5uNClubihjNDUpW2NIXW5uNQ==

>  <s_epik_cmdline>  (222) 
J2VwaWtfcHl0aG9uJywgJy1waHQnLCAnMi4wJywgJy1waCcsICc3LjAnLCAnLXRuJywgJzgnLCAnLW1hJywgJzIwMCcsICctaW1hZScsICc8aW5maWxlLm1hZT4nLCAnLW9tYWUnLCAnPG91dGZpbGUubWFlPic=

>  <r_lp_tautomer_probability>  (222) 
1

>  <r_epik_Ionization_Penalty>  (222) 
0.00206513

>  <r_epik_Ionization_Penalty_Charging>  (222) 
0

>  <r_epik_Ionization_Penalty_Neutral>  (222) 
0.00206513

>  <r_epik_State_Penalty>  (222) 
-0

>  <r_epik_Charging_Adjusted_Penalty>  (222) 
0

>  <i_epik_Tot_Q>  (222) 
0

>  <i_epik_Tot_abs_Q>  (222) 
0

>  <s_lp_Force_Field>  (222) 
OPLS3e

>  <r_lp_Energy>  (222) 
45.3819

>  <b_lp_Chiralities_Consistent>  (222) 
1

>  <s_lp_Variant>  (222) 
76:0-1

>  <s_i_glide_gridfile>  (222) 
pfpi4k_grid

>  <i_i_glide_lignum>  (222) 
18

>  <i_i_glide_rotatable_bonds>  (222) 
2

>  <r_i_docking_score>  (222) 
-2.91587

>  <r_i_glide_ligand_efficiency>  (222) 
-0.121494

>  <r_i_glide_ligand_efficiency_sa>  (222) 
-0.350451

>  <r_i_glide_ligand_efficiency_ln>  (222) 
-0.6979

>  <r_i_glide_gscore>  (222) 
-2.91587

>  <r_i_glide_lipo>  (222) 
-0.0158846

>  <r_i_glide_hbond>  (222) 
0

>  <r_i_glide_metal>  (222) 
-0

>  <r_i_glide_rewards>  (222) 
-1.27264

>  <r_i_glide_evdw>  (222) 
-26.4203

>  <r_i_glide_ecoul>  (222) 
-3.64215

>  <r_i_glide_erotb>  (222) 
0.374222

>  <r_i_glide_esite>  (222) 
-0.134223

>  <r_i_glide_emodel>  (222) 
-34.4469

>  <r_i_glide_energy>  (222) 
-30.0625

>  <r_i_glide_einternal>  (222) 
2.65047

>  <r_i_glide_intrahb_reward>  (222) 
-0

>  <i_i_glide_confnum>  (222) 
5

>  <i_i_glide_posenum>  (222) 
13

>  <r_i_glide_eff_state_penalty>  (222) 
0

>  <ligand_id>  (222) 
76

>  <original_smiles>  (222) 
c1ccc(-c2nc3ccccc3n2-c2nnc3nncn3n2)nc1

>  <smiles>  (222) 
[H]c1nc(-c2nc3c([H])c([H])c([H])c([H])c3n2-c2nnc3nnc([H])n3n2)c([H])c([H])c1[H]

$$$$
77:0:0
     RDKit          3D

 23 25  0  0  1  0  0  0  0  0999 V2000
    2.4255   -3.1977   -3.7801 C   0  0  0  0  0  0  0  0  0  0  0  0
    3.2107   -2.2088   -3.0777 N   0  0  0  0  0  0  0  0  0  0  0  0
    3.5282   -1.0628   -3.7199 N   0  0  0  0  0  0  0  0  0  0  0  0
    4.2143   -0.4046   -2.7998 C   0  0  0  0  0  0  0  0  0  0  0  0
    4.4503   -1.0785   -1.6386 N   0  0  0  0  0  0  0  0  0  0  0  0
    3.7499   -2.1968   -1.8428 C   0  0  0  0  0  0  0  0  0  0  0  0
    3.6432   -3.2516   -0.8311 C   0  0  0  0  0  0  0  0  0  0  0  0
    4.7382   -3.4944    0.0464 C   0  0  0  0  0  0  0  0  0  0  0  0
    4.6714   -4.4842    1.0039 C   0  0  0  0  0  0  0  0  0  0  0  0
    3.5035   -5.2800    1.1157 C   0  0  0  0  0  0  0  0  0  0  0  0
    3.1308   -6.2749    1.9164 N   0  0  0  0  0  0  0  0  0  0  0  0
    1.8805   -6.5894    1.4777 C   0  0  0  0  0  0  0  0  0  0  0  0
    1.4131   -5.8592    0.4765 N   0  0  0  0  0  0  0  0  0  0  0  0
    2.4539   -5.0046    0.2298 N   0  0  0  0  0  0  0  0  0  0  0  0
    2.4985   -4.0171   -0.7109 C   0  0  0  0  0  0  0  0  0  0  0  0
    2.7179   -4.2048   -3.4970 H   0  0  0  0  0  0  0  0  0  0  0  0
    2.6171   -3.1106   -4.8424 H   0  0  0  0  0  0  0  0  0  0  0  0
    1.3660   -3.0375   -3.5764 H   0  0  0  0  0  0  0  0  0  0  0  0
    4.5975    0.5871   -2.9950 H   0  0  0  0  0  0  0  0  0  0  0  0
    5.6406   -2.8924   -0.0280 H   0  0  0  0  0  0  0  0  0  0  0  0
    5.4963   -4.6665    1.6826 H   0  0  0  0  0  0  0  0  0  0  0  0
    1.2833   -7.3716    1.9320 H   0  0  0  0  0  0  0  0  0  0  0  0
    1.6224   -3.9044   -1.3393 H   0  0  0  0  0  0  0  0  0  0  0  0
  1  2  1  0
  1 16  1  0
  1 17  1  0
  1 18  1  0
  2  6  1  0
  2  3  1  0
  3  4  2  0
  4  5  1  0
  4 19  1  0
  5  6  2  0
  6  7  1  0
  7 15  2  0
  7  8  1  0
  8  9  2  0
  8 20  1  0
  9 10  1  0
  9 21  1  0
 10 14  1  0
 10 11  2  0
 11 12  1  0
 12 13  2  0
 12 22  1  0
 13 14  1  0
 14 15  1  0
 15 23  1  0
M  END
>  <i_m_ct_stereo_status>  (223) 
1

>  <s_m_source_file>  (223) 
/var/tmp/pbs.5076255.sched01/tmprh8juyh8/78tr4t3sa2.sdf

>  <i_m_source_file_index>  (223) 
19

>  <i_lp_mmshare_version>  (223) 
48012

>  <i_f3d_flags>  (223) 
0

>  <s_epik_input>  (223) 
W0NIM11uMW5bY0hdbmMxLWMoW2NIXVtjSF0yKVtjSF1uKGMyMyluW2NIXW4z

>  <s_epik_cmdline>  (223) 
J2VwaWtfcHl0aG9uJywgJy1waHQnLCAnMi4wJywgJy1waCcsICc3LjAnLCAnLXRuJywgJzgnLCAnLW1hJywgJzIwMCcsICctaW1hZScsICc8aW5maWxlLm1hZT4nLCAnLW9tYWUnLCAnPG91dGZpbGUubWFlPic=

>  <r_lp_tautomer_probability>  (223) 
1

>  <r_epik_Ionization_Penalty>  (223) 
0.00030337

>  <r_epik_Ionization_Penalty_Charging>  (223) 
0

>  <r_epik_Ionization_Penalty_Neutral>  (223) 
0.00030337

>  <r_epik_State_Penalty>  (223) 
0.000182595

>  <r_epik_Charging_Adjusted_Penalty>  (223) 
0.000182595

>  <i_epik_Tot_Q>  (223) 
0

>  <i_epik_Tot_abs_Q>  (223) 
0

>  <s_lp_Force_Field>  (223) 
OPLS3e

>  <r_lp_Energy>  (223) 
18.9975

>  <b_lp_Chiralities_Consistent>  (223) 
1

>  <s_lp_Variant>  (223) 
77:0-1

>  <s_i_glide_gridfile>  (223) 
pfpi4k_grid

>  <i_i_glide_lignum>  (223) 
19

>  <i_i_glide_rotatable_bonds>  (223) 
1

>  <r_i_docking_score>  (223) 
-4.48118

>  <r_i_glide_ligand_efficiency>  (223) 
-0.298745

>  <r_i_glide_ligand_efficiency_sa>  (223) 
-0.736769

>  <r_i_glide_ligand_efficiency_ln>  (223) 
-1.2085

>  <r_i_glide_gscore>  (223) 
-4.48118

>  <r_i_glide_lipo>  (223) 
-0.283026

>  <r_i_glide_hbond>  (223) 
-0.15605

>  <r_i_glide_metal>  (223) 
-0

>  <r_i_glide_rewards>  (223) 
-2.35584

>  <r_i_glide_evdw>  (223) 
-20.975

>  <r_i_glide_ecoul>  (223) 
-6.13022

>  <r_i_glide_erotb>  (223) 
0.407654

>  <r_i_glide_esite>  (223) 
-0.12564

>  <r_i_glide_emodel>  (223) 
-34.513

>  <r_i_glide_energy>  (223) 
-27.1052

>  <r_i_glide_einternal>  (223) 
0.0977651

>  <r_i_glide_intrahb_reward>  (223) 
-0

>  <i_i_glide_confnum>  (223) 
4

>  <i_i_glide_posenum>  (223) 
1

>  <r_i_glide_eff_state_penalty>  (223) 
0

>  <ligand_id>  (223) 
77

>  <original_smiles>  (223) 
Cn1ncnc1-c1ccc2ncnn2c1

>  <smiles>  (223) 
[H]c1nc(-c2c([H])c([H])c3nc([H])nn3c2[H])n(C([H])([H])[H])n1

$$$$
77:0:1
     RDKit          3D

 23 25  0  0  1  0  0  0  0  0999 V2000
    5.2306   -5.3809    1.6182 C   0  0  0  0  0  0  0  0  0  0  0  0
    3.8381   -5.5695    1.2562 N   0  0  0  0  0  0  0  0  0  0  0  0
    3.1534   -6.5870    1.8253 N   0  0  0  0  0  0  0  0  0  0  0  0
    1.9564   -6.4842    1.2689 C   0  0  0  0  0  0  0  0  0  0  0  0
    1.8155   -5.4658    0.3670 N   0  0  0  0  0  0  0  0  0  0  0  0
    3.0247   -4.8952    0.4176 C   0  0  0  0  0  0  0  0  0  0  0  0
    3.3705   -3.6840   -0.3416 C   0  0  0  0  0  0  0  0  0  0  0  0
    4.2805   -2.7259    0.1902 C   0  0  0  0  0  0  0  0  0  0  0  0
    4.6363   -1.6041   -0.5229 C   0  0  0  0  0  0  0  0  0  0  0  0
    4.0791   -1.3873   -1.8103 C   0  0  0  0  0  0  0  0  0  0  0  0
    4.2356   -0.4463   -2.7340 N   0  0  0  0  0  0  0  0  0  0  0  0
    3.3956   -0.8421   -3.7342 C   0  0  0  0  0  0  0  0  0  0  0  0
    2.7777   -2.0048   -3.5500 N   0  0  0  0  0  0  0  0  0  0  0  0
    3.1779   -2.3496   -2.2927 N   0  0  0  0  0  0  0  0  0  0  0  0
    2.8110   -3.4548   -1.5876 C   0  0  0  0  0  0  0  0  0  0  0  0
    5.7932   -4.9662    0.7788 H   0  0  0  0  0  0  0  0  0  0  0  0
    5.6792   -6.3377    1.8860 H   0  0  0  0  0  0  0  0  0  0  0  0
    5.3041   -4.7126    2.4784 H   0  0  0  0  0  0  0  0  0  0  0  0
    1.1572   -7.1663    1.5331 H   0  0  0  0  0  0  0  0  0  0  0  0
    4.7105   -2.8507    1.1792 H   0  0  0  0  0  0  0  0  0  0  0  0
    5.3306   -0.8794   -0.1202 H   0  0  0  0  0  0  0  0  0  0  0  0
    3.2647   -0.2629   -4.6388 H   0  0  0  0  0  0  0  0  0  0  0  0
    2.1064   -4.1265   -2.0689 H   0  0  0  0  0  0  0  0  0  0  0  0
  1  2  1  0
  1 16  1  0
  1 17  1  0
  1 18  1  0
  2  6  1  0
  2  3  1  0
  3  4  2  0
  4  5  1  0
  4 19  1  0
  5  6  2  0
  6  7  1  0
  7 15  2  0
  7  8  1  0
  8  9  2  0
  8 20  1  0
  9 10  1  0
  9 21  1  0
 10 14  1  0
 10 11  2  0
 11 12  1  0
 12 13  2  0
 12 22  1  0
 13 14  1  0
 14 15  1  0
 15 23  1  0
M  END
>  <i_m_ct_stereo_status>  (224) 
1

>  <s_m_source_file>  (224) 
/var/tmp/pbs.5076255.sched01/tmprh8juyh8/78tr4t3sa2.sdf

>  <i_m_source_file_index>  (224) 
19

>  <i_lp_mmshare_version>  (224) 
48012

>  <i_f3d_flags>  (224) 
0

>  <s_epik_input>  (224) 
W0NIM11uMW5bY0hdbmMxLWMoW2NIXVtjSF0yKVtjSF1uKGMyMyluW2NIXW4z

>  <s_epik_cmdline>  (224) 
J2VwaWtfcHl0aG9uJywgJy1waHQnLCAnMi4wJywgJy1waCcsICc3LjAnLCAnLXRuJywgJzgnLCAnLW1hJywgJzIwMCcsICctaW1hZScsICc8aW5maWxlLm1hZT4nLCAnLW9tYWUnLCAnPG91dGZpbGUubWFlPic=

>  <r_lp_tautomer_probability>  (224) 
1

>  <r_epik_Ionization_Penalty>  (224) 
0.00030337

>  <r_epik_Ionization_Penalty_Charging>  (224) 
0

>  <r_epik_Ionization_Penalty_Neutral>  (224) 
0.00030337

>  <r_epik_State_Penalty>  (224) 
0.000182595

>  <r_epik_Charging_Adjusted_Penalty>  (224) 
0.000182595

>  <i_epik_Tot_Q>  (224) 
0

>  <i_epik_Tot_abs_Q>  (224) 
0

>  <s_lp_Force_Field>  (224) 
OPLS3e

>  <r_lp_Energy>  (224) 
18.9975

>  <b_lp_Chiralities_Consistent>  (224) 
1

>  <s_lp_Variant>  (224) 
77:0-1

>  <s_i_glide_gridfile>  (224) 
pfpi4k_grid

>  <i_i_glide_lignum>  (224) 
19

>  <i_i_glide_rotatable_bonds>  (224) 
1

>  <r_i_docking_score>  (224) 
-3.93336

>  <r_i_glide_ligand_efficiency>  (224) 
-0.262224

>  <r_i_glide_ligand_efficiency_sa>  (224) 
-0.646701

>  <r_i_glide_ligand_efficiency_ln>  (224) 
-1.06076

>  <r_i_glide_gscore>  (224) 
-3.93336

>  <r_i_glide_lipo>  (224) 
-0.15524

>  <r_i_glide_hbond>  (224) 
-0.0948574

>  <r_i_glide_metal>  (224) 
-0

>  <r_i_glide_rewards>  (224) 
-2.39387

>  <r_i_glide_evdw>  (224) 
-21.218

>  <r_i_glide_ecoul>  (224) 
-3.2352

>  <r_i_glide_erotb>  (224) 
0.407654

>  <r_i_glide_esite>  (224) 
-0.150872

>  <r_i_glide_emodel>  (224) 
-30.8325

>  <r_i_glide_energy>  (224) 
-24.4532

>  <r_i_glide_einternal>  (224) 
0.186416

>  <r_i_glide_intrahb_reward>  (224) 
-0

>  <i_i_glide_confnum>  (224) 
3

>  <i_i_glide_posenum>  (224) 
2

>  <r_i_glide_eff_state_penalty>  (224) 
0

>  <ligand_id>  (224) 
77

>  <original_smiles>  (224) 
Cn1ncnc1-c1ccc2ncnn2c1

>  <smiles>  (224) 
[H]c1nc(-c2c([H])c([H])c3nc([H])nn3c2[H])n(C([H])([H])[H])n1

$$$$
77:0:2
     RDKit          3D

 23 25  0  0  1  0  0  0  0  0999 V2000
    4.7338   -6.7774    1.6962 C   0  0  0  0  0  0  0  0  0  0  0  0
    3.3400   -6.5697    1.3421 N   0  0  0  0  0  0  0  0  0  0  0  0
    2.4275   -7.4730    1.7654 N   0  0  0  0  0  0  0  0  0  0  0  0
    1.2935   -7.0031    1.2683 C   0  0  0  0  0  0  0  0  0  0  0  0
    1.4089   -5.8584    0.5324 N   0  0  0  0  0  0  0  0  0  0  0  0
    2.7163   -5.5976    0.6426 C   0  0  0  0  0  0  0  0  0  0  0  0
    3.3455   -4.3899    0.0765 C   0  0  0  0  0  0  0  0  0  0  0  0
    4.4777   -3.7934    0.7030 C   0  0  0  0  0  0  0  0  0  0  0  0
    5.1010   -2.6946    0.1605 C   0  0  0  0  0  0  0  0  0  0  0  0
    4.6055   -2.1244   -1.0422 C   0  0  0  0  0  0  0  0  0  0  0  0
    4.9875   -1.1021   -1.8035 N   0  0  0  0  0  0  0  0  0  0  0  0
    4.0584   -1.1021   -2.8029 C   0  0  0  0  0  0  0  0  0  0  0  0
    3.1636   -2.0839   -2.7775 N   0  0  0  0  0  0  0  0  0  0  0  0
    3.4807   -2.7315   -1.6216 N   0  0  0  0  0  0  0  0  0  0  0  0
    2.8506   -3.8184   -1.0859 C   0  0  0  0  0  0  0  0  0  0  0  0
    5.3899   -6.3822    0.9178 H   0  0  0  0  0  0  0  0  0  0  0  0
    4.9403   -7.8416    1.8012 H   0  0  0  0  0  0  0  0  0  0  0  0
    4.9511   -6.2871    2.6464 H   0  0  0  0  0  0  0  0  0  0  0  0
    0.3602   -7.5184    1.4320 H   0  0  0  0  0  0  0  0  0  0  0  0
    4.8776   -4.1905    1.6283 H   0  0  0  0  0  0  0  0  0  0  0  0
    5.9691   -2.2566    0.6354 H   0  0  0  0  0  0  0  0  0  0  0  0
    4.0693   -0.3688   -3.5969 H   0  0  0  0  0  0  0  0  0  0  0  0
    2.0083   -4.2149   -1.6431 H   0  0  0  0  0  0  0  0  0  0  0  0
  1  2  1  0
  1 16  1  0
  1 17  1  0
  1 18  1  0
  2  6  1  0
  2  3  1  0
  3  4  2  0
  4  5  1  0
  4 19  1  0
  5  6  2  0
  6  7  1  0
  7 15  2  0
  7  8  1  0
  8  9  2  0
  8 20  1  0
  9 10  1  0
  9 21  1  0
 10 14  1  0
 10 11  2  0
 11 12  1  0
 12 13  2  0
 12 22  1  0
 13 14  1  0
 14 15  1  0
 15 23  1  0
M  END
>  <i_m_ct_stereo_status>  (225) 
1

>  <s_m_source_file>  (225) 
/var/tmp/pbs.5076255.sched01/tmprh8juyh8/78tr4t3sa2.sdf

>  <i_m_source_file_index>  (225) 
19

>  <i_lp_mmshare_version>  (225) 
48012

>  <i_f3d_flags>  (225) 
0

>  <s_epik_input>  (225) 
W0NIM11uMW5bY0hdbmMxLWMoW2NIXVtjSF0yKVtjSF1uKGMyMyluW2NIXW4z

>  <s_epik_cmdline>  (225) 
J2VwaWtfcHl0aG9uJywgJy1waHQnLCAnMi4wJywgJy1waCcsICc3LjAnLCAnLXRuJywgJzgnLCAnLW1hJywgJzIwMCcsICctaW1hZScsICc8aW5maWxlLm1hZT4nLCAnLW9tYWUnLCAnPG91dGZpbGUubWFlPic=

>  <r_lp_tautomer_probability>  (225) 
1

>  <r_epik_Ionization_Penalty>  (225) 
0.00030337

>  <r_epik_Ionization_Penalty_Charging>  (225) 
0

>  <r_epik_Ionization_Penalty_Neutral>  (225) 
0.00030337

>  <r_epik_State_Penalty>  (225) 
0.000182595

>  <r_epik_Charging_Adjusted_Penalty>  (225) 
0.000182595

>  <i_epik_Tot_Q>  (225) 
0

>  <i_epik_Tot_abs_Q>  (225) 
0

>  <s_lp_Force_Field>  (225) 
OPLS3e

>  <r_lp_Energy>  (225) 
18.9975

>  <b_lp_Chiralities_Consistent>  (225) 
1

>  <s_lp_Variant>  (225) 
77:0-1

>  <s_i_glide_gridfile>  (225) 
pfpi4k_grid

>  <i_i_glide_lignum>  (225) 
19

>  <i_i_glide_rotatable_bonds>  (225) 
1

>  <r_i_docking_score>  (225) 
-3.71484

>  <r_i_glide_ligand_efficiency>  (225) 
-0.247656

>  <r_i_glide_ligand_efficiency_sa>  (225) 
-0.610772

>  <r_i_glide_ligand_efficiency_ln>  (225) 
-1.00183

>  <r_i_glide_gscore>  (225) 
-3.71484

>  <r_i_glide_lipo>  (225) 
-0.102352

>  <r_i_glide_hbond>  (225) 
-0.156803

>  <r_i_glide_metal>  (225) 
-0

>  <r_i_glide_rewards>  (225) 
-2.12386

>  <r_i_glide_evdw>  (225) 
-19.8069

>  <r_i_glide_ecoul>  (225) 
-4.0762

>  <r_i_glide_erotb>  (225) 
0.407654

>  <r_i_glide_esite>  (225) 
-0.137706

>  <r_i_glide_emodel>  (225) 
-29.8627

>  <r_i_glide_energy>  (225) 
-23.8831

>  <r_i_glide_einternal>  (225) 
0.167989

>  <r_i_glide_intrahb_reward>  (225) 
-0

>  <i_i_glide_confnum>  (225) 
3

>  <i_i_glide_posenum>  (225) 
13

>  <r_i_glide_eff_state_penalty>  (225) 
0

>  <ligand_id>  (225) 
77

>  <original_smiles>  (225) 
Cn1ncnc1-c1ccc2ncnn2c1

>  <smiles>  (225) 
[H]c1nc(-c2c([H])c([H])c3nc([H])nn3c2[H])n(C([H])([H])[H])n1

$$$$
78:0:0
     RDKit          3D

 38 41  0  0  1  0  0  0  0  0999 V2000
    8.4602   -3.4392   -1.4334 C   0  0  0  0  0  0  0  0  0  0  0  0
    7.2204   -2.9441   -1.9072 O   0  0  0  0  0  0  0  0  0  0  0  0
    6.3615   -2.3983   -0.9867 C   0  0  0  0  0  0  0  0  0  0  0  0
    6.6647   -2.2594    0.3896 C   0  0  0  0  0  0  0  0  0  0  0  0
    5.7247   -1.6753    1.2521 C   0  0  0  0  0  0  0  0  0  0  0  0
    4.4797   -1.2335    0.7685 C   0  0  0  0  0  0  0  0  0  0  0  0
    3.5609   -0.7299    1.6896 N   0  0  0  0  0  0  0  0  0  0  0  0
    2.5945    0.3107    1.3144 C   0  0  0  0  0  0  0  0  0  0  0  0
    1.4629    0.2980    2.3466 C   0  0  0  0  0  0  0  0  0  0  0  0
    1.8101   -0.9090    3.1839 C   0  0  0  0  0  0  0  0  0  0  0  0
    1.1098   -1.5187    4.2507 C   0  0  0  0  0  0  0  0  0  0  0  0
   -0.0899   -0.9511    4.7407 N   0  0  0  0  0  0  0  0  0  0  0  0
   -0.5216    0.3675    4.7912 C   0  0  0  0  0  0  0  0  0  0  0  0
   -1.7709    0.3281    5.3484 C   0  0  0  0  0  0  0  0  0  0  0  0
   -2.1087   -0.9856    5.6858 N   0  0  0  0  0  0  0  0  0  0  0  0
   -1.0533   -1.6985    5.2867 C   0  0  0  0  0  0  0  0  0  0  0  0
    1.6875   -2.6897    4.8099 C   0  0  0  0  0  0  0  0  0  0  0  0
    2.9043   -3.1673    4.2690 C   0  0  0  0  0  0  0  0  0  0  0  0
    3.5689   -2.5666    3.2625 N   0  0  0  0  0  0  0  0  0  0  0  0
    3.0052   -1.4528    2.7486 C   0  0  0  0  0  0  0  0  0  0  0  0
    4.1794   -1.3745   -0.6022 C   0  0  0  0  0  0  0  0  0  0  0  0
    5.1183   -1.9536   -1.4732 C   0  0  0  0  0  0  0  0  0  0  0  0
    9.0215   -3.8302   -2.2805 H   0  0  0  0  0  0  0  0  0  0  0  0
    8.3240   -4.2520   -0.7185 H   0  0  0  0  0  0  0  0  0  0  0  0
    9.0326   -2.6403   -0.9621 H   0  0  0  0  0  0  0  0  0  0  0  0
    7.5959   -2.5953    0.8258 H   0  0  0  0  0  0  0  0  0  0  0  0
    5.9379   -1.5922    2.3061 H   0  0  0  0  0  0  0  0  0  0  0  0
    3.0813    1.2856    1.2978 H   0  0  0  0  0  0  0  0  0  0  0  0
    2.1857    0.1306    0.3314 H   0  0  0  0  0  0  0  0  0  0  0  0
    1.5242    1.2211    2.9165 H   0  0  0  0  0  0  0  0  0  0  0  0
    0.4778    0.2059    1.8849 H   0  0  0  0  0  0  0  0  0  0  0  0
    0.0590    1.2122    4.4473 H   0  0  0  0  0  0  0  0  0  0  0  0
   -2.4228    1.1587    5.5470 H   0  0  0  0  0  0  0  0  0  0  0  0
   -0.9849   -2.7721    5.4025 H   0  0  0  0  0  0  0  0  0  0  0  0
    1.2449   -3.2147    5.6441 H   0  0  0  0  0  0  0  0  0  0  0  0
    3.3845   -4.0440    4.6699 H   0  0  0  0  0  0  0  0  0  0  0  0
    3.2155   -1.0938   -0.9945 H   0  0  0  0  0  0  0  0  0  0  0  0
    4.8686   -2.0837   -2.5156 H   0  0  0  0  0  0  0  0  0  0  0  0
  1  2  1  0
  1 23  1  0
  1 24  1  0
  1 25  1  0
  2  3  1  0
  3 22  2  0
  3  4  1  0
  4  5  2  0
  4 26  1  0
  5  6  1  0
  5 27  1  0
  6  7  1  0
  6 21  2  0
  7 20  1  0
  7  8  1  0
  8  9  1  0
  8 28  1  0
  8 29  1  0
  9 10  1  0
  9 30  1  0
  9 31  1  0
 10 20  2  0
 10 11  1  0
 11 12  1  0
 11 17  2  0
 12 16  1  0
 12 13  1  0
 13 14  2  0
 13 32  1  0
 14 15  1  0
 14 33  1  0
 15 16  2  0
 16 34  1  0
 17 18  1  0
 17 35  1  0
 18 19  2  0
 18 36  1  0
 19 20  1  0
 21 22  1  0
 21 37  1  0
 22 38  1  0
M  END
>  <i_m_ct_stereo_status>  (226) 
1

>  <s_m_source_file>  (226) 
/var/tmp/pbs.5076255.sched01/tmprh8juyh8/78tr4t3sa2.sdf

>  <i_m_source_file_index>  (226) 
20

>  <i_lp_mmshare_version>  (226) 
48012

>  <i_f3d_flags>  (226) 
0

>  <s_epik_input>  (226) 
W0NIM11PYzFbY0hdW2NIXWMoW2NIXVtjSF0xKU4oW0NIMl1bQ0gyXTIpYyhjMjMpbltjSF1bY0hdYzMtbjRbY0hdW2NIXW5bY0hdNA==

>  <s_epik_cmdline>  (226) 
J2VwaWtfcHl0aG9uJywgJy1waHQnLCAnMi4wJywgJy1waCcsICc3LjAnLCAnLXRuJywgJzgnLCAnLW1hJywgJzIwMCcsICctaW1hZScsICc8aW5maWxlLm1hZT4nLCAnLW9tYWUnLCAnPG91dGZpbGUubWFlPic=

>  <r_lp_tautomer_probability>  (226) 
1

>  <r_epik_Ionization_Penalty>  (226) 
0.0272599

>  <r_epik_Ionization_Penalty_Charging>  (226) 
0.0270232

>  <r_epik_Ionization_Penalty_Neutral>  (226) 
0.000236725

>  <r_epik_State_Penalty>  (226) 
0.0220938

>  <r_epik_Charging_Adjusted_Penalty>  (226) 
0.049117

>  <i_epik_Tot_Q>  (226) 
0

>  <i_epik_Tot_abs_Q>  (226) 
0

>  <s_lp_Force_Field>  (226) 
OPLS3e

>  <r_lp_Energy>  (226) 
36.6117

>  <b_lp_Chiralities_Consistent>  (226) 
1

>  <s_lp_Variant>  (226) 
78:0-1

>  <s_i_glide_gridfile>  (226) 
pfpi4k_grid

>  <i_i_glide_lignum>  (226) 
20

>  <i_i_glide_rotatable_bonds>  (226) 
3

>  <r_i_docking_score>  (226) 
-3.13919

>  <r_i_glide_ligand_efficiency>  (226) 
-0.14269

>  <r_i_glide_ligand_efficiency_sa>  (226) 
-0.399824

>  <r_i_glide_ligand_efficiency_ln>  (226) 
-0.767332

>  <r_i_glide_gscore>  (226) 
-3.13919

>  <r_i_glide_lipo>  (226) 
-0.231146

>  <r_i_glide_hbond>  (226) 
-0.0643773

>  <r_i_glide_metal>  (226) 
-0

>  <r_i_glide_rewards>  (226) 
-1.4159

>  <r_i_glide_evdw>  (226) 
-24.8071

>  <r_i_glide_ecoul>  (226) 
-3.71046

>  <r_i_glide_erotb>  (226) 
0.427226

>  <r_i_glide_esite>  (226) 
-0.0580715

>  <r_i_glide_emodel>  (226) 
-34.463

>  <r_i_glide_energy>  (226) 
-28.5176

>  <r_i_glide_einternal>  (226) 
0.0892639

>  <r_i_glide_intrahb_reward>  (226) 
-0

>  <i_i_glide_confnum>  (226) 
6

>  <i_i_glide_posenum>  (226) 
10

>  <r_i_glide_eff_state_penalty>  (226) 
0

>  <ligand_id>  (226) 
78

>  <original_smiles>  (226) 
COc1ccc(N2CCc3c(-n4ccnc4)ccnc32)cc1

>  <smiles>  (226) 
[H]c1nc2c(c(-n3c([H])nc([H])c3[H])c1[H])C([H])([H])C([H])([H])N2c1c([H])c([H])c(OC([H])([H])[H])c([H])c1[H]

$$$$
78:0:1
     RDKit          3D

 38 41  0  0  1  0  0  0  0  0999 V2000
    3.6812   -1.4452   -3.9848 C   0  0  0  0  0  0  0  0  0  0  0  0
    4.6992   -2.2597   -3.4190 O   0  0  0  0  0  0  0  0  0  0  0  0
    4.3965   -2.8757   -2.2244 C   0  0  0  0  0  0  0  0  0  0  0  0
    5.3978   -3.6524   -1.6063 C   0  0  0  0  0  0  0  0  0  0  0  0
    5.1259   -4.3023   -0.3849 C   0  0  0  0  0  0  0  0  0  0  0  0
    3.8602   -4.1864    0.2289 C   0  0  0  0  0  0  0  0  0  0  0  0
    3.5953   -4.8864    1.4017 N   0  0  0  0  0  0  0  0  0  0  0  0
    2.6522   -4.3697    2.4070 C   0  0  0  0  0  0  0  0  0  0  0  0
    2.2435   -5.5406    3.3047 C   0  0  0  0  0  0  0  0  0  0  0  0
    2.9011   -6.7147    2.6201 C   0  0  0  0  0  0  0  0  0  0  0  0
    2.8184   -8.1005    2.8928 C   0  0  0  0  0  0  0  0  0  0  0  0
    2.0495   -8.6334    3.9484 N   0  0  0  0  0  0  0  0  0  0  0  0
    1.3374   -9.8176    4.0150 C   0  0  0  0  0  0  0  0  0  0  0  0
    0.7862   -9.8532    5.2739 C   0  0  0  0  0  0  0  0  0  0  0  0
    1.1435   -8.7161    5.9865 N   0  0  0  0  0  0  0  0  0  0  0  0
    1.9265   -8.0408    5.1474 C   0  0  0  0  0  0  0  0  0  0  0  0
    3.5015   -8.9683    2.0039 C   0  0  0  0  0  0  0  0  0  0  0  0
    4.2189   -8.4063    0.9237 C   0  0  0  0  0  0  0  0  0  0  0  0
    4.2967   -7.0777    0.6747 N   0  0  0  0  0  0  0  0  0  0  0  0
    3.6473   -6.2731    1.5417 C   0  0  0  0  0  0  0  0  0  0  0  0
    2.8746   -3.4069   -0.3910 C   0  0  0  0  0  0  0  0  0  0  0  0
    3.1305   -2.7629   -1.6018 C   0  0  0  0  0  0  0  0  0  0  0  0
    4.0123   -0.9709   -4.9134 H   0  0  0  0  0  0  0  0  0  0  0  0
    3.3913   -0.6515   -3.2882 H   0  0  0  0  0  0  0  0  0  0  0  0
    2.8022   -2.0544   -4.2150 H   0  0  0  0  0  0  0  0  0  0  0  0
    6.3738   -3.7824   -2.0671 H   0  0  0  0  0  0  0  0  0  0  0  0
    5.8756   -4.9294    0.0797 H   0  0  0  0  0  0  0  0  0  0  0  0
    3.1476   -3.5966    2.9950 H   0  0  0  0  0  0  0  0  0  0  0  0
    1.7643   -3.9133    1.9720 H   0  0  0  0  0  0  0  0  0  0  0  0
    2.6582   -5.3549    4.2883 H   0  0  0  0  0  0  0  0  0  0  0  0
    1.1641   -5.6570    3.3615 H   0  0  0  0  0  0  0  0  0  0  0  0
    1.2805  -10.5219    3.1895 H   0  0  0  0  0  0  0  0  0  0  0  0
    0.1759  -10.6093    5.7431 H   0  0  0  0  0  0  0  0  0  0  0  0
    2.4091   -7.1170    5.4292 H   0  0  0  0  0  0  0  0  0  0  0  0
    3.4778  -10.0429    2.1264 H   0  0  0  0  0  0  0  0  0  0  0  0
    4.7270   -9.0407    0.2133 H   0  0  0  0  0  0  0  0  0  0  0  0
    1.8896   -3.3130    0.0120 H   0  0  0  0  0  0  0  0  0  0  0  0
    2.2996   -2.2130   -2.0129 H   0  0  0  0  0  0  0  0  0  0  0  0
  1  2  1  0
  1 23  1  0
  1 24  1  0
  1 25  1  0
  2  3  1  0
  3 22  2  0
  3  4  1  0
  4  5  2  0
  4 26  1  0
  5  6  1  0
  5 27  1  0
  6  7  1  0
  6 21  2  0
  7 20  1  0
  7  8  1  0
  8  9  1  0
  8 28  1  0
  8 29  1  0
  9 10  1  0
  9 30  1  0
  9 31  1  0
 10 20  2  0
 10 11  1  0
 11 12  1  0
 11 17  2  0
 12 16  1  0
 12 13  1  0
 13 14  2  0
 13 32  1  0
 14 15  1  0
 14 33  1  0
 15 16  2  0
 16 34  1  0
 17 18  1  0
 17 35  1  0
 18 19  2  0
 18 36  1  0
 19 20  1  0
 21 22  1  0
 21 37  1  0
 22 38  1  0
M  END
>  <i_m_ct_stereo_status>  (227) 
1

>  <s_m_source_file>  (227) 
/var/tmp/pbs.5076255.sched01/tmprh8juyh8/78tr4t3sa2.sdf

>  <i_m_source_file_index>  (227) 
20

>  <i_lp_mmshare_version>  (227) 
48012

>  <i_f3d_flags>  (227) 
0

>  <s_epik_input>  (227) 
W0NIM11PYzFbY0hdW2NIXWMoW2NIXVtjSF0xKU4oW0NIMl1bQ0gyXTIpYyhjMjMpbltjSF1bY0hdYzMtbjRbY0hdW2NIXW5bY0hdNA==

>  <s_epik_cmdline>  (227) 
J2VwaWtfcHl0aG9uJywgJy1waHQnLCAnMi4wJywgJy1waCcsICc3LjAnLCAnLXRuJywgJzgnLCAnLW1hJywgJzIwMCcsICctaW1hZScsICc8aW5maWxlLm1hZT4nLCAnLW9tYWUnLCAnPG91dGZpbGUubWFlPic=

>  <r_lp_tautomer_probability>  (227) 
1

>  <r_epik_Ionization_Penalty>  (227) 
0.0272599

>  <r_epik_Ionization_Penalty_Charging>  (227) 
0.0270232

>  <r_epik_Ionization_Penalty_Neutral>  (227) 
0.000236725

>  <r_epik_State_Penalty>  (227) 
0.0220938

>  <r_epik_Charging_Adjusted_Penalty>  (227) 
0.049117

>  <i_epik_Tot_Q>  (227) 
0

>  <i_epik_Tot_abs_Q>  (227) 
0

>  <s_lp_Force_Field>  (227) 
OPLS3e

>  <r_lp_Energy>  (227) 
36.6117

>  <b_lp_Chiralities_Consistent>  (227) 
1

>  <s_lp_Variant>  (227) 
78:0-1

>  <s_i_glide_gridfile>  (227) 
pfpi4k_grid

>  <i_i_glide_lignum>  (227) 
20

>  <i_i_glide_rotatable_bonds>  (227) 
3

>  <r_i_docking_score>  (227) 
-2.76468

>  <r_i_glide_ligand_efficiency>  (227) 
-0.125667

>  <r_i_glide_ligand_efficiency_sa>  (227) 
-0.352125

>  <r_i_glide_ligand_efficiency_ln>  (227) 
-0.675789

>  <r_i_glide_gscore>  (227) 
-2.76468

>  <r_i_glide_lipo>  (227) 
-0.238416

>  <r_i_glide_hbond>  (227) 
0

>  <r_i_glide_metal>  (227) 
-0

>  <r_i_glide_rewards>  (227) 
-1.43087

>  <r_i_glide_evdw>  (227) 
-25.4565

>  <r_i_glide_ecoul>  (227) 
-1.5682

>  <r_i_glide_erotb>  (227) 
0.427226

>  <r_i_glide_esite>  (227) 
-0.0145589

>  <r_i_glide_emodel>  (227) 
-30.5538

>  <r_i_glide_energy>  (227) 
-27.0247

>  <r_i_glide_einternal>  (227) 
3.393

>  <r_i_glide_intrahb_reward>  (227) 
-0

>  <i_i_glide_confnum>  (227) 
6

>  <i_i_glide_posenum>  (227) 
4

>  <r_i_glide_eff_state_penalty>  (227) 
0

>  <ligand_id>  (227) 
78

>  <original_smiles>  (227) 
COc1ccc(N2CCc3c(-n4ccnc4)ccnc32)cc1

>  <smiles>  (227) 
[H]c1nc2c(c(-n3c([H])nc([H])c3[H])c1[H])C([H])([H])C([H])([H])N2c1c([H])c([H])c(OC([H])([H])[H])c([H])c1[H]

$$$$
78:0:2
     RDKit          3D

 38 41  0  0  1  0  0  0  0  0999 V2000
   -3.5028    3.0426    8.6316 C   0  0  0  0  0  0  0  0  0  0  0  0
   -2.6105    3.7810    7.8117 O   0  0  0  0  0  0  0  0  0  0  0  0
   -1.9657    3.1124    6.7960 C   0  0  0  0  0  0  0  0  0  0  0  0
   -2.1338    1.7309    6.5318 C   0  0  0  0  0  0  0  0  0  0  0  0
   -1.4378    1.1366    5.4657 C   0  0  0  0  0  0  0  0  0  0  0  0
   -0.5777    1.8951    4.6499 C   0  0  0  0  0  0  0  0  0  0  0  0
    0.1370    1.2342    3.6539 N   0  0  0  0  0  0  0  0  0  0  0  0
    0.4154    1.8744    2.3577 C   0  0  0  0  0  0  0  0  0  0  0  0
    1.5835    1.1141    1.7083 C   0  0  0  0  0  0  0  0  0  0  0  0
    2.0043    0.1802    2.8058 C   0  0  0  0  0  0  0  0  0  0  0  0
    3.0959   -0.7191    2.8711 C   0  0  0  0  0  0  0  0  0  0  0  0
    3.9406   -0.9056    1.7611 N   0  0  0  0  0  0  0  0  0  0  0  0
    3.6430   -0.9877    0.4046 C   0  0  0  0  0  0  0  0  0  0  0  0
    4.8525   -1.1569   -0.2310 C   0  0  0  0  0  0  0  0  0  0  0  0
    5.8849   -1.1952    0.7081 N   0  0  0  0  0  0  0  0  0  0  0  0
    5.2710   -1.0511    1.8834 C   0  0  0  0  0  0  0  0  0  0  0  0
    3.2608   -1.4443    4.0741 C   0  0  0  0  0  0  0  0  0  0  0  0
    2.3351   -1.2267    5.1222 C   0  0  0  0  0  0  0  0  0  0  0  0
    1.2837   -0.3811    5.0380 N   0  0  0  0  0  0  0  0  0  0  0  0
    1.1481    0.2997    3.8824 C   0  0  0  0  0  0  0  0  0  0  0  0
   -0.4111    3.2723    4.9136 C   0  0  0  0  0  0  0  0  0  0  0  0
   -1.0967    3.8717    5.9862 C   0  0  0  0  0  0  0  0  0  0  0  0
   -3.9371    3.7166    9.3684 H   0  0  0  0  0  0  0  0  0  0  0  0
   -2.9821    2.2459    9.1673 H   0  0  0  0  0  0  0  0  0  0  0  0
   -4.3201    2.6178    8.0452 H   0  0  0  0  0  0  0  0  0  0  0  0
   -2.7887    1.1038    7.1224 H   0  0  0  0  0  0  0  0  0  0  0  0
   -1.5317    0.0799    5.2680 H   0  0  0  0  0  0  0  0  0  0  0  0
   -0.4703    1.8247    1.7241 H   0  0  0  0  0  0  0  0  0  0  0  0
    0.6727    2.9265    2.4684 H   0  0  0  0  0  0  0  0  0  0  0  0
    1.2222    0.5598    0.8487 H   0  0  0  0  0  0  0  0  0  0  0  0
    2.4001    1.7695    1.4112 H   0  0  0  0  0  0  0  0  0  0  0  0
    2.6320   -0.9167    0.0230 H   0  0  0  0  0  0  0  0  0  0  0  0
    5.0409   -1.2509   -1.2916 H   0  0  0  0  0  0  0  0  0  0  0  0
    5.7818   -1.0366    2.8349 H   0  0  0  0  0  0  0  0  0  0  0  0
    4.0481   -2.1791    4.2012 H   0  0  0  0  0  0  0  0  0  0  0  0
    2.4105   -1.7649    6.0531 H   0  0  0  0  0  0  0  0  0  0  0  0
    0.2871    3.8611    4.3392 H   0  0  0  0  0  0  0  0  0  0  0  0
   -0.9393    4.9203    6.2047 H   0  0  0  0  0  0  0  0  0  0  0  0
  1  2  1  0
  1 23  1  0
  1 24  1  0
  1 25  1  0
  2  3  1  0
  3 22  2  0
  3  4  1  0
  4  5  2  0
  4 26  1  0
  5  6  1  0
  5 27  1  0
  6  7  1  0
  6 21  2  0
  7 20  1  0
  7  8  1  0
  8  9  1  0
  8 28  1  0
  8 29  1  0
  9 10  1  0
  9 30  1  0
  9 31  1  0
 10 20  2  0
 10 11  1  0
 11 12  1  0
 11 17  2  0
 12 16  1  0
 12 13  1  0
 13 14  2  0
 13 32  1  0
 14 15  1  0
 14 33  1  0
 15 16  2  0
 16 34  1  0
 17 18  1  0
 17 35  1  0
 18 19  2  0
 18 36  1  0
 19 20  1  0
 21 22  1  0
 21 37  1  0
 22 38  1  0
M  END
>  <i_m_ct_stereo_status>  (228) 
1

>  <s_m_source_file>  (228) 
/var/tmp/pbs.5076255.sched01/tmprh8juyh8/78tr4t3sa2.sdf

>  <i_m_source_file_index>  (228) 
20

>  <i_lp_mmshare_version>  (228) 
48012

>  <i_f3d_flags>  (228) 
0

>  <s_epik_input>  (228) 
W0NIM11PYzFbY0hdW2NIXWMoW2NIXVtjSF0xKU4oW0NIMl1bQ0gyXTIpYyhjMjMpbltjSF1bY0hdYzMtbjRbY0hdW2NIXW5bY0hdNA==

>  <s_epik_cmdline>  (228) 
J2VwaWtfcHl0aG9uJywgJy1waHQnLCAnMi4wJywgJy1waCcsICc3LjAnLCAnLXRuJywgJzgnLCAnLW1hJywgJzIwMCcsICctaW1hZScsICc8aW5maWxlLm1hZT4nLCAnLW9tYWUnLCAnPG91dGZpbGUubWFlPic=

>  <r_lp_tautomer_probability>  (228) 
1

>  <r_epik_Ionization_Penalty>  (228) 
0.0272599

>  <r_epik_Ionization_Penalty_Charging>  (228) 
0.0270232

>  <r_epik_Ionization_Penalty_Neutral>  (228) 
0.000236725

>  <r_epik_State_Penalty>  (228) 
0.0220938

>  <r_epik_Charging_Adjusted_Penalty>  (228) 
0.049117

>  <i_epik_Tot_Q>  (228) 
0

>  <i_epik_Tot_abs_Q>  (228) 
0

>  <s_lp_Force_Field>  (228) 
OPLS3e

>  <r_lp_Energy>  (228) 
36.6117

>  <b_lp_Chiralities_Consistent>  (228) 
1

>  <s_lp_Variant>  (228) 
78:0-1

>  <s_i_glide_gridfile>  (228) 
pfpi4k_grid

>  <i_i_glide_lignum>  (228) 
20

>  <i_i_glide_rotatable_bonds>  (228) 
3

>  <r_i_docking_score>  (228) 
-2.62077

>  <r_i_glide_ligand_efficiency>  (228) 
-0.119126

>  <r_i_glide_ligand_efficiency_sa>  (228) 
-0.333795

>  <r_i_glide_ligand_efficiency_ln>  (228) 
-0.640612

>  <r_i_glide_gscore>  (228) 
-2.62077

>  <r_i_glide_lipo>  (228) 
-0.068447

>  <r_i_glide_hbond>  (228) 
0

>  <r_i_glide_metal>  (228) 
-0

>  <r_i_glide_rewards>  (228) 
-1.59375

>  <r_i_glide_evdw>  (228) 
-24.0581

>  <r_i_glide_ecoul>  (228) 
-1.05505

>  <r_i_glide_erotb>  (228) 
0.427226

>  <r_i_glide_esite>  (228) 
-0.0246331

>  <r_i_glide_emodel>  (228) 
-30.034

>  <r_i_glide_energy>  (228) 
-25.1131

>  <r_i_glide_einternal>  (228) 
0.247414

>  <r_i_glide_intrahb_reward>  (228) 
-0

>  <i_i_glide_confnum>  (228) 
1

>  <i_i_glide_posenum>  (228) 
31

>  <r_i_glide_eff_state_penalty>  (228) 
0

>  <ligand_id>  (228) 
78

>  <original_smiles>  (228) 
COc1ccc(N2CCc3c(-n4ccnc4)ccnc32)cc1

>  <smiles>  (228) 
[H]c1nc2c(c(-n3c([H])nc([H])c3[H])c1[H])C([H])([H])C([H])([H])N2c1c([H])c([H])c(OC([H])([H])[H])c([H])c1[H]

$$$$
78:1:0
     RDKit          3D

 39 42  0  0  1  0  0  0  0  0999 V2000
    4.1094   -0.7976   -2.2420 C   0  0  0  0  0  0  0  0  0  0  0  0
    3.9453   -1.0250   -0.8500 O   0  0  0  0  0  0  0  0  0  0  0  0
    3.9547   -2.3304   -0.4276 C   0  0  0  0  0  0  0  0  0  0  0  0
    3.1386   -2.6578    0.6722 C   0  0  0  0  0  0  0  0  0  0  0  0
    3.0847   -3.9874    1.1245 C   0  0  0  0  0  0  0  0  0  0  0  0
    3.8352   -5.0002    0.4833 C   0  0  0  0  0  0  0  0  0  0  0  0
    3.6849   -6.3339    0.8530 N   0  0  0  0  0  0  0  0  0  0  0  0
    4.8183   -7.0630    1.4408 C   0  0  0  0  0  0  0  0  0  0  0  0
    4.2473   -8.2795    2.1957 C   0  0  0  0  0  0  0  0  0  0  0  0
    2.7599   -8.0555    2.0677 C   0  0  0  0  0  0  0  0  0  0  0  0
    1.6692   -8.7665    2.6255 C   0  0  0  0  0  0  0  0  0  0  0  0
    1.8687   -9.9198    3.4035 N   0  0  0  0  0  0  0  0  0  0  0  0
    2.7375  -10.9527    3.1100 C   0  0  0  0  0  0  0  0  0  0  0  0
    2.6419  -11.8552    4.1356 C   0  0  0  0  0  0  0  0  0  0  0  0
    1.6994  -11.3732    4.9984 N   0  0  0  0  0  0  0  0  0  0  0  0
    1.2251  -10.2069    4.5481 C   0  0  0  0  0  0  0  0  0  0  0  0
    0.3693   -8.2708    2.3744 C   0  0  0  0  0  0  0  0  0  0  0  0
    0.2415   -7.1286    1.5519 C   0  0  0  0  0  0  0  0  0  0  0  0
    1.2796   -6.4633    1.0021 N   0  0  0  0  0  0  0  0  0  0  0  0
    2.5097   -6.9397    1.2910 C   0  0  0  0  0  0  0  0  0  0  0  0
    4.6885   -4.6554   -0.5770 C   0  0  0  0  0  0  0  0  0  0  0  0
    4.7513   -3.3301   -1.0331 C   0  0  0  0  0  0  0  0  0  0  0  0
    4.1932    0.2734   -2.4390 H   0  0  0  0  0  0  0  0  0  0  0  0
    3.2364   -1.1970   -2.7660 H   0  0  0  0  0  0  0  0  0  0  0  0
    5.0137   -1.2442   -2.6603 H   0  0  0  0  0  0  0  0  0  0  0  0
    2.5110   -1.9060    1.1452 H   0  0  0  0  0  0  0  0  0  0  0  0
    2.4251   -4.2426    1.9430 H   0  0  0  0  0  0  0  0  0  0  0  0
    5.5140   -7.3814    0.6667 H   0  0  0  0  0  0  0  0  0  0  0  0
    5.3671   -6.4103    2.1174 H   0  0  0  0  0  0  0  0  0  0  0  0
    4.5588   -9.1954    1.6992 H   0  0  0  0  0  0  0  0  0  0  0  0
    4.5649   -8.3044    3.2369 H   0  0  0  0  0  0  0  0  0  0  0  0
    3.3547  -10.9806    2.2144 H   0  0  0  0  0  0  0  0  0  0  0  0
    3.1633  -12.7940    4.2892 H   0  0  0  0  0  0  0  0  0  0  0  0
    0.4786   -9.5960    5.0325 H   0  0  0  0  0  0  0  0  0  0  0  0
   -0.5175   -8.7615    2.7507 H   0  0  0  0  0  0  0  0  0  0  0  0
   -0.7234   -6.7113    1.3234 H   0  0  0  0  0  0  0  0  0  0  0  0
    5.2419   -5.4248   -1.0849 H   0  0  0  0  0  0  0  0  0  0  0  0
    5.3955   -3.1354   -1.8740 H   0  0  0  0  0  0  0  0  0  0  0  0
    1.4264  -11.8158    5.8787 H   0  0  0  0  0  0  0  0  0  0  0  0
  1  2  1  0
  1 23  1  0
  1 24  1  0
  1 25  1  0
  2  3  1  0
  3 22  2  0
  3  4  1  0
  4  5  2  0
  4 26  1  0
  5  6  1  0
  5 27  1  0
  6  7  1  0
  6 21  2  0
  7 20  1  0
  7  8  1  0
  8  9  1  0
  8 28  1  0
  8 29  1  0
  9 10  1  0
  9 30  1  0
  9 31  1  0
 10 20  2  0
 10 11  1  0
 11 12  1  0
 11 17  2  0
 12 16  1  0
 12 13  1  0
 13 14  2  0
 13 32  1  0
 14 15  1  0
 14 33  1  0
 15 16  2  0
 15 39  1  0
 16 34  1  0
 17 18  1  0
 17 35  1  0
 18 19  2  0
 18 36  1  0
 19 20  1  0
 21 22  1  0
 21 37  1  0
 22 38  1  0
M  CHG  1  15   1
M  END
>  <i_m_ct_stereo_status>  (229) 
1

>  <s_m_source_file>  (229) 
/var/tmp/pbs.5076255.sched01/tmprh8juyh8/78tr4t3sa2.sdf

>  <i_m_source_file_index>  (229) 
21

>  <i_lp_mmshare_version>  (229) 
48012

>  <i_f3d_flags>  (229) 
0

>  <s_epik_input>  (229) 
W0NIM11PYzFbY0hdW2NIXWMoW2NIXVtjSF0xKU4oW0NIMl1bQ0gyXTIpYyhjMjMpbltjSF1bY0hdYzMtbjRbY0hdW2NIXW5bY0hdNA==

>  <s_epik_cmdline>  (229) 
J2VwaWtfcHl0aG9uJywgJy1waHQnLCAnMi4wJywgJy1waCcsICc3LjAnLCAnLXRuJywgJzgnLCAnLW1hJywgJzIwMCcsICctaW1hZScsICc8aW5maWxlLm1hZT4nLCAnLW9tYWUnLCAnPG91dGZpbGUubWFlPic=

>  <r_lp_tautomer_probability>  (229) 
1

>  <r_epik_Ionization_Penalty>  (229) 
1.84293

>  <r_epik_Ionization_Penalty_Charging>  (229) 
0

>  <r_epik_Ionization_Penalty_Neutral>  (229) 
1.84293

>  <r_epik_State_Penalty>  (229) 
1.95971

>  <r_epik_Charging_Adjusted_Penalty>  (229) 
1.95971

>  <i_epik_Tot_Q>  (229) 
1

>  <i_epik_Tot_abs_Q>  (229) 
1

>  <s_lp_Force_Field>  (229) 
OPLS3e

>  <r_lp_Energy>  (229) 
43.9166

>  <b_lp_Chiralities_Consistent>  (229) 
1

>  <s_lp_Variant>  (229) 
78:0-2

>  <s_i_glide_gridfile>  (229) 
pfpi4k_grid

>  <i_i_glide_lignum>  (229) 
21

>  <i_i_glide_rotatable_bonds>  (229) 
3

>  <r_i_docking_score>  (229) 
-3.85792

>  <r_i_glide_ligand_efficiency>  (229) 
-0.17536

>  <r_i_glide_ligand_efficiency_sa>  (229) 
-0.491366

>  <r_i_glide_ligand_efficiency_ln>  (229) 
-0.943017

>  <r_i_glide_gscore>  (229) 
-3.85792

>  <r_i_glide_lipo>  (229) 
-0.132432

>  <r_i_glide_hbond>  (229) 
-0.260395

>  <r_i_glide_metal>  (229) 
-0

>  <r_i_glide_rewards>  (229) 
-1.51806

>  <r_i_glide_evdw>  (229) 
-25.0776

>  <r_i_glide_ecoul>  (229) 
-6.72863

>  <r_i_glide_erotb>  (229) 
0.424667

>  <r_i_glide_esite>  (229) 
-0.108534

>  <r_i_glide_emodel>  (229) 
-39.7829

>  <r_i_glide_energy>  (229) 
-31.8062

>  <r_i_glide_einternal>  (229) 
6.05635

>  <r_i_glide_intrahb_reward>  (229) 
-0

>  <i_i_glide_confnum>  (229) 
3

>  <i_i_glide_posenum>  (229) 
33

>  <r_i_glide_eff_state_penalty>  (229) 
0

>  <ligand_id>  (229) 
78

>  <original_smiles>  (229) 
COc1ccc(N2CCc3c(-n4ccnc4)ccnc32)cc1

>  <smiles>  (229) 
[H]c1nc2c(c(-n3c([H])c([H])[n+]([H])c3[H])c1[H])C([H])([H])C([H])([H])N2c1c([H])c([H])c(OC([H])([H])[H])c([H])c1[H]

$$$$
78:1:1
     RDKit          3D

 39 42  0  0  1  0  0  0  0  0999 V2000
    3.9371   -0.7002   -1.6658 C   0  0  0  0  0  0  0  0  0  0  0  0
    4.7100   -1.8837   -1.7908 O   0  0  0  0  0  0  0  0  0  0  0  0
    4.3956   -2.9351   -0.9633 C   0  0  0  0  0  0  0  0  0  0  0  0
    3.3350   -2.9198   -0.0215 C   0  0  0  0  0  0  0  0  0  0  0  0
    3.0948   -4.0528    0.7740 C   0  0  0  0  0  0  0  0  0  0  0  0
    3.8792   -5.2168    0.6382 C   0  0  0  0  0  0  0  0  0  0  0  0
    3.5510   -6.3833    1.3418 N   0  0  0  0  0  0  0  0  0  0  0  0
    4.4241   -6.8604    2.4242 C   0  0  0  0  0  0  0  0  0  0  0  0
    3.5875   -7.7859    3.3425 C   0  0  0  0  0  0  0  0  0  0  0  0
    2.2159   -7.6472    2.7422 C   0  0  0  0  0  0  0  0  0  0  0  0
    0.9737   -8.1763    3.1560 C   0  0  0  0  0  0  0  0  0  0  0  0
    0.8729   -9.0001    4.2845 N   0  0  0  0  0  0  0  0  0  0  0  0
    0.0787   -8.7275    5.3707 C   0  0  0  0  0  0  0  0  0  0  0  0
    0.2371   -9.7648    6.2533 C   0  0  0  0  0  0  0  0  0  0  0  0
    1.1241  -10.6292    5.6750 N   0  0  0  0  0  0  0  0  0  0  0  0
    1.5037  -10.1742    4.4809 C   0  0  0  0  0  0  0  0  0  0  0  0
   -0.1773   -7.8142    2.4173 C   0  0  0  0  0  0  0  0  0  0  0  0
    0.0047   -6.9880    1.2907 C   0  0  0  0  0  0  0  0  0  0  0  0
    1.1885   -6.4805    0.8912 N   0  0  0  0  0  0  0  0  0  0  0  0
    2.2650   -6.8325    1.6224 C   0  0  0  0  0  0  0  0  0  0  0  0
    4.9461   -5.2171   -0.2772 C   0  0  0  0  0  0  0  0  0  0  0  0
    5.1932   -4.0889   -1.0808 C   0  0  0  0  0  0  0  0  0  0  0  0
    4.3133    0.0454   -2.3611 H   0  0  0  0  0  0  0  0  0  0  0  0
    4.0126   -0.2957   -0.6537 H   0  0  0  0  0  0  0  0  0  0  0  0
    2.8916   -0.8931   -1.9131 H   0  0  0  0  0  0  0  0  0  0  0  0
    2.6701   -2.0711    0.0965 H   0  0  0  0  0  0  0  0  0  0  0  0
    2.2710   -4.0466    1.4694 H   0  0  0  0  0  0  0  0  0  0  0  0
    5.2869   -7.3899    2.0215 H   0  0  0  0  0  0  0  0  0  0  0  0
    4.8071   -6.0083    2.9859 H   0  0  0  0  0  0  0  0  0  0  0  0
    3.9254   -8.8163    3.2811 H   0  0  0  0  0  0  0  0  0  0  0  0
    3.6049   -7.4589    4.3794 H   0  0  0  0  0  0  0  0  0  0  0  0
   -0.5327   -7.8300    5.4356 H   0  0  0  0  0  0  0  0  0  0  0  0
   -0.1995   -9.9625    7.2211 H   0  0  0  0  0  0  0  0  0  0  0  0
    2.1904  -10.6366    3.7888 H   0  0  0  0  0  0  0  0  0  0  0  0
   -1.1648   -8.1703    2.6824 H   0  0  0  0  0  0  0  0  0  0  0  0
   -0.8232   -6.6605    0.6912 H   0  0  0  0  0  0  0  0  0  0  0  0
    5.5163   -6.1239   -0.4035 H   0  0  0  0  0  0  0  0  0  0  0  0
    5.9697   -4.1153   -1.8311 H   0  0  0  0  0  0  0  0  0  0  0  0
    1.4173  -11.4799    6.1728 H   0  0  0  0  0  0  0  0  0  0  0  0
  1  2  1  0
  1 23  1  0
  1 24  1  0
  1 25  1  0
  2  3  1  0
  3 22  2  0
  3  4  1  0
  4  5  2  0
  4 26  1  0
  5  6  1  0
  5 27  1  0
  6  7  1  0
  6 21  2  0
  7 20  1  0
  7  8  1  0
  8  9  1  0
  8 28  1  0
  8 29  1  0
  9 10  1  0
  9 30  1  0
  9 31  1  0
 10 20  2  0
 10 11  1  0
 11 12  1  0
 11 17  2  0
 12 16  1  0
 12 13  1  0
 13 14  2  0
 13 32  1  0
 14 15  1  0
 14 33  1  0
 15 16  2  0
 15 39  1  0
 16 34  1  0
 17 18  1  0
 17 35  1  0
 18 19  2  0
 18 36  1  0
 19 20  1  0
 21 22  1  0
 21 37  1  0
 22 38  1  0
M  CHG  1  15   1
M  END
>  <i_m_ct_stereo_status>  (230) 
1

>  <s_m_source_file>  (230) 
/var/tmp/pbs.5076255.sched01/tmprh8juyh8/78tr4t3sa2.sdf

>  <i_m_source_file_index>  (230) 
21

>  <i_lp_mmshare_version>  (230) 
48012

>  <i_f3d_flags>  (230) 
0

>  <s_epik_input>  (230) 
W0NIM11PYzFbY0hdW2NIXWMoW2NIXVtjSF0xKU4oW0NIMl1bQ0gyXTIpYyhjMjMpbltjSF1bY0hdYzMtbjRbY0hdW2NIXW5bY0hdNA==

>  <s_epik_cmdline>  (230) 
J2VwaWtfcHl0aG9uJywgJy1waHQnLCAnMi4wJywgJy1waCcsICc3LjAnLCAnLXRuJywgJzgnLCAnLW1hJywgJzIwMCcsICctaW1hZScsICc8aW5maWxlLm1hZT4nLCAnLW9tYWUnLCAnPG91dGZpbGUubWFlPic=

>  <r_lp_tautomer_probability>  (230) 
1

>  <r_epik_Ionization_Penalty>  (230) 
1.84293

>  <r_epik_Ionization_Penalty_Charging>  (230) 
0

>  <r_epik_Ionization_Penalty_Neutral>  (230) 
1.84293

>  <r_epik_State_Penalty>  (230) 
1.95971

>  <r_epik_Charging_Adjusted_Penalty>  (230) 
1.95971

>  <i_epik_Tot_Q>  (230) 
1

>  <i_epik_Tot_abs_Q>  (230) 
1

>  <s_lp_Force_Field>  (230) 
OPLS3e

>  <r_lp_Energy>  (230) 
43.9166

>  <b_lp_Chiralities_Consistent>  (230) 
1

>  <s_lp_Variant>  (230) 
78:0-2

>  <s_i_glide_gridfile>  (230) 
pfpi4k_grid

>  <i_i_glide_lignum>  (230) 
21

>  <i_i_glide_rotatable_bonds>  (230) 
3

>  <r_i_docking_score>  (230) 
-3.56198

>  <r_i_glide_ligand_efficiency>  (230) 
-0.161908

>  <r_i_glide_ligand_efficiency_sa>  (230) 
-0.453674

>  <r_i_glide_ligand_efficiency_ln>  (230) 
-0.870679

>  <r_i_glide_gscore>  (230) 
-3.56198

>  <r_i_glide_lipo>  (230) 
-0.0218302

>  <r_i_glide_hbond>  (230) 
-0.260432

>  <r_i_glide_metal>  (230) 
-0

>  <r_i_glide_rewards>  (230) 
-1.48907

>  <r_i_glide_evdw>  (230) 
-22.4923

>  <r_i_glide_ecoul>  (230) 
-6.27139

>  <r_i_glide_erotb>  (230) 
0.424667

>  <r_i_glide_esite>  (230) 
-0.149998

>  <r_i_glide_emodel>  (230) 
-37.9952

>  <r_i_glide_energy>  (230) 
-28.7637

>  <r_i_glide_einternal>  (230) 
1.9905

>  <r_i_glide_intrahb_reward>  (230) 
-0

>  <i_i_glide_confnum>  (230) 
3

>  <i_i_glide_posenum>  (230) 
2

>  <r_i_glide_eff_state_penalty>  (230) 
0

>  <ligand_id>  (230) 
78

>  <original_smiles>  (230) 
COc1ccc(N2CCc3c(-n4ccnc4)ccnc32)cc1

>  <smiles>  (230) 
[H]c1nc2c(c(-n3c([H])c([H])[n+]([H])c3[H])c1[H])C([H])([H])C([H])([H])N2c1c([H])c([H])c(OC([H])([H])[H])c([H])c1[H]

$$$$
78:1:2
     RDKit          3D

 39 42  0  0  1  0  0  0  0  0999 V2000
    0.8589    1.3010    2.0896 C   0  0  0  0  0  0  0  0  0  0  0  0
    0.2445    0.6629    3.1952 O   0  0  0  0  0  0  0  0  0  0  0  0
    0.6075   -0.6316    3.4627 C   0  0  0  0  0  0  0  0  0  0  0  0
    1.5885   -1.3425    2.7326 C   0  0  0  0  0  0  0  0  0  0  0  0
    1.8908   -2.6695    3.0822 C   0  0  0  0  0  0  0  0  0  0  0  0
    1.2060   -3.3106    4.1344 C   0  0  0  0  0  0  0  0  0  0  0  0
    1.4728   -4.6607    4.3971 N   0  0  0  0  0  0  0  0  0  0  0  0
    1.2743   -5.2419    5.7364 C   0  0  0  0  0  0  0  0  0  0  0  0
    1.3045   -6.7598    5.5827 C   0  0  0  0  0  0  0  0  0  0  0  0
    1.3717   -6.9527    4.0925 C   0  0  0  0  0  0  0  0  0  0  0  0
    1.3226   -8.1339    3.3059 C   0  0  0  0  0  0  0  0  0  0  0  0
    1.2164   -9.4310    3.8827 N   0  0  0  0  0  0  0  0  0  0  0  0
    0.7748  -10.5564    3.2106 C   0  0  0  0  0  0  0  0  0  0  0  0
    0.8286  -11.6078    4.0873 C   0  0  0  0  0  0  0  0  0  0  0  0
    1.2687  -11.0926    5.2830 N   0  0  0  0  0  0  0  0  0  0  0  0
    1.5287   -9.7909    5.1452 C   0  0  0  0  0  0  0  0  0  0  0  0
    1.3718   -7.9476    1.8934 C   0  0  0  0  0  0  0  0  0  0  0  0
    1.4511   -6.6379    1.3818 C   0  0  0  0  0  0  0  0  0  0  0  0
    1.4790   -5.5270    2.1369 N   0  0  0  0  0  0  0  0  0  0  0  0
    1.4658   -5.7130    3.4756 C   0  0  0  0  0  0  0  0  0  0  0  0
    0.2252   -2.5983    4.8549 C   0  0  0  0  0  0  0  0  0  0  0  0
   -0.0683   -1.2679    4.5196 C   0  0  0  0  0  0  0  0  0  0  0  0
    0.4889    2.3242    2.0440 H   0  0  0  0  0  0  0  0  0  0  0  0
    0.6023    0.7962    1.1566 H   0  0  0  0  0  0  0  0  0  0  0  0
    1.9454    1.3393    2.1948 H   0  0  0  0  0  0  0  0  0  0  0  0
    2.1090   -0.9209    1.8808 H   0  0  0  0  0  0  0  0  0  0  0  0
    2.6307   -3.2091    2.5126 H   0  0  0  0  0  0  0  0  0  0  0  0
    2.0784   -4.9232    6.3988 H   0  0  0  0  0  0  0  0  0  0  0  0
    0.3334   -4.9526    6.1954 H   0  0  0  0  0  0  0  0  0  0  0  0
    2.2023   -7.1208    6.0780 H   0  0  0  0  0  0  0  0  0  0  0  0
    0.4104   -7.2173    6.0080 H   0  0  0  0  0  0  0  0  0  0  0  0
    0.4579  -10.5351    2.1634 H   0  0  0  0  0  0  0  0  0  0  0  0
    0.5764  -12.6522    3.9475 H   0  0  0  0  0  0  0  0  0  0  0  0
    1.9194   -9.1898    5.9431 H   0  0  0  0  0  0  0  0  0  0  0  0
    1.3601   -8.7709    1.2004 H   0  0  0  0  0  0  0  0  0  0  0  0
    1.4834   -6.4654    0.3148 H   0  0  0  0  0  0  0  0  0  0  0  0
   -0.3438   -3.0732    5.6335 H   0  0  0  0  0  0  0  0  0  0  0  0
   -0.8431   -0.7454    5.0580 H   0  0  0  0  0  0  0  0  0  0  0  0
    1.3861  -11.6075    6.1651 H   0  0  0  0  0  0  0  0  0  0  0  0
  1  2  1  0
  1 23  1  0
  1 24  1  0
  1 25  1  0
  2  3  1  0
  3 22  2  0
  3  4  1  0
  4  5  2  0
  4 26  1  0
  5  6  1  0
  5 27  1  0
  6  7  1  0
  6 21  2  0
  7 20  1  0
  7  8  1  0
  8  9  1  0
  8 28  1  0
  8 29  1  0
  9 10  1  0
  9 30  1  0
  9 31  1  0
 10 20  2  0
 10 11  1  0
 11 12  1  0
 11 17  2  0
 12 16  1  0
 12 13  1  0
 13 14  2  0
 13 32  1  0
 14 15  1  0
 14 33  1  0
 15 16  2  0
 15 39  1  0
 16 34  1  0
 17 18  1  0
 17 35  1  0
 18 19  2  0
 18 36  1  0
 19 20  1  0
 21 22  1  0
 21 37  1  0
 22 38  1  0
M  CHG  1  15   1
M  END
>  <i_m_ct_stereo_status>  (231) 
1

>  <s_m_source_file>  (231) 
/var/tmp/pbs.5076255.sched01/tmprh8juyh8/78tr4t3sa2.sdf

>  <i_m_source_file_index>  (231) 
21

>  <i_lp_mmshare_version>  (231) 
48012

>  <i_f3d_flags>  (231) 
0

>  <s_epik_input>  (231) 
W0NIM11PYzFbY0hdW2NIXWMoW2NIXVtjSF0xKU4oW0NIMl1bQ0gyXTIpYyhjMjMpbltjSF1bY0hdYzMtbjRbY0hdW2NIXW5bY0hdNA==

>  <s_epik_cmdline>  (231) 
J2VwaWtfcHl0aG9uJywgJy1waHQnLCAnMi4wJywgJy1waCcsICc3LjAnLCAnLXRuJywgJzgnLCAnLW1hJywgJzIwMCcsICctaW1hZScsICc8aW5maWxlLm1hZT4nLCAnLW9tYWUnLCAnPG91dGZpbGUubWFlPic=

>  <r_lp_tautomer_probability>  (231) 
1

>  <r_epik_Ionization_Penalty>  (231) 
1.84293

>  <r_epik_Ionization_Penalty_Charging>  (231) 
0

>  <r_epik_Ionization_Penalty_Neutral>  (231) 
1.84293

>  <r_epik_State_Penalty>  (231) 
1.95971

>  <r_epik_Charging_Adjusted_Penalty>  (231) 
1.95971

>  <i_epik_Tot_Q>  (231) 
1

>  <i_epik_Tot_abs_Q>  (231) 
1

>  <s_lp_Force_Field>  (231) 
OPLS3e

>  <r_lp_Energy>  (231) 
43.9166

>  <b_lp_Chiralities_Consistent>  (231) 
1

>  <s_lp_Variant>  (231) 
78:0-2

>  <s_i_glide_gridfile>  (231) 
pfpi4k_grid

>  <i_i_glide_lignum>  (231) 
21

>  <i_i_glide_rotatable_bonds>  (231) 
3

>  <r_i_docking_score>  (231) 
-3.45569

>  <r_i_glide_ligand_efficiency>  (231) 
-0.157077

>  <r_i_glide_ligand_efficiency_sa>  (231) 
-0.440135

>  <r_i_glide_ligand_efficiency_ln>  (231) 
-0.844697

>  <r_i_glide_gscore>  (231) 
-3.45569

>  <r_i_glide_lipo>  (231) 
-0.17182

>  <r_i_glide_hbond>  (231) 
-0.234975

>  <r_i_glide_metal>  (231) 
-0

>  <r_i_glide_rewards>  (231) 
-1.40902

>  <r_i_glide_evdw>  (231) 
-20.4384

>  <r_i_glide_ecoul>  (231) 
-5.92103

>  <r_i_glide_erotb>  (231) 
0.424667

>  <r_i_glide_esite>  (231) 
-0.154463

>  <r_i_glide_emodel>  (231) 
-35.7265

>  <r_i_glide_energy>  (231) 
-26.3594

>  <r_i_glide_einternal>  (231) 
0.978153

>  <r_i_glide_intrahb_reward>  (231) 
-0

>  <i_i_glide_confnum>  (231) 
1

>  <i_i_glide_posenum>  (231) 
35

>  <r_i_glide_eff_state_penalty>  (231) 
0

>  <ligand_id>  (231) 
78

>  <original_smiles>  (231) 
COc1ccc(N2CCc3c(-n4ccnc4)ccnc32)cc1

>  <smiles>  (231) 
[H]c1nc2c(c(-n3c([H])c([H])[n+]([H])c3[H])c1[H])C([H])([H])C([H])([H])N2c1c([H])c([H])c(OC([H])([H])[H])c([H])c1[H]

$$$$
79:0:0
     RDKit          3D

 23 25  0  0  1  0  0  0  0  0999 V2000
   -1.0616   -8.0210    2.5174 C   0  0  0  0  0  0  0  0  0  0  0  0
   -0.1837   -7.3968    1.6188 C   0  0  0  0  0  0  0  0  0  0  0  0
    0.6547   -6.4055    1.9828 N   0  0  0  0  0  0  0  0  0  0  0  0
    0.7054   -6.0590    3.2929 C   0  0  0  0  0  0  0  0  0  0  0  0
   -0.1317   -6.6153    4.2762 C   0  0  0  0  0  0  0  0  0  0  0  0
   -0.0582   -6.1680    5.5919 O   0  0  0  0  0  0  0  0  0  0  0  0
    0.2428   -7.0408    6.6133 C   0  0  0  0  0  0  0  0  0  0  0  0
    0.5051   -8.3434    6.3119 N   0  0  0  0  0  0  0  0  0  0  0  0
    0.7455   -9.1978    7.3356 C   0  0  0  0  0  0  0  0  0  0  0  0
    0.7696   -8.9120    8.6667 N   0  0  0  0  0  0  0  0  0  0  0  0
    0.5223   -7.6234    8.9098 N   0  0  0  0  0  0  0  0  0  0  0  0
    0.4731   -7.0313   10.1410 N   0  0  0  0  0  0  0  0  0  0  0  0
    0.2111   -5.7267    9.9271 C   0  0  0  0  0  0  0  0  0  0  0  0
    0.0238   -5.3845    8.5446 C   0  0  0  0  0  0  0  0  0  0  0  0
    0.2563   -6.6474    7.9750 C   0  0  0  0  0  0  0  0  0  0  0  0
   -1.0446   -7.6151    3.8691 C   0  0  0  0  0  0  0  0  0  0  0  0
   -1.7258   -8.8023    2.1751 H   0  0  0  0  0  0  0  0  0  0  0  0
   -0.1574   -7.6748    0.5735 H   0  0  0  0  0  0  0  0  0  0  0  0
    1.4086   -5.2768    3.5339 H   0  0  0  0  0  0  0  0  0  0  0  0
    0.9277  -10.2273    7.0398 H   0  0  0  0  0  0  0  0  0  0  0  0
    0.1583   -5.0963   10.8012 H   0  0  0  0  0  0  0  0  0  0  0  0
   -0.2111   -4.5082    7.9636 H   0  0  0  0  0  0  0  0  0  0  0  0
   -1.7186   -8.0797    4.5715 H   0  0  0  0  0  0  0  0  0  0  0  0
  1 16  2  0
  1  2  1  0
  1 17  1  0
  2  3  2  0
  2 18  1  0
  3  4  1  0
  4  5  2  0
  4 19  1  0
  5  6  1  0
  5 16  1  0
  6  7  1  0
  7 15  1  0
  7  8  2  0
  8  9  1  0
  9 10  2  0
  9 20  1  0
 10 11  1  0
 11 15  1  0
 11 12  1  0
 12 13  2  0
 13 14  1  0
 13 21  1  0
 14 15  2  0
 14 22  1  0
 16 23  1  0
M  END
>  <i_m_ct_stereo_status>  (232) 
1

>  <s_m_source_file>  (232) 
/var/tmp/pbs.5076255.sched01/tmprh8juyh8/78tr4t3sa2.sdf

>  <i_m_source_file_index>  (232) 
22

>  <i_lp_mmshare_version>  (232) 
48012

>  <i_f3d_flags>  (232) 
0

>  <s_epik_input>  (232) 
W2NIXTFbY0hdW2NIXW5bY0hdYzFPYyhuW2NIXW4yKWMobjIzKVtjSF1bY0hdbjM=

>  <s_epik_cmdline>  (232) 
J2VwaWtfcHl0aG9uJywgJy1waHQnLCAnMi4wJywgJy1waCcsICc3LjAnLCAnLXRuJywgJzgnLCAnLW1hJywgJzIwMCcsICctaW1hZScsICc8aW5maWxlLm1hZT4nLCAnLW9tYWUnLCAnPG91dGZpbGUubWFlPic=

>  <r_lp_tautomer_probability>  (232) 
1

>  <r_epik_Ionization_Penalty>  (232) 
0.00183133

>  <r_epik_Ionization_Penalty_Charging>  (232) 
0

>  <r_epik_Ionization_Penalty_Neutral>  (232) 
0.00183133

>  <r_epik_State_Penalty>  (232) 
0.00124351

>  <r_epik_Charging_Adjusted_Penalty>  (232) 
0.00124351

>  <i_epik_Tot_Q>  (232) 
0

>  <i_epik_Tot_abs_Q>  (232) 
0

>  <s_lp_Force_Field>  (232) 
OPLS3e

>  <r_lp_Energy>  (232) 
26.4849

>  <b_lp_Chiralities_Consistent>  (232) 
1

>  <s_lp_Variant>  (232) 
79:0-1

>  <s_i_glide_gridfile>  (232) 
pfpi4k_grid

>  <i_i_glide_lignum>  (232) 
22

>  <i_i_glide_rotatable_bonds>  (232) 
2

>  <r_i_docking_score>  (232) 
-3.05656

>  <r_i_glide_ligand_efficiency>  (232) 
-0.191035

>  <r_i_glide_ligand_efficiency_sa>  (232) 
-0.481378

>  <r_i_glide_ligand_efficiency_ln>  (232) 
-0.810202

>  <r_i_glide_gscore>  (232) 
-3.05656

>  <r_i_glide_lipo>  (232) 
0

>  <r_i_glide_hbond>  (232) 
-0.188764

>  <r_i_glide_metal>  (232) 
-0

>  <r_i_glide_rewards>  (232) 
-1.95549

>  <r_i_glide_evdw>  (232) 
-17.2106

>  <r_i_glide_ecoul>  (232) 
-4.48337

>  <r_i_glide_erotb>  (232) 
0.733842

>  <r_i_glide_esite>  (232) 
-0.113118

>  <r_i_glide_emodel>  (232) 
-26.1135

>  <r_i_glide_energy>  (232) 
-21.6939

>  <r_i_glide_einternal>  (232) 
0.590516

>  <r_i_glide_intrahb_reward>  (232) 
-0

>  <i_i_glide_confnum>  (232) 
6

>  <i_i_glide_posenum>  (232) 
12

>  <r_i_glide_eff_state_penalty>  (232) 
0

>  <ligand_id>  (232) 
79

>  <original_smiles>  (232) 
c1cncc(Oc2ncnn3nccc23)c1

>  <smiles>  (232) 
[H]c1nc(Oc2c([H])nc([H])c([H])c2[H])c2c([H])c([H])nn2n1

$$$$
79:0:1
     RDKit          3D

 23 25  0  0  1  0  0  0  0  0999 V2000
    0.5825   -5.3706    9.8360 C   0  0  0  0  0  0  0  0  0  0  0  0
   -0.2623   -4.2457    9.8754 C   0  0  0  0  0  0  0  0  0  0  0  0
   -1.0353   -3.8783    8.8257 N   0  0  0  0  0  0  0  0  0  0  0  0
   -0.9900   -4.6410    7.7071 C   0  0  0  0  0  0  0  0  0  0  0  0
   -0.1730   -5.7853    7.5660 C   0  0  0  0  0  0  0  0  0  0  0  0
   -0.1846   -6.5586    6.4130 O   0  0  0  0  0  0  0  0  0  0  0  0
    0.3418   -6.0737    5.2339 C   0  0  0  0  0  0  0  0  0  0  0  0
    1.1710   -5.0024    5.2960 N   0  0  0  0  0  0  0  0  0  0  0  0
    1.7022   -4.5563    4.1330 C   0  0  0  0  0  0  0  0  0  0  0  0
    1.4951   -5.0374    2.8783 N   0  0  0  0  0  0  0  0  0  0  0  0
    0.6521   -6.0754    2.8684 N   0  0  0  0  0  0  0  0  0  0  0  0
    0.1930   -6.7366    1.7667 N   0  0  0  0  0  0  0  0  0  0  0  0
   -0.5997   -7.7306    2.2242 C   0  0  0  0  0  0  0  0  0  0  0  0
   -0.7873   -7.7318    3.6484 C   0  0  0  0  0  0  0  0  0  0  0  0
    0.0543   -6.6508    3.9715 C   0  0  0  0  0  0  0  0  0  0  0  0
    0.6315   -6.1457    8.6637 C   0  0  0  0  0  0  0  0  0  0  0  0
    1.1864   -5.6212   10.7006 H   0  0  0  0  0  0  0  0  0  0  0  0
   -0.3180   -3.6222   10.7563 H   0  0  0  0  0  0  0  0  0  0  0  0
   -1.6474   -4.3231    6.9127 H   0  0  0  0  0  0  0  0  0  0  0  0
    2.3722   -3.7079    4.2127 H   0  0  0  0  0  0  0  0  0  0  0  0
   -1.0223   -8.3941    1.4827 H   0  0  0  0  0  0  0  0  0  0  0  0
   -1.3407   -8.3067    4.3859 H   0  0  0  0  0  0  0  0  0  0  0  0
    1.2692   -7.0207    8.6140 H   0  0  0  0  0  0  0  0  0  0  0  0
  1 16  2  0
  1  2  1  0
  1 17  1  0
  2  3  2  0
  2 18  1  0
  3  4  1  0
  4  5  2  0
  4 19  1  0
  5  6  1  0
  5 16  1  0
  6  7  1  0
  7 15  1  0
  7  8  2  0
  8  9  1  0
  9 10  2  0
  9 20  1  0
 10 11  1  0
 11 15  1  0
 11 12  1  0
 12 13  2  0
 13 14  1  0
 13 21  1  0
 14 15  2  0
 14 22  1  0
 16 23  1  0
M  END
>  <i_m_ct_stereo_status>  (233) 
1

>  <s_m_source_file>  (233) 
/var/tmp/pbs.5076255.sched01/tmprh8juyh8/78tr4t3sa2.sdf

>  <i_m_source_file_index>  (233) 
22

>  <i_lp_mmshare_version>  (233) 
48012

>  <i_f3d_flags>  (233) 
0

>  <s_epik_input>  (233) 
W2NIXTFbY0hdW2NIXW5bY0hdYzFPYyhuW2NIXW4yKWMobjIzKVtjSF1bY0hdbjM=

>  <s_epik_cmdline>  (233) 
J2VwaWtfcHl0aG9uJywgJy1waHQnLCAnMi4wJywgJy1waCcsICc3LjAnLCAnLXRuJywgJzgnLCAnLW1hJywgJzIwMCcsICctaW1hZScsICc8aW5maWxlLm1hZT4nLCAnLW9tYWUnLCAnPG91dGZpbGUubWFlPic=

>  <r_lp_tautomer_probability>  (233) 
1

>  <r_epik_Ionization_Penalty>  (233) 
0.00183133

>  <r_epik_Ionization_Penalty_Charging>  (233) 
0

>  <r_epik_Ionization_Penalty_Neutral>  (233) 
0.00183133

>  <r_epik_State_Penalty>  (233) 
0.00124351

>  <r_epik_Charging_Adjusted_Penalty>  (233) 
0.00124351

>  <i_epik_Tot_Q>  (233) 
0

>  <i_epik_Tot_abs_Q>  (233) 
0

>  <s_lp_Force_Field>  (233) 
OPLS3e

>  <r_lp_Energy>  (233) 
26.4849

>  <b_lp_Chiralities_Consistent>  (233) 
1

>  <s_lp_Variant>  (233) 
79:0-1

>  <s_i_glide_gridfile>  (233) 
pfpi4k_grid

>  <i_i_glide_lignum>  (233) 
22

>  <i_i_glide_rotatable_bonds>  (233) 
2

>  <r_i_docking_score>  (233) 
-2.91432

>  <r_i_glide_ligand_efficiency>  (233) 
-0.182145

>  <r_i_glide_ligand_efficiency_sa>  (233) 
-0.458976

>  <r_i_glide_ligand_efficiency_ln>  (233) 
-0.772498

>  <r_i_glide_gscore>  (233) 
-2.91432

>  <r_i_glide_lipo>  (233) 
-0.00723551

>  <r_i_glide_hbond>  (233) 
-0.135036

>  <r_i_glide_metal>  (233) 
-0

>  <r_i_glide_rewards>  (233) 
-1.95549

>  <r_i_glide_evdw>  (233) 
-15.792

>  <r_i_glide_ecoul>  (233) 
-4.65363

>  <r_i_glide_erotb>  (233) 
0.733842

>  <r_i_glide_esite>  (233) 
-0.062761

>  <r_i_glide_emodel>  (233) 
-24.912

>  <r_i_glide_energy>  (233) 
-20.4456

>  <r_i_glide_einternal>  (233) 
0.284636

>  <r_i_glide_intrahb_reward>  (233) 
-0

>  <i_i_glide_confnum>  (233) 
1

>  <i_i_glide_posenum>  (233) 
23

>  <r_i_glide_eff_state_penalty>  (233) 
0

>  <ligand_id>  (233) 
79

>  <original_smiles>  (233) 
c1cncc(Oc2ncnn3nccc23)c1

>  <smiles>  (233) 
[H]c1nc(Oc2c([H])nc([H])c([H])c2[H])c2c([H])c([H])nn2n1

$$$$
79:0:2
     RDKit          3D

 23 25  0  0  1  0  0  0  0  0999 V2000
   -0.3490   -3.4130    6.9737 C   0  0  0  0  0  0  0  0  0  0  0  0
    0.5989   -3.0783    7.9578 C   0  0  0  0  0  0  0  0  0  0  0  0
    1.1392   -1.8476    8.0576 N   0  0  0  0  0  0  0  0  0  0  0  0
    0.7755   -0.9051    7.1570 C   0  0  0  0  0  0  0  0  0  0  0  0
   -0.1585   -1.1347    6.1258 C   0  0  0  0  0  0  0  0  0  0  0  0
   -0.4870   -0.1580    5.2047 O   0  0  0  0  0  0  0  0  0  0  0  0
   -1.1901    0.9668    5.6071 C   0  0  0  0  0  0  0  0  0  0  0  0
   -1.7954    0.9534    6.8281 N   0  0  0  0  0  0  0  0  0  0  0  0
   -2.4600    2.0897    7.2001 C   0  0  0  0  0  0  0  0  0  0  0  0
   -2.6177    3.2292    6.4874 N   0  0  0  0  0  0  0  0  0  0  0  0
   -2.0262    3.1754    5.2997 N   0  0  0  0  0  0  0  0  0  0  0  0
   -2.0179    4.1479    4.3542 N   0  0  0  0  0  0  0  0  0  0  0  0
   -1.2922    3.6885    3.3205 C   0  0  0  0  0  0  0  0  0  0  0  0
   -0.7781    2.3563    3.5111 C   0  0  0  0  0  0  0  0  0  0  0  0
   -1.3050    2.1192    4.7933 C   0  0  0  0  0  0  0  0  0  0  0  0
   -0.7269   -2.4210    6.0400 C   0  0  0  0  0  0  0  0  0  0  0  0
   -0.7572   -4.4127    6.9315 H   0  0  0  0  0  0  0  0  0  0  0  0
    0.9204   -3.8090    8.6930 H   0  0  0  0  0  0  0  0  0  0  0  0
    1.2567    0.0528    7.2728 H   0  0  0  0  0  0  0  0  0  0  0  0
   -2.9328    2.0549    8.1747 H   0  0  0  0  0  0  0  0  0  0  0  0
   -1.1759    4.3582    2.4811 H   0  0  0  0  0  0  0  0  0  0  0  0
   -0.1783    1.6488    2.9558 H   0  0  0  0  0  0  0  0  0  0  0  0
   -1.4372   -2.6446    5.2639 H   0  0  0  0  0  0  0  0  0  0  0  0
  1 16  2  0
  1  2  1  0
  1 17  1  0
  2  3  2  0
  2 18  1  0
  3  4  1  0
  4  5  2  0
  4 19  1  0
  5  6  1  0
  5 16  1  0
  6  7  1  0
  7 15  1  0
  7  8  2  0
  8  9  1  0
  9 10  2  0
  9 20  1  0
 10 11  1  0
 11 15  1  0
 11 12  1  0
 12 13  2  0
 13 14  1  0
 13 21  1  0
 14 15  2  0
 14 22  1  0
 16 23  1  0
M  END
>  <i_m_ct_stereo_status>  (234) 
1

>  <s_m_source_file>  (234) 
/var/tmp/pbs.5076255.sched01/tmprh8juyh8/78tr4t3sa2.sdf

>  <i_m_source_file_index>  (234) 
22

>  <i_lp_mmshare_version>  (234) 
48012

>  <i_f3d_flags>  (234) 
0

>  <s_epik_input>  (234) 
W2NIXTFbY0hdW2NIXW5bY0hdYzFPYyhuW2NIXW4yKWMobjIzKVtjSF1bY0hdbjM=

>  <s_epik_cmdline>  (234) 
J2VwaWtfcHl0aG9uJywgJy1waHQnLCAnMi4wJywgJy1waCcsICc3LjAnLCAnLXRuJywgJzgnLCAnLW1hJywgJzIwMCcsICctaW1hZScsICc8aW5maWxlLm1hZT4nLCAnLW9tYWUnLCAnPG91dGZpbGUubWFlPic=

>  <r_lp_tautomer_probability>  (234) 
1

>  <r_epik_Ionization_Penalty>  (234) 
0.00183133

>  <r_epik_Ionization_Penalty_Charging>  (234) 
0

>  <r_epik_Ionization_Penalty_Neutral>  (234) 
0.00183133

>  <r_epik_State_Penalty>  (234) 
0.00124351

>  <r_epik_Charging_Adjusted_Penalty>  (234) 
0.00124351

>  <i_epik_Tot_Q>  (234) 
0

>  <i_epik_Tot_abs_Q>  (234) 
0

>  <s_lp_Force_Field>  (234) 
OPLS3e

>  <r_lp_Energy>  (234) 
26.4849

>  <b_lp_Chiralities_Consistent>  (234) 
1

>  <s_lp_Variant>  (234) 
79:0-1

>  <s_i_glide_gridfile>  (234) 
pfpi4k_grid

>  <i_i_glide_lignum>  (234) 
22

>  <i_i_glide_rotatable_bonds>  (234) 
2

>  <r_i_docking_score>  (234) 
-2.83286

>  <r_i_glide_ligand_efficiency>  (234) 
-0.177054

>  <r_i_glide_ligand_efficiency_sa>  (234) 
-0.446147

>  <r_i_glide_ligand_efficiency_ln>  (234) 
-0.750906

>  <r_i_glide_gscore>  (234) 
-2.83286

>  <r_i_glide_lipo>  (234) 
0

>  <r_i_glide_hbond>  (234) 
-0.207908

>  <r_i_glide_metal>  (234) 
-0

>  <r_i_glide_rewards>  (234) 
-1.95549

>  <r_i_glide_evdw>  (234) 
-15.1777

>  <r_i_glide_ecoul>  (234) 
-4.20616

>  <r_i_glide_erotb>  (234) 
0.733842

>  <r_i_glide_esite>  (234) 
-0.0134993

>  <r_i_glide_emodel>  (234) 
-23.7556

>  <r_i_glide_energy>  (234) 
-19.3838

>  <r_i_glide_einternal>  (234) 
0.250322

>  <r_i_glide_intrahb_reward>  (234) 
-0

>  <i_i_glide_confnum>  (234) 
2

>  <i_i_glide_posenum>  (234) 
4

>  <r_i_glide_eff_state_penalty>  (234) 
0

>  <ligand_id>  (234) 
79

>  <original_smiles>  (234) 
c1cncc(Oc2ncnn3nccc23)c1

>  <smiles>  (234) 
[H]c1nc(Oc2c([H])nc([H])c([H])c2[H])c2c([H])c([H])nn2n1

$$$$
80:0:0
     RDKit          3D

 25 26  0  0  1  0  0  0  0  0999 V2000
  -10.2697   -5.4363   -7.7264 C   0  0  0  0  0  0  0  0  0  0  0  0
   -8.8871   -4.9854   -7.2019 C   0  0  0  0  0  0  0  0  0  0  0  0
   -8.3301   -3.9425   -8.1766 C   0  0  0  0  0  0  0  0  0  0  0  0
   -9.0755   -4.2728   -5.8273 C   0  0  0  0  0  0  0  0  0  0  0  0
   -7.9754   -4.5092   -4.8103 C   0  0  0  0  0  0  0  0  0  0  0  0
   -7.0489   -5.4665   -4.9213 C   0  0  0  0  0  0  0  0  0  0  0  0
   -7.0260   -6.3736   -6.0630 C   0  0  0  0  0  0  0  0  0  0  0  0
   -6.1404   -7.3949   -6.0049 N   0  0  0  0  0  0  0  0  0  0  0  0
   -6.0945   -8.2554   -7.0435 C   0  0  0  0  0  0  0  0  0  0  0  0
   -6.9130   -8.1347   -8.1799 C   0  0  0  0  0  0  0  0  0  0  0  0
   -7.8290   -7.0756   -8.2344 C   0  0  0  0  0  0  0  0  0  0  0  0
   -7.9120   -6.1730   -7.1512 C   0  0  0  0  0  0  0  0  0  0  0  0
  -10.9954   -4.6221   -7.7008 H   0  0  0  0  0  0  0  0  0  0  0  0
  -10.6811   -6.2462   -7.1276 H   0  0  0  0  0  0  0  0  0  0  0  0
  -10.2414   -5.7868   -8.7566 H   0  0  0  0  0  0  0  0  0  0  0  0
   -9.0417   -3.1298   -8.3116 H   0  0  0  0  0  0  0  0  0  0  0  0
   -8.1466   -4.3769   -9.1575 H   0  0  0  0  0  0  0  0  0  0  0  0
   -7.4030   -3.4933   -7.8139 H   0  0  0  0  0  0  0  0  0  0  0  0
   -9.2302   -3.1966   -5.9438 H   0  0  0  0  0  0  0  0  0  0  0  0
   -9.9974   -4.6170   -5.3625 H   0  0  0  0  0  0  0  0  0  0  0  0
   -7.9846   -3.8781   -3.9370 H   0  0  0  0  0  0  0  0  0  0  0  0
   -6.3079   -5.5857   -4.1427 H   0  0  0  0  0  0  0  0  0  0  0  0
   -5.3620   -9.0482   -6.9714 H   0  0  0  0  0  0  0  0  0  0  0  0
   -6.8216   -8.8238   -9.0077 H   0  0  0  0  0  0  0  0  0  0  0  0
   -8.4374   -6.9559   -9.1175 H   0  0  0  0  0  0  0  0  0  0  0  0
  1  2  1  0
  1 13  1  0
  1 14  1  0
  1 15  1  0
  2 12  1  0
  2  3  1  0
  2  4  1  0
  3 16  1  0
  3 17  1  0
  3 18  1  0
  4  5  1  0
  4 19  1  0
  4 20  1  0
  5  6  2  0
  5 21  1  0
  6  7  1  0
  6 22  1  0
  7 12  2  0
  7  8  1  0
  8  9  2  0
  9 10  1  0
  9 23  1  0
 10 11  2  0
 10 24  1  0
 11 12  1  0
 11 25  1  0
M  END
>  <i_m_ct_stereo_status>  (235) 
1

>  <s_m_source_file>  (235) 
/var/tmp/pbs.5076255.sched01/tmprh8juyh8/78tr4t3sa2.sdf

>  <i_m_source_file_index>  (235) 
23

>  <i_lp_mmshare_version>  (235) 
48012

>  <i_f3d_flags>  (235) 
0

>  <s_epik_input>  (235) 
W0NIXTE9W0NIXVtDSDJdQyhbQ0gzXSkoW0NIM10pYyhjMTIpW2NIXVtjSF1bY0hdbjI=

>  <s_epik_cmdline>  (235) 
J2VwaWtfcHl0aG9uJywgJy1waHQnLCAnMi4wJywgJy1waCcsICc3LjAnLCAnLXRuJywgJzgnLCAnLW1hJywgJzIwMCcsICctaW1hZScsICc8aW5maWxlLm1hZT4nLCAnLW9tYWUnLCAnPG91dGZpbGUubWFlPic=

>  <r_epik_Ionization_Penalty>  (235) 
0.0626647

>  <r_epik_Ionization_Penalty_Charging>  (235) 
0

>  <r_epik_Ionization_Penalty_Neutral>  (235) 
0.0626647

>  <r_epik_State_Penalty>  (235) 
0.054473

>  <r_epik_Charging_Adjusted_Penalty>  (235) 
0.054473

>  <i_epik_Tot_Q>  (235) 
0

>  <i_epik_Tot_abs_Q>  (235) 
0

>  <s_lp_Force_Field>  (235) 
OPLS3e

>  <r_lp_Energy>  (235) 
19.9704

>  <b_lp_Chiralities_Consistent>  (235) 
1

>  <s_lp_Variant>  (235) 
80:0-1

>  <s_i_glide_gridfile>  (235) 
pfpi4k_grid

>  <i_i_glide_lignum>  (235) 
23

>  <i_i_glide_rotatable_bonds>  (235) 
0

>  <r_i_docking_score>  (235) 
-6.29278

>  <r_i_glide_ligand_efficiency>  (235) 
-0.524398

>  <r_i_glide_ligand_efficiency_sa>  (235) 
-1.20057

>  <r_i_glide_ligand_efficiency_ln>  (235) 
-1.80572

>  <r_i_glide_gscore>  (235) 
-6.29278

>  <r_i_glide_lipo>  (235) 
-2.29111

>  <r_i_glide_hbond>  (235) 
0

>  <r_i_glide_metal>  (235) 
-0

>  <r_i_glide_rewards>  (235) 
-3.0991

>  <r_i_glide_evdw>  (235) 
-18.5504

>  <r_i_glide_ecoul>  (235) 
0.166344

>  <r_i_glide_erotb>  (235) 
0

>  <r_i_glide_esite>  (235) 
0

>  <r_i_glide_emodel>  (235) 
-25.2669

>  <r_i_glide_energy>  (235) 
-18.384

>  <r_i_glide_einternal>  (235) 
0

>  <r_i_glide_intrahb_reward>  (235) 
-0

>  <i_i_glide_confnum>  (235) 
3

>  <i_i_glide_posenum>  (235) 
2

>  <r_i_glide_eff_state_penalty>  (235) 
0

>  <ligand_id>  (235) 
80

>  <original_smiles>  (235) 
CC1(C)CC=Cc2ncccc21

>  <smiles>  (235) 
[H]C1=C([H])C([H])([H])C(C([H])([H])[H])(C([H])([H])[H])c2c1nc([H])c([H])c2[H]

$$$$
80:0:1
     RDKit          3D

 25 26  0  0  1  0  0  0  0  0999 V2000
   -8.5935   -3.8553   -7.7000 C   0  0  0  0  0  0  0  0  0  0  0  0
   -8.8146   -5.3672   -7.8953 C   0  0  0  0  0  0  0  0  0  0  0  0
  -10.2390   -5.6625   -7.4117 C   0  0  0  0  0  0  0  0  0  0  0  0
   -8.7461   -5.7059   -9.4166 C   0  0  0  0  0  0  0  0  0  0  0  0
   -8.1282   -7.0414   -9.7707 C   0  0  0  0  0  0  0  0  0  0  0  0
   -7.4077   -7.7712   -8.9149 C   0  0  0  0  0  0  0  0  0  0  0  0
   -7.1793   -7.3322   -7.5402 C   0  0  0  0  0  0  0  0  0  0  0  0
   -6.2947   -8.0544   -6.8129 N   0  0  0  0  0  0  0  0  0  0  0  0
   -6.0278   -7.6543   -5.5540 C   0  0  0  0  0  0  0  0  0  0  0  0
   -6.6230   -6.5303   -4.9575 C   0  0  0  0  0  0  0  0  0  0  0  0
   -7.5392   -5.7809   -5.7098 C   0  0  0  0  0  0  0  0  0  0  0  0
   -7.8201   -6.1674   -7.0420 C   0  0  0  0  0  0  0  0  0  0  0  0
   -9.2762   -3.2734   -8.3145 H   0  0  0  0  0  0  0  0  0  0  0  0
   -7.5872   -3.5313   -7.9537 H   0  0  0  0  0  0  0  0  0  0  0  0
   -8.7773   -3.5057   -6.6862 H   0  0  0  0  0  0  0  0  0  0  0  0
  -10.9997   -5.0737   -7.9271 H   0  0  0  0  0  0  0  0  0  0  0  0
  -10.3406   -5.4473   -6.3497 H   0  0  0  0  0  0  0  0  0  0  0  0
  -10.4818   -6.7161   -7.5481 H   0  0  0  0  0  0  0  0  0  0  0  0
   -9.7336   -5.6452   -9.8724 H   0  0  0  0  0  0  0  0  0  0  0  0
   -8.1523   -4.9662   -9.9511 H   0  0  0  0  0  0  0  0  0  0  0  0
   -8.2665   -7.3706  -10.7874 H   0  0  0  0  0  0  0  0  0  0  0  0
   -6.9688   -8.7051   -9.2454 H   0  0  0  0  0  0  0  0  0  0  0  0
   -5.3384   -8.2730   -4.9945 H   0  0  0  0  0  0  0  0  0  0  0  0
   -6.4194   -6.2694   -3.9279 H   0  0  0  0  0  0  0  0  0  0  0  0
   -8.0279   -4.9332   -5.2456 H   0  0  0  0  0  0  0  0  0  0  0  0
  1  2  1  0
  1 13  1  0
  1 14  1  0
  1 15  1  0
  2 12  1  0
  2  3  1  0
  2  4  1  0
  3 16  1  0
  3 17  1  0
  3 18  1  0
  4  5  1  0
  4 19  1  0
  4 20  1  0
  5  6  2  0
  5 21  1  0
  6  7  1  0
  6 22  1  0
  7 12  2  0
  7  8  1  0
  8  9  2  0
  9 10  1  0
  9 23  1  0
 10 11  2  0
 10 24  1  0
 11 12  1  0
 11 25  1  0
M  END
>  <i_m_ct_stereo_status>  (236) 
1

>  <s_m_source_file>  (236) 
/var/tmp/pbs.5076255.sched01/tmprh8juyh8/78tr4t3sa2.sdf

>  <i_m_source_file_index>  (236) 
23

>  <i_lp_mmshare_version>  (236) 
48012

>  <i_f3d_flags>  (236) 
0

>  <s_epik_input>  (236) 
W0NIXTE9W0NIXVtDSDJdQyhbQ0gzXSkoW0NIM10pYyhjMTIpW2NIXVtjSF1bY0hdbjI=

>  <s_epik_cmdline>  (236) 
J2VwaWtfcHl0aG9uJywgJy1waHQnLCAnMi4wJywgJy1waCcsICc3LjAnLCAnLXRuJywgJzgnLCAnLW1hJywgJzIwMCcsICctaW1hZScsICc8aW5maWxlLm1hZT4nLCAnLW9tYWUnLCAnPG91dGZpbGUubWFlPic=

>  <r_epik_Ionization_Penalty>  (236) 
0.0626647

>  <r_epik_Ionization_Penalty_Charging>  (236) 
0

>  <r_epik_Ionization_Penalty_Neutral>  (236) 
0.0626647

>  <r_epik_State_Penalty>  (236) 
0.054473

>  <r_epik_Charging_Adjusted_Penalty>  (236) 
0.054473

>  <i_epik_Tot_Q>  (236) 
0

>  <i_epik_Tot_abs_Q>  (236) 
0

>  <s_lp_Force_Field>  (236) 
OPLS3e

>  <r_lp_Energy>  (236) 
19.9704

>  <b_lp_Chiralities_Consistent>  (236) 
1

>  <s_lp_Variant>  (236) 
80:0-1

>  <s_i_glide_gridfile>  (236) 
pfpi4k_grid

>  <i_i_glide_lignum>  (236) 
23

>  <i_i_glide_rotatable_bonds>  (236) 
0

>  <r_i_docking_score>  (236) 
-5.6572

>  <r_i_glide_ligand_efficiency>  (236) 
-0.471433

>  <r_i_glide_ligand_efficiency_sa>  (236) 
-1.07931

>  <r_i_glide_ligand_efficiency_ln>  (236) 
-1.62334

>  <r_i_glide_gscore>  (236) 
-5.6572

>  <r_i_glide_lipo>  (236) 
-1.924

>  <r_i_glide_hbond>  (236) 
0

>  <r_i_glide_metal>  (236) 
-0

>  <r_i_glide_rewards>  (236) 
-2.87112

>  <r_i_glide_evdw>  (236) 
-17.8991

>  <r_i_glide_ecoul>  (236) 
0.219174

>  <r_i_glide_erotb>  (236) 
0

>  <r_i_glide_esite>  (236) 
0

>  <r_i_glide_emodel>  (236) 
-23.8612

>  <r_i_glide_energy>  (236) 
-17.6799

>  <r_i_glide_einternal>  (236) 
0

>  <r_i_glide_intrahb_reward>  (236) 
-0

>  <i_i_glide_confnum>  (236) 
3

>  <i_i_glide_posenum>  (236) 
6

>  <r_i_glide_eff_state_penalty>  (236) 
0

>  <ligand_id>  (236) 
80

>  <original_smiles>  (236) 
CC1(C)CC=Cc2ncccc21

>  <smiles>  (236) 
[H]C1=C([H])C([H])([H])C(C([H])([H])[H])(C([H])([H])[H])c2c1nc([H])c([H])c2[H]

$$$$
80:0:2
     RDKit          3D

 25 26  0  0  1  0  0  0  0  0999 V2000
   -9.4014   -5.0589   -5.7813 C   0  0  0  0  0  0  0  0  0  0  0  0
   -8.0119   -4.8268   -6.3342 C   0  0  0  0  0  0  0  0  0  0  0  0
   -8.2636   -3.7584   -7.3981 C   0  0  0  0  0  0  0  0  0  0  0  0
   -7.1112   -4.2700   -5.1843 C   0  0  0  0  0  0  0  0  0  0  0  0
   -6.2268   -5.2839   -4.4837 C   0  0  0  0  0  0  0  0  0  0  0  0
   -5.9335   -6.4833   -4.9997 C   0  0  0  0  0  0  0  0  0  0  0  0
   -6.5354   -6.9593   -6.2395 C   0  0  0  0  0  0  0  0  0  0  0  0
   -6.1310   -8.1544   -6.7079 N   0  0  0  0  0  0  0  0  0  0  0  0
   -6.6972   -8.6219   -7.8462 C   0  0  0  0  0  0  0  0  0  0  0  0
   -7.7025   -7.9378   -8.5485 C   0  0  0  0  0  0  0  0  0  0  0  0
   -8.1335   -6.6955   -8.0410 C   0  0  0  0  0  0  0  0  0  0  0  0
   -7.5409   -6.1583   -6.9131 C   0  0  0  0  0  0  0  0  0  0  0  0
   -9.7496   -4.2262   -5.1476 H   0  0  0  0  0  0  0  0  0  0  0  0
   -9.2083   -5.9246   -5.1619 H   0  0  0  0  0  0  0  0  0  0  0  0
  -10.1719   -5.3044   -6.5083 H   0  0  0  0  0  0  0  0  0  0  0  0
   -8.7439   -2.9271   -6.8884 H   0  0  0  0  0  0  0  0  0  0  0  0
   -8.9226   -4.0910   -8.1912 H   0  0  0  0  0  0  0  0  0  0  0  0
   -7.3468   -3.3773   -7.8550 H   0  0  0  0  0  0  0  0  0  0  0  0
   -6.4044   -3.5237   -5.5417 H   0  0  0  0  0  0  0  0  0  0  0  0
   -7.6752   -3.7753   -4.3987 H   0  0  0  0  0  0  0  0  0  0  0  0
   -5.8316   -4.9368   -3.5523 H   0  0  0  0  0  0  0  0  0  0  0  0
   -5.2564   -7.1548   -4.4721 H   0  0  0  0  0  0  0  0  0  0  0  0
   -6.3393   -9.5809   -8.1981 H   0  0  0  0  0  0  0  0  0  0  0  0
   -8.1393   -8.3386   -9.4375 H   0  0  0  0  0  0  0  0  0  0  0  0
   -8.9269   -6.1789   -8.5671 H   0  0  0  0  0  0  0  0  0  0  0  0
  1  2  1  0
  1 13  1  0
  1 14  1  0
  1 15  1  0
  2 12  1  0
  2  3  1  0
  2  4  1  0
  3 16  1  0
  3 17  1  0
  3 18  1  0
  4  5  1  0
  4 19  1  0
  4 20  1  0
  5  6  2  0
  5 21  1  0
  6  7  1  0
  6 22  1  0
  7 12  2  0
  7  8  1  0
  8  9  2  0
  9 10  1  0
  9 23  1  0
 10 11  2  0
 10 24  1  0
 11 12  1  0
 11 25  1  0
M  END
>  <i_m_ct_stereo_status>  (237) 
1

>  <s_m_source_file>  (237) 
/var/tmp/pbs.5076255.sched01/tmprh8juyh8/78tr4t3sa2.sdf

>  <i_m_source_file_index>  (237) 
23

>  <i_lp_mmshare_version>  (237) 
48012

>  <i_f3d_flags>  (237) 
0

>  <s_epik_input>  (237) 
W0NIXTE9W0NIXVtDSDJdQyhbQ0gzXSkoW0NIM10pYyhjMTIpW2NIXVtjSF1bY0hdbjI=

>  <s_epik_cmdline>  (237) 
J2VwaWtfcHl0aG9uJywgJy1waHQnLCAnMi4wJywgJy1waCcsICc3LjAnLCAnLXRuJywgJzgnLCAnLW1hJywgJzIwMCcsICctaW1hZScsICc8aW5maWxlLm1hZT4nLCAnLW9tYWUnLCAnPG91dGZpbGUubWFlPic=

>  <r_epik_Ionization_Penalty>  (237) 
0.0626647

>  <r_epik_Ionization_Penalty_Charging>  (237) 
0

>  <r_epik_Ionization_Penalty_Neutral>  (237) 
0.0626647

>  <r_epik_State_Penalty>  (237) 
0.054473

>  <r_epik_Charging_Adjusted_Penalty>  (237) 
0.054473

>  <i_epik_Tot_Q>  (237) 
0

>  <i_epik_Tot_abs_Q>  (237) 
0

>  <s_lp_Force_Field>  (237) 
OPLS3e

>  <r_lp_Energy>  (237) 
19.9704

>  <b_lp_Chiralities_Consistent>  (237) 
1

>  <s_lp_Variant>  (237) 
80:0-1

>  <s_i_glide_gridfile>  (237) 
pfpi4k_grid

>  <i_i_glide_lignum>  (237) 
23

>  <i_i_glide_rotatable_bonds>  (237) 
0

>  <r_i_docking_score>  (237) 
-5.17294

>  <r_i_glide_ligand_efficiency>  (237) 
-0.431078

>  <r_i_glide_ligand_efficiency_sa>  (237) 
-0.986923

>  <r_i_glide_ligand_efficiency_ln>  (237) 
-1.48438

>  <r_i_glide_gscore>  (237) 
-5.17294

>  <r_i_glide_lipo>  (237) 
-2.51655

>  <r_i_glide_hbond>  (237) 
0

>  <r_i_glide_metal>  (237) 
-0

>  <r_i_glide_rewards>  (237) 
-2.25

>  <r_i_glide_evdw>  (237) 
-8.96262

>  <r_i_glide_ecoul>  (237) 
0.278249

>  <r_i_glide_erotb>  (237) 
0

>  <r_i_glide_esite>  (237) 
0

>  <r_i_glide_emodel>  (237) 
-13.4119

>  <r_i_glide_energy>  (237) 
-8.68437

>  <r_i_glide_einternal>  (237) 
0

>  <r_i_glide_intrahb_reward>  (237) 
-0

>  <i_i_glide_confnum>  (237) 
2

>  <i_i_glide_posenum>  (237) 
3

>  <r_i_glide_eff_state_penalty>  (237) 
0

>  <ligand_id>  (237) 
80

>  <original_smiles>  (237) 
CC1(C)CC=Cc2ncccc21

>  <smiles>  (237) 
[H]C1=C([H])C([H])([H])C(C([H])([H])[H])(C([H])([H])[H])c2c1nc([H])c([H])c2[H]

$$$$
80:1:0
     RDKit          3D

 26 27  0  0  1  0  0  0  0  0999 V2000
   -7.3390   -9.3395   -6.2936 C   0  0  0  0  0  0  0  0  0  0  0  0
   -6.7070   -8.1600   -7.0561 C   0  0  0  0  0  0  0  0  0  0  0  0
   -5.1778   -8.2522   -6.8406 C   0  0  0  0  0  0  0  0  0  0  0  0
   -7.0040   -8.3569   -8.5872 C   0  0  0  0  0  0  0  0  0  0  0  0
   -8.1535   -7.5474   -9.1559 C   0  0  0  0  0  0  0  0  0  0  0  0
   -8.6847   -6.4952   -8.5281 C   0  0  0  0  0  0  0  0  0  0  0  0
   -8.1875   -6.0561   -7.2280 C   0  0  0  0  0  0  0  0  0  0  0  0
   -8.6212   -4.8744   -6.7413 N   0  0  0  0  0  0  0  0  0  0  0  0
   -8.2364   -4.3743   -5.5449 C   0  0  0  0  0  0  0  0  0  0  0  0
   -7.3477   -5.1068   -4.7398 C   0  0  0  0  0  0  0  0  0  0  0  0
   -6.8519   -6.3429   -5.2174 C   0  0  0  0  0  0  0  0  0  0  0  0
   -7.2499   -6.8277   -6.4904 C   0  0  0  0  0  0  0  0  0  0  0  0
   -7.0188  -10.3035   -6.6945 H   0  0  0  0  0  0  0  0  0  0  0  0
   -8.4256   -9.3166   -6.3472 H   0  0  0  0  0  0  0  0  0  0  0  0
   -7.0603   -9.3300   -5.2397 H   0  0  0  0  0  0  0  0  0  0  0  0
   -4.7847   -9.2090   -7.1883 H   0  0  0  0  0  0  0  0  0  0  0  0
   -4.8765   -8.1698   -5.7960 H   0  0  0  0  0  0  0  0  0  0  0  0
   -4.6578   -7.4649   -7.3878 H   0  0  0  0  0  0  0  0  0  0  0  0
   -6.1375   -8.0655   -9.1809 H   0  0  0  0  0  0  0  0  0  0  0  0
   -7.1604   -9.4107   -8.8269 H   0  0  0  0  0  0  0  0  0  0  0  0
   -8.5306   -7.8546  -10.1257 H   0  0  0  0  0  0  0  0  0  0  0  0
   -9.5190   -5.9682   -8.9746 H   0  0  0  0  0  0  0  0  0  0  0  0
   -8.6571   -3.4147   -5.2754 H   0  0  0  0  0  0  0  0  0  0  0  0
   -7.0537   -4.7290   -3.7704 H   0  0  0  0  0  0  0  0  0  0  0  0
   -6.1823   -6.9119   -4.5834 H   0  0  0  0  0  0  0  0  0  0  0  0
   -9.2746   -4.3312   -7.3100 H   0  0  0  0  0  0  0  0  0  0  0  0
  1  2  1  0
  1 13  1  0
  1 14  1  0
  1 15  1  0
  2 12  1  0
  2  3  1  0
  2  4  1  0
  3 16  1  0
  3 17  1  0
  3 18  1  0
  4  5  1  0
  4 19  1  0
  4 20  1  0
  5  6  2  0
  5 21  1  0
  6  7  1  0
  6 22  1  0
  7 12  2  0
  7  8  1  0
  8  9  2  0
  8 26  1  0
  9 10  1  0
  9 23  1  0
 10 11  2  0
 10 24  1  0
 11 12  1  0
 11 25  1  0
M  CHG  1   8   1
M  END
>  <i_m_ct_stereo_status>  (238) 
1

>  <s_m_source_file>  (238) 
/var/tmp/pbs.5076255.sched01/tmprh8juyh8/78tr4t3sa2.sdf

>  <i_m_source_file_index>  (238) 
24

>  <i_lp_mmshare_version>  (238) 
48012

>  <i_f3d_flags>  (238) 
0

>  <s_epik_input>  (238) 
W0NIXTE9W0NIXVtDSDJdQyhbQ0gzXSkoW0NIM10pYyhjMTIpW2NIXVtjSF1bY0hdbjI=

>  <s_epik_cmdline>  (238) 
J2VwaWtfcHl0aG9uJywgJy1waHQnLCAnMi4wJywgJy1waCcsICc3LjAnLCAnLXRuJywgJzgnLCAnLW1hJywgJzIwMCcsICctaW1hZScsICc8aW5maWxlLm1hZT4nLCAnLW9tYWUnLCAnPG91dGZpbGUubWFlPic=

>  <r_epik_Ionization_Penalty>  (238) 
1.36209

>  <r_epik_Ionization_Penalty_Charging>  (238) 
1.36209

>  <r_epik_Ionization_Penalty_Neutral>  (238) 
0

>  <r_epik_State_Penalty>  (238) 
1.44107

>  <r_epik_Charging_Adjusted_Penalty>  (238) 
2.80316

>  <i_epik_Tot_Q>  (238) 
1

>  <i_epik_Tot_abs_Q>  (238) 
1

>  <s_lp_Force_Field>  (238) 
OPLS3e

>  <r_lp_Energy>  (238) 
23.038

>  <b_lp_Chiralities_Consistent>  (238) 
1

>  <s_lp_Variant>  (238) 
80:0-2

>  <s_i_glide_gridfile>  (238) 
pfpi4k_grid

>  <i_i_glide_lignum>  (238) 
24

>  <i_i_glide_rotatable_bonds>  (238) 
0

>  <r_i_docking_score>  (238) 
-6.24254

>  <r_i_glide_ligand_efficiency>  (238) 
-0.520212

>  <r_i_glide_ligand_efficiency_sa>  (238) 
-1.19099

>  <r_i_glide_ligand_efficiency_ln>  (238) 
-1.79131

>  <r_i_glide_gscore>  (238) 
-6.24254

>  <r_i_glide_lipo>  (238) 
-2.4814

>  <r_i_glide_hbond>  (238) 
0

>  <r_i_glide_metal>  (238) 
-0

>  <r_i_glide_rewards>  (238) 
-2.8117

>  <r_i_glide_evdw>  (238) 
-18.9584

>  <r_i_glide_ecoul>  (238) 
-0.0101446

>  <r_i_glide_erotb>  (238) 
0

>  <r_i_glide_esite>  (238) 
0

>  <r_i_glide_emodel>  (238) 
-26.3733

>  <r_i_glide_energy>  (238) 
-18.9685

>  <r_i_glide_einternal>  (238) 
0

>  <r_i_glide_intrahb_reward>  (238) 
-0

>  <i_i_glide_confnum>  (238) 
4

>  <i_i_glide_posenum>  (238) 
13

>  <r_i_glide_eff_state_penalty>  (238) 
0

>  <ligand_id>  (238) 
80

>  <original_smiles>  (238) 
CC1(C)CC=Cc2ncccc21

>  <smiles>  (238) 
[H]C1=C([H])C([H])([H])C(C([H])([H])[H])(C([H])([H])[H])c2c([H])c([H])c([H])[n+]([H])c21

$$$$
80:1:1
     RDKit          3D

 26 27  0  0  1  0  0  0  0  0999 V2000
   -7.5709   -9.4792   -6.8038 C   0  0  0  0  0  0  0  0  0  0  0  0
   -6.8554   -8.2634   -7.4231 C   0  0  0  0  0  0  0  0  0  0  0  0
   -5.3826   -8.6665   -7.6200 C   0  0  0  0  0  0  0  0  0  0  0  0
   -7.4753   -7.9839   -8.8425 C   0  0  0  0  0  0  0  0  0  0  0  0
   -8.4892   -6.8597   -8.9169 C   0  0  0  0  0  0  0  0  0  0  0  0
   -8.6335   -5.9419   -7.9585 C   0  0  0  0  0  0  0  0  0  0  0  0
   -7.8126   -5.9666   -6.7529 C   0  0  0  0  0  0  0  0  0  0  0  0
   -7.8574   -4.9007   -5.9240 N   0  0  0  0  0  0  0  0  0  0  0  0
   -7.1427   -4.8221   -4.7775 C   0  0  0  0  0  0  0  0  0  0  0  0
   -6.3205   -5.8981   -4.4041 C   0  0  0  0  0  0  0  0  0  0  0  0
   -6.2181   -7.0226   -5.2494 C   0  0  0  0  0  0  0  0  0  0  0  0
   -6.9568   -7.0612   -6.4609 C   0  0  0  0  0  0  0  0  0  0  0  0
   -7.5633  -10.3357   -7.4805 H   0  0  0  0  0  0  0  0  0  0  0  0
   -8.6105   -9.2520   -6.5896 H   0  0  0  0  0  0  0  0  0  0  0  0
   -7.0982   -9.8028   -5.8765 H   0  0  0  0  0  0  0  0  0  0  0  0
   -5.2882   -9.5392   -8.2665 H   0  0  0  0  0  0  0  0  0  0  0  0
   -4.8744   -8.9284   -6.6931 H   0  0  0  0  0  0  0  0  0  0  0  0
   -4.8129   -7.8575   -8.0772 H   0  0  0  0  0  0  0  0  0  0  0  0
   -6.6891   -7.7062   -9.5476 H   0  0  0  0  0  0  0  0  0  0  0  0
   -7.9110   -8.8907   -9.2655 H   0  0  0  0  0  0  0  0  0  0  0  0
   -9.1046   -6.8251   -9.8067 H   0  0  0  0  0  0  0  0  0  0  0  0
   -9.3938   -5.1790   -8.0559 H   0  0  0  0  0  0  0  0  0  0  0  0
   -7.2652   -3.9147   -4.2034 H   0  0  0  0  0  0  0  0  0  0  0  0
   -5.7859   -5.8647   -3.4704 H   0  0  0  0  0  0  0  0  0  0  0  0
   -5.5891   -7.8496   -4.9428 H   0  0  0  0  0  0  0  0  0  0  0  0
   -8.4644   -4.1155   -6.1748 H   0  0  0  0  0  0  0  0  0  0  0  0
  1  2  1  0
  1 13  1  0
  1 14  1  0
  1 15  1  0
  2 12  1  0
  2  3  1  0
  2  4  1  0
  3 16  1  0
  3 17  1  0
  3 18  1  0
  4  5  1  0
  4 19  1  0
  4 20  1  0
  5  6  2  0
  5 21  1  0
  6  7  1  0
  6 22  1  0
  7 12  2  0
  7  8  1  0
  8  9  2  0
  8 26  1  0
  9 10  1  0
  9 23  1  0
 10 11  2  0
 10 24  1  0
 11 12  1  0
 11 25  1  0
M  CHG  1   8   1
M  END
>  <i_m_ct_stereo_status>  (239) 
1

>  <s_m_source_file>  (239) 
/var/tmp/pbs.5076255.sched01/tmprh8juyh8/78tr4t3sa2.sdf

>  <i_m_source_file_index>  (239) 
24

>  <i_lp_mmshare_version>  (239) 
48012

>  <i_f3d_flags>  (239) 
0

>  <s_epik_input>  (239) 
W0NIXTE9W0NIXVtDSDJdQyhbQ0gzXSkoW0NIM10pYyhjMTIpW2NIXVtjSF1bY0hdbjI=

>  <s_epik_cmdline>  (239) 
J2VwaWtfcHl0aG9uJywgJy1waHQnLCAnMi4wJywgJy1waCcsICc3LjAnLCAnLXRuJywgJzgnLCAnLW1hJywgJzIwMCcsICctaW1hZScsICc8aW5maWxlLm1hZT4nLCAnLW9tYWUnLCAnPG91dGZpbGUubWFlPic=

>  <r_epik_Ionization_Penalty>  (239) 
1.36209

>  <r_epik_Ionization_Penalty_Charging>  (239) 
1.36209

>  <r_epik_Ionization_Penalty_Neutral>  (239) 
0

>  <r_epik_State_Penalty>  (239) 
1.44107

>  <r_epik_Charging_Adjusted_Penalty>  (239) 
2.80316

>  <i_epik_Tot_Q>  (239) 
1

>  <i_epik_Tot_abs_Q>  (239) 
1

>  <s_lp_Force_Field>  (239) 
OPLS3e

>  <r_lp_Energy>  (239) 
23.038

>  <b_lp_Chiralities_Consistent>  (239) 
1

>  <s_lp_Variant>  (239) 
80:0-2

>  <s_i_glide_gridfile>  (239) 
pfpi4k_grid

>  <i_i_glide_lignum>  (239) 
24

>  <i_i_glide_rotatable_bonds>  (239) 
0

>  <r_i_docking_score>  (239) 
-6.02613

>  <r_i_glide_ligand_efficiency>  (239) 
-0.502178

>  <r_i_glide_ligand_efficiency_sa>  (239) 
-1.1497

>  <r_i_glide_ligand_efficiency_ln>  (239) 
-1.72921

>  <r_i_glide_gscore>  (239) 
-6.02613

>  <r_i_glide_lipo>  (239) 
-2.33224

>  <r_i_glide_hbond>  (239) 
0

>  <r_i_glide_metal>  (239) 
-0

>  <r_i_glide_rewards>  (239) 
-2.6436

>  <r_i_glide_evdw>  (239) 
-19.431

>  <r_i_glide_ecoul>  (239) 
-0.524956

>  <r_i_glide_erotb>  (239) 
0

>  <r_i_glide_esite>  (239) 
0

>  <r_i_glide_emodel>  (239) 
-27.1033

>  <r_i_glide_energy>  (239) 
-19.956

>  <r_i_glide_einternal>  (239) 
0

>  <r_i_glide_intrahb_reward>  (239) 
-0

>  <i_i_glide_confnum>  (239) 
2

>  <i_i_glide_posenum>  (239) 
1

>  <r_i_glide_eff_state_penalty>  (239) 
0

>  <ligand_id>  (239) 
80

>  <original_smiles>  (239) 
CC1(C)CC=Cc2ncccc21

>  <smiles>  (239) 
[H]C1=C([H])C([H])([H])C(C([H])([H])[H])(C([H])([H])[H])c2c([H])c([H])c([H])[n+]([H])c21

$$$$
80:1:2
     RDKit          3D

 26 27  0  0  1  0  0  0  0  0999 V2000
   -8.5003   -3.7745   -7.6459 C   0  0  0  0  0  0  0  0  0  0  0  0
   -8.7825   -5.2761   -7.6771 C   0  0  0  0  0  0  0  0  0  0  0  0
  -10.2022   -5.4509   -7.1172 C   0  0  0  0  0  0  0  0  0  0  0  0
   -8.7782   -5.7622   -9.1686 C   0  0  0  0  0  0  0  0  0  0  0  0
   -8.2247   -7.1501   -9.4185 C   0  0  0  0  0  0  0  0  0  0  0  0
   -7.5136   -7.8277   -8.5134 C   0  0  0  0  0  0  0  0  0  0  0  0
   -7.2322   -7.2649   -7.1941 C   0  0  0  0  0  0  0  0  0  0  0  0
   -6.3787   -7.9272   -6.3835 N   0  0  0  0  0  0  0  0  0  0  0  0
   -6.0188   -7.4772   -5.1618 C   0  0  0  0  0  0  0  0  0  0  0  0
   -6.5455   -6.2634   -4.6781 C   0  0  0  0  0  0  0  0  0  0  0  0
   -7.4431   -5.5361   -5.4853 C   0  0  0  0  0  0  0  0  0  0  0  0
   -7.7891   -6.0294   -6.7715 C   0  0  0  0  0  0  0  0  0  0  0  0
   -9.1778   -3.2508   -8.3183 H   0  0  0  0  0  0  0  0  0  0  0  0
   -7.4884   -3.5140   -7.9513 H   0  0  0  0  0  0  0  0  0  0  0  0
   -8.6516   -3.3260   -6.6650 H   0  0  0  0  0  0  0  0  0  0  0  0
  -10.9453   -4.8832   -7.6838 H   0  0  0  0  0  0  0  0  0  0  0  0
  -10.2710   -5.1107   -6.0853 H   0  0  0  0  0  0  0  0  0  0  0  0
  -10.5069   -6.4882   -7.1627 H   0  0  0  0  0  0  0  0  0  0  0  0
   -9.7820   -5.6989   -9.5962 H   0  0  0  0  0  0  0  0  0  0  0  0
   -8.1733   -5.0879   -9.7805 H   0  0  0  0  0  0  0  0  0  0  0  0
   -8.4050   -7.5681  -10.3998 H   0  0  0  0  0  0  0  0  0  0  0  0
   -7.1286   -8.8030   -8.7604 H   0  0  0  0  0  0  0  0  0  0  0  0
   -5.3609   -8.1249   -4.6017 H   0  0  0  0  0  0  0  0  0  0  0  0
   -6.3046   -5.9207   -3.6807 H   0  0  0  0  0  0  0  0  0  0  0  0
   -7.8625   -4.6180   -5.0998 H   0  0  0  0  0  0  0  0  0  0  0  0
   -5.9971   -8.8163   -6.7127 H   0  0  0  0  0  0  0  0  0  0  0  0
  1  2  1  0
  1 13  1  0
  1 14  1  0
  1 15  1  0
  2 12  1  0
  2  3  1  0
  2  4  1  0
  3 16  1  0
  3 17  1  0
  3 18  1  0
  4  5  1  0
  4 19  1  0
  4 20  1  0
  5  6  2  0
  5 21  1  0
  6  7  1  0
  6 22  1  0
  7 12  2  0
  7  8  1  0
  8  9  2  0
  8 26  1  0
  9 10  1  0
  9 23  1  0
 10 11  2  0
 10 24  1  0
 11 12  1  0
 11 25  1  0
M  CHG  1   8   1
M  END
>  <i_m_ct_stereo_status>  (240) 
1

>  <s_m_source_file>  (240) 
/var/tmp/pbs.5076255.sched01/tmprh8juyh8/78tr4t3sa2.sdf

>  <i_m_source_file_index>  (240) 
24

>  <i_lp_mmshare_version>  (240) 
48012

>  <i_f3d_flags>  (240) 
0

>  <s_epik_input>  (240) 
W0NIXTE9W0NIXVtDSDJdQyhbQ0gzXSkoW0NIM10pYyhjMTIpW2NIXVtjSF1bY0hdbjI=

>  <s_epik_cmdline>  (240) 
J2VwaWtfcHl0aG9uJywgJy1waHQnLCAnMi4wJywgJy1waCcsICc3LjAnLCAnLXRuJywgJzgnLCAnLW1hJywgJzIwMCcsICctaW1hZScsICc8aW5maWxlLm1hZT4nLCAnLW9tYWUnLCAnPG91dGZpbGUubWFlPic=

>  <r_epik_Ionization_Penalty>  (240) 
1.36209

>  <r_epik_Ionization_Penalty_Charging>  (240) 
1.36209

>  <r_epik_Ionization_Penalty_Neutral>  (240) 
0

>  <r_epik_State_Penalty>  (240) 
1.44107

>  <r_epik_Charging_Adjusted_Penalty>  (240) 
2.80316

>  <i_epik_Tot_Q>  (240) 
1

>  <i_epik_Tot_abs_Q>  (240) 
1

>  <s_lp_Force_Field>  (240) 
OPLS3e

>  <r_lp_Energy>  (240) 
23.038

>  <b_lp_Chiralities_Consistent>  (240) 
1

>  <s_lp_Variant>  (240) 
80:0-2

>  <s_i_glide_gridfile>  (240) 
pfpi4k_grid

>  <i_i_glide_lignum>  (240) 
24

>  <i_i_glide_rotatable_bonds>  (240) 
0

>  <r_i_docking_score>  (240) 
-5.44097

>  <r_i_glide_ligand_efficiency>  (240) 
-0.453414

>  <r_i_glide_ligand_efficiency_sa>  (240) 
-1.03806

>  <r_i_glide_ligand_efficiency_ln>  (240) 
-1.5613

>  <r_i_glide_gscore>  (240) 
-5.44097

>  <r_i_glide_lipo>  (240) 
-2.03494

>  <r_i_glide_hbond>  (240) 
0

>  <r_i_glide_metal>  (240) 
-0

>  <r_i_glide_rewards>  (240) 
-2.5802

>  <r_i_glide_evdw>  (240) 
-15.4505

>  <r_i_glide_ecoul>  (240) 
-0.355329

>  <r_i_glide_erotb>  (240) 
0

>  <r_i_glide_esite>  (240) 
0

>  <r_i_glide_emodel>  (240) 
-22.3012

>  <r_i_glide_energy>  (240) 
-15.8058

>  <r_i_glide_einternal>  (240) 
0

>  <r_i_glide_intrahb_reward>  (240) 
-0

>  <i_i_glide_confnum>  (240) 
3

>  <i_i_glide_posenum>  (240) 
26

>  <r_i_glide_eff_state_penalty>  (240) 
0

>  <ligand_id>  (240) 
80

>  <original_smiles>  (240) 
CC1(C)CC=Cc2ncccc21

>  <smiles>  (240) 
[H]C1=C([H])C([H])([H])C(C([H])([H])[H])(C([H])([H])[H])c2c([H])c([H])c([H])[n+]([H])c21

$$$$
81:0:0
     RDKit          3D

 33 35  0  0  1  0  0  0  0  0999 V2000
  -10.1492   -4.8093   -7.2132 C   0  0  0  0  0  0  0  0  0  0  0  0
   -9.1825   -5.8436   -7.1281 O   0  0  0  0  0  0  0  0  0  0  0  0
   -8.0842   -5.6647   -6.3199 C   0  0  0  0  0  0  0  0  0  0  0  0
   -7.8091   -4.4492   -5.6413 C   0  0  0  0  0  0  0  0  0  0  0  0
   -6.6487   -4.3498   -4.8466 C   0  0  0  0  0  0  0  0  0  0  0  0
   -5.8179   -5.4041   -4.7218 N   0  0  0  0  0  0  0  0  0  0  0  0
   -6.0247   -6.5703   -5.3291 C   0  0  0  0  0  0  0  0  0  0  0  0
   -5.2625   -7.7836   -5.3464 C   0  0  0  0  0  0  0  0  0  0  0  0
   -5.9431   -8.6504   -6.1579 C   0  0  0  0  0  0  0  0  0  0  0  0
   -7.1042   -8.0510   -6.6409 N   0  0  0  0  0  0  0  0  0  0  0  0
   -8.0379   -8.6955   -7.5587 C   0  0  2  0  0  0  0  0  0  0  0  0
   -8.3796  -10.1392   -7.1468 C   0  0  0  0  0  0  0  0  0  0  0  0
   -7.5081   -8.6183   -8.9774 C   0  0  0  0  0  0  0  0  0  0  0  0
   -7.5949   -7.3295   -9.7656 C   0  0  0  0  0  0  0  0  0  0  0  0
   -8.4518   -8.5115  -10.1544 C   0  0  0  0  0  0  0  0  0  0  0  0
   -7.1740   -6.7419   -6.1556 C   0  0  0  0  0  0  0  0  0  0  0  0
  -10.9480   -5.1288   -7.8821 H   0  0  0  0  0  0  0  0  0  0  0  0
   -9.7212   -3.8959   -7.6257 H   0  0  0  0  0  0  0  0  0  0  0  0
  -10.5919   -4.5988   -6.2397 H   0  0  0  0  0  0  0  0  0  0  0  0
   -8.4593   -3.5882   -5.7214 H   0  0  0  0  0  0  0  0  0  0  0  0
   -6.3483   -3.4544   -4.3187 H   0  0  0  0  0  0  0  0  0  0  0  0
   -4.3338   -7.9860   -4.8281 H   0  0  0  0  0  0  0  0  0  0  0  0
   -5.6838   -9.6668   -6.4296 H   0  0  0  0  0  0  0  0  0  0  0  0
   -8.9791   -8.1507   -7.5222 H   0  0  0  0  0  0  0  0  0  0  0  0
   -9.1654  -10.5372   -7.7899 H   0  0  0  0  0  0  0  0  0  0  0  0
   -8.7504  -10.1837   -6.1228 H   0  0  0  0  0  0  0  0  0  0  0  0
   -7.5246  -10.8122   -7.2263 H   0  0  0  0  0  0  0  0  0  0  0  0
   -6.5998   -9.2020   -9.1379 H   0  0  0  0  0  0  0  0  0  0  0  0
   -8.0858   -6.4785   -9.2953 H   0  0  0  0  0  0  0  0  0  0  0  0
   -6.7561   -7.0809  -10.4127 H   0  0  0  0  0  0  0  0  0  0  0  0
   -8.1827   -9.0432  -11.0635 H   0  0  0  0  0  0  0  0  0  0  0  0
   -9.5198   -8.4728   -9.9349 H   0  0  0  0  0  0  0  0  0  0  0  0
   -4.9979   -5.3011   -4.1262 H   0  0  0  0  0  0  0  0  0  0  0  0
  1  2  1  0
  1 17  1  0
  1 18  1  0
  1 19  1  0
  2  3  1  0
  3 16  2  0
  3  4  1  0
  4  5  2  0
  4 20  1  0
  5  6  1  0
  5 21  1  0
  6  7  2  0
  6 33  1  0
  7 16  1  0
  7  8  1  0
  8  9  2  0
  8 22  1  0
  9 10  1  0
  9 23  1  0
 10 11  1  0
 10 16  1  0
 11 12  1  0
 11 13  1  0
 11 24  1  6
 12 25  1  0
 12 26  1  0
 12 27  1  0
 13 15  1  0
 13 14  1  0
 13 28  1  0
 14 15  1  0
 14 29  1  0
 14 30  1  0
 15 31  1  0
 15 32  1  0
M  CHG  1   6   1
M  END
>  <i_m_ct_stereo_status>  (241) 
1

>  <s_m_source_file>  (241) 
/var/tmp/pbs.5076255.sched01/tmprh8juyh8/78tr4t3sa2.sdf

>  <i_m_source_file_index>  (241) 
25

>  <i_lp_mmshare_version>  (241) 
48012

>  <i_f3d_flags>  (241) 
0

>  <s_epik_input>  (241) 
bjFbY0hdW2NIXWMoT1tDSDNdKWMoYzEyKW4oW2NIXVtjSF0yKVtDQEhdKFtDSDNdKVtDSF0zW0NIMl1bQ0gyXTM=

>  <s_epik_cmdline>  (241) 
J2VwaWtfcHl0aG9uJywgJy1waHQnLCAnMi4wJywgJy1waCcsICc3LjAnLCAnLXRuJywgJzgnLCAnLW1hJywgJzIwMCcsICctaW1hZScsICc8aW5maWxlLm1hZT4nLCAnLW9tYWUnLCAnPG91dGZpbGUubWFlPic=

>  <r_lp_tautomer_probability>  (241) 
1

>  <r_epik_Ionization_Penalty>  (241) 
0.0184717

>  <r_epik_Ionization_Penalty_Charging>  (241) 
0.0184717

>  <r_epik_Ionization_Penalty_Neutral>  (241) 
0

>  <r_epik_State_Penalty>  (241) 
0.0146999

>  <r_epik_Charging_Adjusted_Penalty>  (241) 
0.0331716

>  <i_epik_Tot_Q>  (241) 
1

>  <i_epik_Tot_abs_Q>  (241) 
1

>  <s_lp_Force_Field>  (241) 
OPLS3e

>  <r_lp_Energy>  (241) 
27.1262

>  <b_lp_Chiralities_Consistent>  (241) 
1

>  <s_lp_Variant>  (241) 
81:0-1

>  <s_i_glide_gridfile>  (241) 
pfpi4k_grid

>  <i_i_glide_lignum>  (241) 
25

>  <i_i_glide_rotatable_bonds>  (241) 
3

>  <r_i_docking_score>  (241) 
-5.51669

>  <r_i_glide_ligand_efficiency>  (241) 
-0.344793

>  <r_i_glide_ligand_efficiency_sa>  (241) 
-0.868825

>  <r_i_glide_ligand_efficiency_ln>  (241) 
-1.46231

>  <r_i_glide_gscore>  (241) 
-5.51669

>  <r_i_glide_lipo>  (241) 
-2.74396

>  <r_i_glide_hbond>  (241) 
0

>  <r_i_glide_metal>  (241) 
-0

>  <r_i_glide_rewards>  (241) 
-2.2329

>  <r_i_glide_evdw>  (241) 
-25.2736

>  <r_i_glide_ecoul>  (241) 
0.0874018

>  <r_i_glide_erotb>  (241) 
0.71074

>  <r_i_glide_esite>  (241) 
0

>  <r_i_glide_emodel>  (241) 
-33.4497

>  <r_i_glide_energy>  (241) 
-25.1862

>  <r_i_glide_einternal>  (241) 
0.0593886

>  <r_i_glide_intrahb_reward>  (241) 
-0

>  <i_i_glide_confnum>  (241) 
3

>  <i_i_glide_posenum>  (241) 
3

>  <r_i_glide_eff_state_penalty>  (241) 
0

>  <ligand_id>  (241) 
81

>  <original_smiles>  (241) 
COc1ccnc2ccn(C(C)C3CC3)c12

>  <smiles>  (241) 
[H]c1c(OC([H])([H])[H])c2c(c([H])c([H])n2C([H])(C([H])([H])[H])C2([H])C([H])([H])C2([H])[H])[n+]([H])c1[H]

$$$$
81:0:1
     RDKit          3D

 33 35  0  0  1  0  0  0  0  0999 V2000
  -10.0713   -4.1273   -7.0285 C   0  0  0  0  0  0  0  0  0  0  0  0
   -9.0541   -5.0860   -7.2449 O   0  0  0  0  0  0  0  0  0  0  0  0
   -8.1520   -5.3398   -6.2465 C   0  0  0  0  0  0  0  0  0  0  0  0
   -7.9608   -4.4644   -5.1497 C   0  0  0  0  0  0  0  0  0  0  0  0
   -6.9556   -4.7364   -4.1970 C   0  0  0  0  0  0  0  0  0  0  0  0
   -6.1947   -5.8453   -4.3231 N   0  0  0  0  0  0  0  0  0  0  0  0
   -6.3484   -6.7192   -5.3085 C   0  0  0  0  0  0  0  0  0  0  0  0
   -5.6417   -7.9226   -5.6112 C   0  0  0  0  0  0  0  0  0  0  0  0
   -6.2178   -8.4229   -6.7432 C   0  0  0  0  0  0  0  0  0  0  0  0
   -7.2737   -7.6057   -7.1772 N   0  0  0  0  0  0  0  0  0  0  0  0
   -8.1018   -7.8415   -8.3712 C   0  0  2  0  0  0  0  0  0  0  0  0
   -9.6258   -7.9146   -8.0598 C   0  0  0  0  0  0  0  0  0  0  0  0
   -7.6342   -9.0836   -9.1455 C   0  0  0  0  0  0  0  0  0  0  0  0
   -8.5502   -9.9751   -9.9671 C   0  0  0  0  0  0  0  0  0  0  0  0
   -7.9873  -10.4830   -8.6598 C   0  0  0  0  0  0  0  0  0  0  0  0
   -7.3439   -6.5131   -6.3108 C   0  0  0  0  0  0  0  0  0  0  0  0
  -10.7702   -4.1848   -7.8578 H   0  0  0  0  0  0  0  0  0  0  0  0
   -9.6699   -3.1150   -6.9964 H   0  0  0  0  0  0  0  0  0  0  0  0
  -10.6429   -4.3140   -6.1221 H   0  0  0  0  0  0  0  0  0  0  0  0
   -8.5569   -3.5673   -5.0352 H   0  0  0  0  0  0  0  0  0  0  0  0
   -6.7114   -4.0986   -3.3582 H   0  0  0  0  0  0  0  0  0  0  0  0
   -4.8178   -8.3588   -5.0580 H   0  0  0  0  0  0  0  0  0  0  0  0
   -5.9277   -9.3235   -7.2612 H   0  0  0  0  0  0  0  0  0  0  0  0
   -7.9159   -6.9880   -9.0269 H   0  0  0  0  0  0  0  0  0  0  0  0
  -10.1982   -7.9126   -8.9858 H   0  0  0  0  0  0  0  0  0  0  0  0
  -10.0404   -7.0826   -7.5236 H   0  0  0  0  0  0  0  0  0  0  0  0
   -9.8782   -8.8207   -7.5030 H   0  0  0  0  0  0  0  0  0  0  0  0
   -6.6182   -8.9768   -9.5333 H   0  0  0  0  0  0  0  0  0  0  0  0
   -9.6133   -9.7482  -10.0181 H   0  0  0  0  0  0  0  0  0  0  0  0
   -8.1371  -10.4037  -10.8783 H   0  0  0  0  0  0  0  0  0  0  0  0
   -7.2131  -11.2490   -8.7087 H   0  0  0  0  0  0  0  0  0  0  0  0
   -8.6270  -10.5469   -7.7783 H   0  0  0  0  0  0  0  0  0  0  0  0
   -5.4668   -6.0297   -3.6267 H   0  0  0  0  0  0  0  0  0  0  0  0
  1  2  1  0
  1 17  1  0
  1 18  1  0
  1 19  1  0
  2  3  1  0
  3 16  2  0
  3  4  1  0
  4  5  2  0
  4 20  1  0
  5  6  1  0
  5 21  1  0
  6  7  2  0
  6 33  1  0
  7 16  1  0
  7  8  1  0
  8  9  2  0
  8 22  1  0
  9 10  1  0
  9 23  1  0
 10 11  1  0
 10 16  1  0
 11 12  1  0
 11 13  1  0
 11 24  1  6
 12 25  1  0
 12 26  1  0
 12 27  1  0
 13 15  1  0
 13 14  1  0
 13 28  1  0
 14 15  1  0
 14 29  1  0
 14 30  1  0
 15 31  1  0
 15 32  1  0
M  CHG  1   6   1
M  END
>  <i_m_ct_stereo_status>  (242) 
1

>  <s_m_source_file>  (242) 
/var/tmp/pbs.5076255.sched01/tmprh8juyh8/78tr4t3sa2.sdf

>  <i_m_source_file_index>  (242) 
25

>  <i_lp_mmshare_version>  (242) 
48012

>  <i_f3d_flags>  (242) 
0

>  <s_epik_input>  (242) 
bjFbY0hdW2NIXWMoT1tDSDNdKWMoYzEyKW4oW2NIXVtjSF0yKVtDQEhdKFtDSDNdKVtDSF0zW0NIMl1bQ0gyXTM=

>  <s_epik_cmdline>  (242) 
J2VwaWtfcHl0aG9uJywgJy1waHQnLCAnMi4wJywgJy1waCcsICc3LjAnLCAnLXRuJywgJzgnLCAnLW1hJywgJzIwMCcsICctaW1hZScsICc8aW5maWxlLm1hZT4nLCAnLW9tYWUnLCAnPG91dGZpbGUubWFlPic=

>  <r_lp_tautomer_probability>  (242) 
1

>  <r_epik_Ionization_Penalty>  (242) 
0.0184717

>  <r_epik_Ionization_Penalty_Charging>  (242) 
0.0184717

>  <r_epik_Ionization_Penalty_Neutral>  (242) 
0

>  <r_epik_State_Penalty>  (242) 
0.0146999

>  <r_epik_Charging_Adjusted_Penalty>  (242) 
0.0331716

>  <i_epik_Tot_Q>  (242) 
1

>  <i_epik_Tot_abs_Q>  (242) 
1

>  <s_lp_Force_Field>  (242) 
OPLS3e

>  <r_lp_Energy>  (242) 
27.1262

>  <b_lp_Chiralities_Consistent>  (242) 
1

>  <s_lp_Variant>  (242) 
81:0-1

>  <s_i_glide_gridfile>  (242) 
pfpi4k_grid

>  <i_i_glide_lignum>  (242) 
25

>  <i_i_glide_rotatable_bonds>  (242) 
3

>  <r_i_docking_score>  (242) 
-5.22662

>  <r_i_glide_ligand_efficiency>  (242) 
-0.326663

>  <r_i_glide_ligand_efficiency_sa>  (242) 
-0.82314

>  <r_i_glide_ligand_efficiency_ln>  (242) 
-1.38542

>  <r_i_glide_gscore>  (242) 
-5.22662

>  <r_i_glide_lipo>  (242) 
-2.46969

>  <r_i_glide_hbond>  (242) 
0

>  <r_i_glide_metal>  (242) 
-0

>  <r_i_glide_rewards>  (242) 
-2.1764

>  <r_i_glide_evdw>  (242) 
-24.0141

>  <r_i_glide_ecoul>  (242) 
-0.603704

>  <r_i_glide_erotb>  (242) 
0.71074

>  <r_i_glide_esite>  (242) 
0

>  <r_i_glide_emodel>  (242) 
-28.4143

>  <r_i_glide_energy>  (242) 
-24.6178

>  <r_i_glide_einternal>  (242) 
7.08554

>  <r_i_glide_intrahb_reward>  (242) 
-0

>  <i_i_glide_confnum>  (242) 
3

>  <i_i_glide_posenum>  (242) 
4

>  <r_i_glide_eff_state_penalty>  (242) 
0

>  <ligand_id>  (242) 
81

>  <original_smiles>  (242) 
COc1ccnc2ccn(C(C)C3CC3)c12

>  <smiles>  (242) 
[H]c1c(OC([H])([H])[H])c2c(c([H])c([H])n2C([H])(C([H])([H])[H])C2([H])C([H])([H])C2([H])[H])[n+]([H])c1[H]

$$$$
81:0:2
     RDKit          3D

 33 35  0  0  1  0  0  0  0  0999 V2000
   -7.0266   -4.7007   -3.9049 C   0  0  0  0  0  0  0  0  0  0  0  0
   -7.5917   -5.5782   -4.8699 O   0  0  0  0  0  0  0  0  0  0  0  0
   -6.7818   -6.5061   -5.4702 C   0  0  0  0  0  0  0  0  0  0  0  0
   -5.5254   -6.8837   -4.9212 C   0  0  0  0  0  0  0  0  0  0  0  0
   -4.7840   -7.9262   -5.5198 C   0  0  0  0  0  0  0  0  0  0  0  0
   -5.2593   -8.5367   -6.6234 N   0  0  0  0  0  0  0  0  0  0  0  0
   -6.4017   -8.1876   -7.2178 C   0  0  0  0  0  0  0  0  0  0  0  0
   -7.0492   -8.6836   -8.3933 C   0  0  0  0  0  0  0  0  0  0  0  0
   -8.1850   -7.9400   -8.5538 C   0  0  0  0  0  0  0  0  0  0  0  0
   -8.3055   -7.0147   -7.5198 N   0  0  0  0  0  0  0  0  0  0  0  0
   -9.3829   -6.0413   -7.4128 C   0  0  2  0  0  0  0  0  0  0  0  0
  -10.7210   -6.5592   -7.9838 C   0  0  0  0  0  0  0  0  0  0  0  0
   -8.9813   -4.7327   -8.0468 C   0  0  0  0  0  0  0  0  0  0  0  0
   -8.1534   -3.7062   -7.2978 C   0  0  0  0  0  0  0  0  0  0  0  0
   -9.6069   -3.4529   -7.5656 C   0  0  0  0  0  0  0  0  0  0  0  0
   -7.2048   -7.1499   -6.6621 C   0  0  0  0  0  0  0  0  0  0  0  0
   -7.7635   -3.9349   -3.7043 H   0  0  0  0  0  0  0  0  0  0  0  0
   -6.1382   -4.1835   -4.2733 H   0  0  0  0  0  0  0  0  0  0  0  0
   -6.7945   -5.1980   -2.9602 H   0  0  0  0  0  0  0  0  0  0  0  0
   -5.1568   -6.4090   -4.0289 H   0  0  0  0  0  0  0  0  0  0  0  0
   -3.8474   -8.3036   -5.1263 H   0  0  0  0  0  0  0  0  0  0  0  0
   -6.7130   -9.4790   -9.0407 H   0  0  0  0  0  0  0  0  0  0  0  0
   -8.9282   -8.0121   -9.3360 H   0  0  0  0  0  0  0  0  0  0  0  0
   -9.5388   -5.8488   -6.3509 H   0  0  0  0  0  0  0  0  0  0  0  0
  -11.5258   -5.8547   -7.7836 H   0  0  0  0  0  0  0  0  0  0  0  0
  -11.0114   -7.5145   -7.5397 H   0  0  0  0  0  0  0  0  0  0  0  0
  -10.6921   -6.6823   -9.0685 H   0  0  0  0  0  0  0  0  0  0  0  0
   -8.7734   -4.8168   -9.1162 H   0  0  0  0  0  0  0  0  0  0  0  0
   -7.9342   -3.7898   -6.2480 H   0  0  0  0  0  0  0  0  0  0  0  0
   -7.4199   -3.1479   -7.8965 H   0  0  0  0  0  0  0  0  0  0  0  0
   -9.7850   -2.6547   -8.2719 H   0  0  0  0  0  0  0  0  0  0  0  0
  -10.2985   -3.4978   -6.7193 H   0  0  0  0  0  0  0  0  0  0  0  0
   -4.7312   -9.3080   -7.0328 H   0  0  0  0  0  0  0  0  0  0  0  0
  1  2  1  0
  1 17  1  0
  1 18  1  0
  1 19  1  0
  2  3  1  0
  3 16  2  0
  3  4  1  0
  4  5  2  0
  4 20  1  0
  5  6  1  0
  5 21  1  0
  6  7  2  0
  6 33  1  0
  7 16  1  0
  7  8  1  0
  8  9  2  0
  8 22  1  0
  9 10  1  0
  9 23  1  0
 10 11  1  0
 10 16  1  0
 11 12  1  0
 11 13  1  0
 11 24  1  1
 12 25  1  0
 12 26  1  0
 12 27  1  0
 13 15  1  0
 13 14  1  0
 13 28  1  0
 14 15  1  0
 14 29  1  0
 14 30  1  0
 15 31  1  0
 15 32  1  0
M  CHG  1   6   1
M  END
>  <i_m_ct_stereo_status>  (243) 
1

>  <s_m_source_file>  (243) 
/var/tmp/pbs.5076255.sched01/tmprh8juyh8/78tr4t3sa2.sdf

>  <i_m_source_file_index>  (243) 
25

>  <i_lp_mmshare_version>  (243) 
48012

>  <i_f3d_flags>  (243) 
0

>  <s_epik_input>  (243) 
bjFbY0hdW2NIXWMoT1tDSDNdKWMoYzEyKW4oW2NIXVtjSF0yKVtDQEhdKFtDSDNdKVtDSF0zW0NIMl1bQ0gyXTM=

>  <s_epik_cmdline>  (243) 
J2VwaWtfcHl0aG9uJywgJy1waHQnLCAnMi4wJywgJy1waCcsICc3LjAnLCAnLXRuJywgJzgnLCAnLW1hJywgJzIwMCcsICctaW1hZScsICc8aW5maWxlLm1hZT4nLCAnLW9tYWUnLCAnPG91dGZpbGUubWFlPic=

>  <r_lp_tautomer_probability>  (243) 
1

>  <r_epik_Ionization_Penalty>  (243) 
0.0184717

>  <r_epik_Ionization_Penalty_Charging>  (243) 
0.0184717

>  <r_epik_Ionization_Penalty_Neutral>  (243) 
0

>  <r_epik_State_Penalty>  (243) 
0.0146999

>  <r_epik_Charging_Adjusted_Penalty>  (243) 
0.0331716

>  <i_epik_Tot_Q>  (243) 
1

>  <i_epik_Tot_abs_Q>  (243) 
1

>  <s_lp_Force_Field>  (243) 
OPLS3e

>  <r_lp_Energy>  (243) 
27.1262

>  <b_lp_Chiralities_Consistent>  (243) 
1

>  <s_lp_Variant>  (243) 
81:0-1

>  <s_i_glide_gridfile>  (243) 
pfpi4k_grid

>  <i_i_glide_lignum>  (243) 
25

>  <i_i_glide_rotatable_bonds>  (243) 
3

>  <r_i_docking_score>  (243) 
-4.72426

>  <r_i_glide_ligand_efficiency>  (243) 
-0.295267

>  <r_i_glide_ligand_efficiency_sa>  (243) 
-0.744025

>  <r_i_glide_ligand_efficiency_ln>  (243) 
-1.25226

>  <r_i_glide_gscore>  (243) 
-4.72426

>  <r_i_glide_lipo>  (243) 
-2.18759

>  <r_i_glide_hbond>  (243) 
0

>  <r_i_glide_metal>  (243) 
-0

>  <r_i_glide_rewards>  (243) 
-2.12784

>  <r_i_glide_evdw>  (243) 
-20.8255

>  <r_i_glide_ecoul>  (243) 
-0.521977

>  <r_i_glide_erotb>  (243) 
0.71074

>  <r_i_glide_esite>  (243) 
0

>  <r_i_glide_emodel>  (243) 
-27.8341

>  <r_i_glide_energy>  (243) 
-21.3475

>  <r_i_glide_einternal>  (243) 
0.406898

>  <r_i_glide_intrahb_reward>  (243) 
-0

>  <i_i_glide_confnum>  (243) 
1

>  <i_i_glide_posenum>  (243) 
23

>  <r_i_glide_eff_state_penalty>  (243) 
0

>  <ligand_id>  (243) 
81

>  <original_smiles>  (243) 
COc1ccnc2ccn(C(C)C3CC3)c12

>  <smiles>  (243) 
[H]c1c(OC([H])([H])[H])c2c(c([H])c([H])n2C([H])(C([H])([H])[H])C2([H])C([H])([H])C2([H])[H])[n+]([H])c1[H]

$$$$
81:1:0
     RDKit          3D

 32 34  0  0  1  0  0  0  0  0999 V2000
   -2.6171    3.9783    2.7260 C   0  0  0  0  0  0  0  0  0  0  0  0
   -2.1696    3.5357    3.9999 O   0  0  0  0  0  0  0  0  0  0  0  0
   -1.3872    2.4046    4.0585 C   0  0  0  0  0  0  0  0  0  0  0  0
   -0.9335    1.6858    2.9316 C   0  0  0  0  0  0  0  0  0  0  0  0
   -0.1392    0.5563    3.1103 C   0  0  0  0  0  0  0  0  0  0  0  0
    0.2328    0.0675    4.3251 N   0  0  0  0  0  0  0  0  0  0  0  0
   -0.1864    0.7363    5.4085 C   0  0  0  0  0  0  0  0  0  0  0  0
    0.0440    0.4460    6.7849 C   0  0  0  0  0  0  0  0  0  0  0  0
   -0.5967    1.4300    7.5037 C   0  0  0  0  0  0  0  0  0  0  0  0
   -1.2303    2.3123    6.6481 N   0  0  0  0  0  0  0  0  0  0  0  0
   -2.0214    3.4596    7.1096 C   0  0  2  0  0  0  0  0  0  0  0  0
   -1.1206    4.5532    7.7329 C   0  0  0  0  0  0  0  0  0  0  0  0
   -3.1495    2.9656    8.0093 C   0  0  0  0  0  0  0  0  0  0  0  0
   -3.9116    3.8937    8.9308 C   0  0  0  0  0  0  0  0  0  0  0  0
   -2.9961    2.8469    9.5124 C   0  0  0  0  0  0  0  0  0  0  0  0
   -0.9982    1.9078    5.3284 C   0  0  0  0  0  0  0  0  0  0  0  0
   -3.2309    4.8664    2.8628 H   0  0  0  0  0  0  0  0  0  0  0  0
   -3.2279    3.2222    2.2302 H   0  0  0  0  0  0  0  0  0  0  0  0
   -1.7860    4.2575    2.0851 H   0  0  0  0  0  0  0  0  0  0  0  0
   -1.1752    1.9920    1.9139 H   0  0  0  0  0  0  0  0  0  0  0  0
    0.2200   -0.0089    2.2591 H   0  0  0  0  0  0  0  0  0  0  0  0
    0.6302   -0.3704    7.1719 H   0  0  0  0  0  0  0  0  0  0  0  0
   -0.6485    1.5599    8.5760 H   0  0  0  0  0  0  0  0  0  0  0  0
   -2.5170    3.8955    6.2523 H   0  0  0  0  0  0  0  0  0  0  0  0
   -1.7005    5.4471    7.9580 H   0  0  0  0  0  0  0  0  0  0  0  0
   -0.3184    4.8613    7.0547 H   0  0  0  0  0  0  0  0  0  0  0  0
   -0.6552    4.2235    8.6634 H   0  0  0  0  0  0  0  0  0  0  0  0
   -3.7550    2.2066    7.5213 H   0  0  0  0  0  0  0  0  0  0  0  0
   -3.6062    4.9361    8.9691 H   0  0  0  0  0  0  0  0  0  0  0  0
   -4.9827    3.7267    9.0445 H   0  0  0  0  0  0  0  0  0  0  0  0
   -3.4724    2.0030   10.0074 H   0  0  0  0  0  0  0  0  0  0  0  0
   -2.0509    3.1617    9.9547 H   0  0  0  0  0  0  0  0  0  0  0  0
  1  2  1  0
  1 17  1  0
  1 18  1  0
  1 19  1  0
  2  3  1  0
  3 16  2  0
  3  4  1  0
  4  5  2  0
  4 20  1  0
  5  6  1  0
  5 21  1  0
  6  7  2  0
  7 16  1  0
  7  8  1  0
  8  9  2  0
  8 22  1  0
  9 10  1  0
  9 23  1  0
 10 11  1  0
 10 16  1  0
 11 12  1  0
 11 13  1  0
 11 24  1  6
 12 25  1  0
 12 26  1  0
 12 27  1  0
 13 15  1  0
 13 14  1  0
 13 28  1  0
 14 15  1  0
 14 29  1  0
 14 30  1  0
 15 31  1  0
 15 32  1  0
M  END
>  <i_m_ct_stereo_status>  (244) 
1

>  <s_m_source_file>  (244) 
/var/tmp/pbs.5076255.sched01/tmprh8juyh8/78tr4t3sa2.sdf

>  <i_m_source_file_index>  (244) 
26

>  <i_lp_mmshare_version>  (244) 
48012

>  <i_f3d_flags>  (244) 
0

>  <s_epik_input>  (244) 
bjFbY0hdW2NIXWMoT1tDSDNdKWMoYzEyKW4oW2NIXVtjSF0yKVtDQEhdKFtDSDNdKVtDSF0zW0NIMl1bQ0gyXTM=

>  <s_epik_cmdline>  (244) 
J2VwaWtfcHl0aG9uJywgJy1waHQnLCAnMi4wJywgJy1waCcsICc3LjAnLCAnLXRuJywgJzgnLCAnLW1hJywgJzIwMCcsICctaW1hZScsICc8aW5maWxlLm1hZT4nLCAnLW9tYWUnLCAnPG91dGZpbGUubWFlPic=

>  <r_lp_tautomer_probability>  (244) 
1

>  <r_epik_Ionization_Penalty>  (244) 
2.064

>  <r_epik_Ionization_Penalty_Charging>  (244) 
0

>  <r_epik_Ionization_Penalty_Neutral>  (244) 
2.064

>  <r_epik_State_Penalty>  (244) 
2.19745

>  <r_epik_Charging_Adjusted_Penalty>  (244) 
2.19745

>  <i_epik_Tot_Q>  (244) 
0

>  <i_epik_Tot_abs_Q>  (244) 
0

>  <s_lp_Force_Field>  (244) 
OPLS3e

>  <r_lp_Energy>  (244) 
23.9209

>  <b_lp_Chiralities_Consistent>  (244) 
1

>  <s_lp_Variant>  (244) 
81:0-2

>  <s_i_glide_gridfile>  (244) 
pfpi4k_grid

>  <i_i_glide_lignum>  (244) 
26

>  <i_i_glide_rotatable_bonds>  (244) 
3

>  <r_i_docking_score>  (244) 
-2.38613

>  <r_i_glide_ligand_efficiency>  (244) 
-0.149133

>  <r_i_glide_ligand_efficiency_sa>  (244) 
-0.375792

>  <r_i_glide_ligand_efficiency_ln>  (244) 
-0.632492

>  <r_i_glide_gscore>  (244) 
-2.38613

>  <r_i_glide_lipo>  (244) 
-0.262279

>  <r_i_glide_hbond>  (244) 
0

>  <r_i_glide_metal>  (244) 
-0

>  <r_i_glide_rewards>  (244) 
-1.93446

>  <r_i_glide_evdw>  (244) 
-17.7041

>  <r_i_glide_ecoul>  (244) 
-0.118468

>  <r_i_glide_erotb>  (244) 
0.716327

>  <r_i_glide_esite>  (244) 
-0.0027422

>  <r_i_glide_emodel>  (244) 
-17.7574

>  <r_i_glide_energy>  (244) 
-17.8226

>  <r_i_glide_einternal>  (244) 
5.88693

>  <r_i_glide_intrahb_reward>  (244) 
-0

>  <i_i_glide_confnum>  (244) 
3

>  <i_i_glide_posenum>  (244) 
28

>  <r_i_glide_eff_state_penalty>  (244) 
0

>  <ligand_id>  (244) 
81

>  <original_smiles>  (244) 
COc1ccnc2ccn(C(C)C3CC3)c12

>  <smiles>  (244) 
[H]c1nc2c([H])c([H])n(C([H])(C([H])([H])[H])C3([H])C([H])([H])C3([H])[H])c2c(OC([H])([H])[H])c1[H]

$$$$
81:1:1
     RDKit          3D

 32 34  0  0  1  0  0  0  0  0999 V2000
   -1.2916    4.6468    3.1426 C   0  0  0  0  0  0  0  0  0  0  0  0
   -0.9319    4.3396    4.4824 O   0  0  0  0  0  0  0  0  0  0  0  0
    0.2647    3.6799    4.6951 C   0  0  0  0  0  0  0  0  0  0  0  0
    1.1655    3.3185    3.6767 C   0  0  0  0  0  0  0  0  0  0  0  0
    2.3531    2.6491    4.0106 C   0  0  0  0  0  0  0  0  0  0  0  0
    2.7018    2.3141    5.2725 N   0  0  0  0  0  0  0  0  0  0  0  0
    1.8594    2.6422    6.2545 C   0  0  0  0  0  0  0  0  0  0  0  0
    1.9630    2.3970    7.6522 C   0  0  0  0  0  0  0  0  0  0  0  0
    0.8405    2.9081    8.2309 C   0  0  0  0  0  0  0  0  0  0  0  0
    0.0210    3.4953    7.2709 N   0  0  0  0  0  0  0  0  0  0  0  0
   -1.2837    4.1120    7.5460 C   0  0  2  0  0  0  0  0  0  0  0  0
   -1.3791    4.6445    8.9918 C   0  0  0  0  0  0  0  0  0  0  0  0
   -2.4144    3.1462    7.1915 C   0  0  0  0  0  0  0  0  0  0  0  0
   -3.6147    2.9066    8.0949 C   0  0  0  0  0  0  0  0  0  0  0  0
   -2.5591    1.8436    7.9469 C   0  0  0  0  0  0  0  0  0  0  0  0
    0.6252    3.3284    6.0198 C   0  0  0  0  0  0  0  0  0  0  0  0
   -2.2694    5.1217    3.1256 H   0  0  0  0  0  0  0  0  0  0  0  0
   -1.3672    3.7489    2.5257 H   0  0  0  0  0  0  0  0  0  0  0  0
   -0.5776    5.3449    2.7038 H   0  0  0  0  0  0  0  0  0  0  0  0
    0.9853    3.5364    2.6291 H   0  0  0  0  0  0  0  0  0  0  0  0
    3.0580    2.3604    3.2407 H   0  0  0  0  0  0  0  0  0  0  0  0
    2.7803    1.8916    8.1523 H   0  0  0  0  0  0  0  0  0  0  0  0
    0.5631    2.8938    9.2776 H   0  0  0  0  0  0  0  0  0  0  0  0
   -1.3750    4.9670    6.8783 H   0  0  0  0  0  0  0  0  0  0  0  0
   -2.2871    5.2271    9.1338 H   0  0  0  0  0  0  0  0  0  0  0  0
   -0.5273    5.2884    9.2562 H   0  0  0  0  0  0  0  0  0  0  0  0
   -1.4042    3.8324    9.7108 H   0  0  0  0  0  0  0  0  0  0  0  0
   -2.5845    3.0704    6.1236 H   0  0  0  0  0  0  0  0  0  0  0  0
   -3.6815    3.3992    9.0668 H   0  0  0  0  0  0  0  0  0  0  0  0
   -4.5741    2.7161    7.6046 H   0  0  0  0  0  0  0  0  0  0  0  0
   -2.8089    0.9539    7.3618 H   0  0  0  0  0  0  0  0  0  0  0  0
   -1.8574    1.6760    8.7621 H   0  0  0  0  0  0  0  0  0  0  0  0
  1  2  1  0
  1 17  1  0
  1 18  1  0
  1 19  1  0
  2  3  1  0
  3 16  2  0
  3  4  1  0
  4  5  2  0
  4 20  1  0
  5  6  1  0
  5 21  1  0
  6  7  2  0
  7 16  1  0
  7  8  1  0
  8  9  2  0
  8 22  1  0
  9 10  1  0
  9 23  1  0
 10 11  1  0
 10 16  1  0
 11 12  1  0
 11 13  1  0
 11 24  1  6
 12 25  1  0
 12 26  1  0
 12 27  1  0
 13 15  1  0
 13 14  1  0
 13 28  1  0
 14 15  1  0
 14 29  1  0
 14 30  1  0
 15 31  1  0
 15 32  1  0
M  END
>  <i_m_ct_stereo_status>  (245) 
1

>  <s_m_source_file>  (245) 
/var/tmp/pbs.5076255.sched01/tmprh8juyh8/78tr4t3sa2.sdf

>  <i_m_source_file_index>  (245) 
26

>  <i_lp_mmshare_version>  (245) 
48012

>  <i_f3d_flags>  (245) 
0

>  <s_epik_input>  (245) 
bjFbY0hdW2NIXWMoT1tDSDNdKWMoYzEyKW4oW2NIXVtjSF0yKVtDQEhdKFtDSDNdKVtDSF0zW0NIMl1bQ0gyXTM=

>  <s_epik_cmdline>  (245) 
J2VwaWtfcHl0aG9uJywgJy1waHQnLCAnMi4wJywgJy1waCcsICc3LjAnLCAnLXRuJywgJzgnLCAnLW1hJywgJzIwMCcsICctaW1hZScsICc8aW5maWxlLm1hZT4nLCAnLW9tYWUnLCAnPG91dGZpbGUubWFlPic=

>  <r_lp_tautomer_probability>  (245) 
1

>  <r_epik_Ionization_Penalty>  (245) 
2.064

>  <r_epik_Ionization_Penalty_Charging>  (245) 
0

>  <r_epik_Ionization_Penalty_Neutral>  (245) 
2.064

>  <r_epik_State_Penalty>  (245) 
2.19745

>  <r_epik_Charging_Adjusted_Penalty>  (245) 
2.19745

>  <i_epik_Tot_Q>  (245) 
0

>  <i_epik_Tot_abs_Q>  (245) 
0

>  <s_lp_Force_Field>  (245) 
OPLS3e

>  <r_lp_Energy>  (245) 
23.9209

>  <b_lp_Chiralities_Consistent>  (245) 
1

>  <s_lp_Variant>  (245) 
81:0-2

>  <s_i_glide_gridfile>  (245) 
pfpi4k_grid

>  <i_i_glide_lignum>  (245) 
26

>  <i_i_glide_rotatable_bonds>  (245) 
3

>  <r_i_docking_score>  (245) 
-2.09512

>  <r_i_glide_ligand_efficiency>  (245) 
-0.130945

>  <r_i_glide_ligand_efficiency_sa>  (245) 
-0.32996

>  <r_i_glide_ligand_efficiency_ln>  (245) 
-0.555352

>  <r_i_glide_gscore>  (245) 
-2.09512

>  <r_i_glide_lipo>  (245) 
-0.136656

>  <r_i_glide_hbond>  (245) 
0

>  <r_i_glide_metal>  (245) 
-0

>  <r_i_glide_rewards>  (245) 
-1.93446

>  <r_i_glide_evdw>  (245) 
-11.5625

>  <r_i_glide_ecoul>  (245) 
-1.08133

>  <r_i_glide_erotb>  (245) 
0.716327

>  <r_i_glide_esite>  (245) 
0

>  <r_i_glide_emodel>  (245) 
-12.398

>  <r_i_glide_energy>  (245) 
-12.6438

>  <r_i_glide_einternal>  (245) 
5.4753

>  <r_i_glide_intrahb_reward>  (245) 
-0

>  <i_i_glide_confnum>  (245) 
3

>  <i_i_glide_posenum>  (245) 
9

>  <r_i_glide_eff_state_penalty>  (245) 
0

>  <ligand_id>  (245) 
81

>  <original_smiles>  (245) 
COc1ccnc2ccn(C(C)C3CC3)c12

>  <smiles>  (245) 
[H]c1nc2c([H])c([H])n(C([H])(C([H])([H])[H])C3([H])C([H])([H])C3([H])[H])c2c(OC([H])([H])[H])c1[H]

$$$$
81:1:2
     RDKit          3D

 32 34  0  0  1  0  0  0  0  0999 V2000
    4.4431   -5.3260   -0.0709 C   0  0  0  0  0  0  0  0  0  0  0  0
    3.4252   -4.3495    0.0286 O   0  0  0  0  0  0  0  0  0  0  0  0
    3.8796   -3.0538    0.0916 C   0  0  0  0  0  0  0  0  0  0  0  0
    3.7844   -2.3658    1.3153 C   0  0  0  0  0  0  0  0  0  0  0  0
    4.1544   -1.0102    1.3474 C   0  0  0  0  0  0  0  0  0  0  0  0
    4.5790   -0.3284    0.2632 N   0  0  0  0  0  0  0  0  0  0  0  0
    4.6185   -0.9801   -0.9071 C   0  0  0  0  0  0  0  0  0  0  0  0
    4.9001   -0.4578   -2.2158 C   0  0  0  0  0  0  0  0  0  0  0  0
    4.7176   -1.4582   -3.1144 C   0  0  0  0  0  0  0  0  0  0  0  0
    4.3713   -2.6169   -2.4331 N   0  0  0  0  0  0  0  0  0  0  0  0
    3.9692   -3.8088   -3.1040 C   0  0  2  0  0  0  0  0  0  0  0  0
    4.7899   -4.1026   -4.3473 C   0  0  0  0  0  0  0  0  0  0  0  0
    2.4678   -3.7538   -3.4417 C   0  0  0  0  0  0  0  0  0  0  0  0
    1.7064   -2.5071   -3.8542 C   0  0  0  0  0  0  0  0  0  0  0  0
    1.4303   -3.1371   -2.4839 C   0  0  0  0  0  0  0  0  0  0  0  0
    4.2894   -2.3440   -1.0494 C   0  0  0  0  0  0  0  0  0  0  0  0
    3.9305   -6.2773   -0.2525 H   0  0  0  0  0  0  0  0  0  0  0  0
    4.9848   -5.3639    0.8826 H   0  0  0  0  0  0  0  0  0  0  0  0
    5.1881   -5.1699   -0.8207 H   0  0  0  0  0  0  0  0  0  0  0  0
    3.3979   -2.8626    2.1951 H   0  0  0  0  0  0  0  0  0  0  0  0
    4.1286   -0.4406    2.2704 H   0  0  0  0  0  0  0  0  0  0  0  0
    5.1210    0.5499   -2.4799 H   0  0  0  0  0  0  0  0  0  0  0  0
    4.8030   -1.4097   -4.1841 H   0  0  0  0  0  0  0  0  0  0  0  0
    4.2894   -4.6121   -2.5184 H   0  0  0  0  0  0  0  0  0  0  0  0
    4.6021   -5.1154   -4.7126 H   0  0  0  0  0  0  0  0  0  0  0  0
    5.8231   -3.9843   -4.0493 H   0  0  0  0  0  0  0  0  0  0  0  0
    4.5666   -3.3949   -5.1017 H   0  0  0  0  0  0  0  0  0  0  0  0
    2.1724   -4.6042   -4.0283 H   0  0  0  0  0  0  0  0  0  0  0  0
    2.2421   -1.5613   -3.8887 H   0  0  0  0  0  0  0  0  0  0  0  0
    0.9233   -2.6366   -4.5977 H   0  0  0  0  0  0  0  0  0  0  0  0
    0.4845   -3.5969   -2.2836 H   0  0  0  0  0  0  0  0  0  0  0  0
    1.7909   -2.6607   -1.5915 H   0  0  0  0  0  0  0  0  0  0  0  0
  1  2  1  0
  1 17  1  0
  1 18  1  0
  1 19  1  0
  2  3  1  0
  3 16  2  0
  3  4  1  0
  4  5  2  0
  4 20  1  0
  5  6  1  0
  5 21  1  0
  6  7  2  0
  7 16  1  0
  7  8  1  0
  8  9  2  0
  8 22  1  0
  9 10  1  0
  9 23  1  0
 10 11  1  0
 10 16  1  0
 11 12  1  0
 11 13  1  0
 11 24  1  1
 12 25  1  0
 12 26  1  0
 12 27  1  0
 13 15  1  0
 13 14  1  0
 13 28  1  0
 14 15  1  0
 14 29  1  0
 14 30  1  0
 15 31  1  0
 15 32  1  0
M  END
>  <i_m_ct_stereo_status>  (246) 
1

>  <s_m_source_file>  (246) 
/var/tmp/pbs.5076255.sched01/tmprh8juyh8/78tr4t3sa2.sdf

>  <i_m_source_file_index>  (246) 
26

>  <i_lp_mmshare_version>  (246) 
48012

>  <i_f3d_flags>  (246) 
0

>  <s_epik_input>  (246) 
bjFbY0hdW2NIXWMoT1tDSDNdKWMoYzEyKW4oW2NIXVtjSF0yKVtDQEhdKFtDSDNdKVtDSF0zW0NIMl1bQ0gyXTM=

>  <s_epik_cmdline>  (246) 
J2VwaWtfcHl0aG9uJywgJy1waHQnLCAnMi4wJywgJy1waCcsICc3LjAnLCAnLXRuJywgJzgnLCAnLW1hJywgJzIwMCcsICctaW1hZScsICc8aW5maWxlLm1hZT4nLCAnLW9tYWUnLCAnPG91dGZpbGUubWFlPic=

>  <r_lp_tautomer_probability>  (246) 
1

>  <r_epik_Ionization_Penalty>  (246) 
2.064

>  <r_epik_Ionization_Penalty_Charging>  (246) 
0

>  <r_epik_Ionization_Penalty_Neutral>  (246) 
2.064

>  <r_epik_State_Penalty>  (246) 
2.19745

>  <r_epik_Charging_Adjusted_Penalty>  (246) 
2.19745

>  <i_epik_Tot_Q>  (246) 
0

>  <i_epik_Tot_abs_Q>  (246) 
0

>  <s_lp_Force_Field>  (246) 
OPLS3e

>  <r_lp_Energy>  (246) 
23.9209

>  <b_lp_Chiralities_Consistent>  (246) 
1

>  <s_lp_Variant>  (246) 
81:0-2

>  <s_i_glide_gridfile>  (246) 
pfpi4k_grid

>  <i_i_glide_lignum>  (246) 
26

>  <i_i_glide_rotatable_bonds>  (246) 
3

>  <r_i_docking_score>  (246) 
-1.58854

>  <r_i_glide_ligand_efficiency>  (246) 
-0.0992838

>  <r_i_glide_ligand_efficiency_sa>  (246) 
-0.25018

>  <r_i_glide_ligand_efficiency_ln>  (246) 
-0.421075

>  <r_i_glide_gscore>  (246) 
-1.58854

>  <r_i_glide_lipo>  (246) 
-0.269464

>  <r_i_glide_hbond>  (246) 
0

>  <r_i_glide_metal>  (246) 
-0

>  <r_i_glide_rewards>  (246) 
-2.01358

>  <r_i_glide_evdw>  (246) 
-3.45404

>  <r_i_glide_ecoul>  (246) 
1.00582

>  <r_i_glide_erotb>  (246) 
0.716327

>  <r_i_glide_esite>  (246) 
0

>  <r_i_glide_emodel>  (246) 
3.50227

>  <r_i_glide_energy>  (246) 
-2.44822

>  <r_i_glide_einternal>  (246) 
11.5815

>  <r_i_glide_intrahb_reward>  (246) 
-0

>  <i_i_glide_confnum>  (246) 
2

>  <i_i_glide_posenum>  (246) 
2

>  <r_i_glide_eff_state_penalty>  (246) 
0

>  <ligand_id>  (246) 
81

>  <original_smiles>  (246) 
COc1ccnc2ccn(C(C)C3CC3)c12

>  <smiles>  (246) 
[H]c1nc2c([H])c([H])n(C([H])(C([H])([H])[H])C3([H])C([H])([H])C3([H])[H])c2c(OC([H])([H])[H])c1[H]

$$$$
82:0:0
     RDKit          3D

 41 44  0  0  1  0  0  0  0  0999 V2000
    3.5911   -3.9722   -4.1280 C   0  0  0  0  0  0  0  0  0  0  0  0
    4.6466   -3.9062   -3.1967 O   0  0  0  0  0  0  0  0  0  0  0  0
    4.9551   -2.6227   -2.8016 C   0  0  2  0  0  0  0  0  0  0  0  0
    6.2196   -2.5358   -2.1746 O   0  0  0  0  0  0  0  0  0  0  0  0
    6.4071   -3.2556   -0.9447 C   0  0  1  0  0  0  0  0  0  0  0  0
    7.3240   -2.4077    0.0067 C   0  0  0  0  0  0  0  0  0  0  0  0
    8.4711   -2.1749   -0.3217 O   0  0  0  0  0  0  0  0  0  0  0  0
    6.7202   -1.8819    1.2882 C   0  0  0  0  0  0  0  0  0  0  0  0
    5.6452   -2.5274    1.7970 C   0  0  0  0  0  0  0  0  0  0  0  0
    4.3813   -1.7294    2.1229 C   0  0  1  0  0  0  0  0  0  0  0  0
    4.7465   -0.3989    2.4594 O   0  0  0  0  0  0  0  0  0  0  0  0
    3.4561   -1.7483    0.8388 C   0  0  1  0  0  0  0  0  0  0  0  0
    2.6902   -0.5633    0.7889 O   0  0  0  0  0  0  0  0  0  0  0  0
    4.3310   -2.0648   -0.4310 C   0  0  2  0  0  0  0  0  0  0  0  0
    3.8125   -2.0469   -1.8747 C   0  0  1  0  0  0  0  0  0  0  0  0
    3.4432   -0.6813   -2.4530 C   0  0  0  0  0  0  0  0  0  0  0  0
    5.0812   -3.4331   -0.2226 C   0  0  1  0  0  0  0  0  0  0  0  0
    4.1865   -4.6752   -0.1769 C   0  0  0  0  0  0  0  0  0  0  0  0
    4.0464   -4.4897    1.2587 O   0  0  0  0  0  0  0  0  0  0  0  0
    5.3493   -3.8980    1.2233 C   0  0  2  0  0  0  0  0  0  0  0  0
    6.3745   -4.9720    1.6485 C   0  0  0  0  0  0  0  0  0  0  0  0
    3.4601   -5.0468   -4.3214 H   0  0  0  0  0  0  0  0  0  0  0  0
    3.8149   -3.4288   -5.0442 H   0  0  0  0  0  0  0  0  0  0  0  0
    2.6242   -3.6374   -3.7718 H   0  0  0  0  0  0  0  0  0  0  0  0
    5.0580   -2.0422   -3.7151 H   0  0  0  0  0  0  0  0  0  0  0  0
    6.8900   -4.2180   -1.1137 H   0  0  0  0  0  0  0  0  0  0  0  0
    6.9059   -0.8320    1.4674 H   0  0  0  0  0  0  0  0  0  0  0  0
    3.8534   -2.1889    2.9592 H   0  0  0  0  0  0  0  0  0  0  0  0
    5.0840   -0.3974    3.3340 H   0  0  0  0  0  0  0  0  0  0  0  0
    2.7219   -2.5409    0.9484 H   0  0  0  0  0  0  0  0  0  0  0  0
    1.9999   -0.6784    0.1227 H   0  0  0  0  0  0  0  0  0  0  0  0
    5.0202   -1.2169   -0.4713 H   0  0  0  0  0  0  0  0  0  0  0  0
    2.9264   -2.6776   -1.8777 H   0  0  0  0  0  0  0  0  0  0  0  0
    4.2189    0.0721   -2.2882 H   0  0  0  0  0  0  0  0  0  0  0  0
    2.5100   -0.3745   -1.9962 H   0  0  0  0  0  0  0  0  0  0  0  0
    3.2341   -0.7310   -3.5224 H   0  0  0  0  0  0  0  0  0  0  0  0
    3.2370   -4.5659   -0.7060 H   0  0  0  0  0  0  0  0  0  0  0  0
    4.6740   -5.6188   -0.4483 H   0  0  0  0  0  0  0  0  0  0  0  0
    7.4081   -4.6639    1.5108 H   0  0  0  0  0  0  0  0  0  0  0  0
    6.2616   -5.9125    1.1000 H   0  0  0  0  0  0  0  0  0  0  0  0
    6.2551   -5.2062    2.7025 H   0  0  0  0  0  0  0  0  0  0  0  0
  1  2  1  0
  1 22  1  0
  1 23  1  0
  1 24  1  0
  2  3  1  0
  3 15  1  0
  3  4  1  0
  3 25  1  6
  4  5  1  0
  5 17  1  0
  5  6  1  0
  5 26  1  6
  6  7  2  0
  6  8  1  0
  8  9  2  0
  8 27  1  0
  9 20  1  0
  9 10  1  0
 10 11  1  0
 10 12  1  0
 10 28  1  1
 11 29  1  0
 12 13  1  0
 12 14  1  0
 12 30  1  1
 13 31  1  0
 14 15  1  0
 14 17  1  0
 14 32  1  6
 15 16  1  0
 15 33  1  1
 16 34  1  0
 16 35  1  0
 16 36  1  0
 17 20  1  0
 17 18  1  6
 18 19  1  0
 18 37  1  0
 18 38  1  0
 19 20  1  0
 20 21  1  6
 21 39  1  0
 21 40  1  0
 21 41  1  0
M  END
>  <i_m_ct_stereo_status>  (247) 
1

>  <s_m_source_file>  (247) 
/var/tmp/pbs.5076255.sched01/tmprh8juyh8/78tr4t3sa2.sdf

>  <i_m_source_file_index>  (247) 
27

>  <i_lp_mmshare_version>  (247) 
48012

>  <i_f3d_flags>  (247) 
0

>  <s_epik_input>  (247) 
W0NAXTEyM1tDSF00T1tDQEBIXShPW0NIM10pW0NASF0oW0NIM10pW0NASF0xW0NASF0oW09IXSlbQ0BIXShbT0hdKUMoPVtDSF1DND1PKVtDQEBdMyhbQ0gzXSlPW0NIMl0y

>  <s_epik_cmdline>  (247) 
J2VwaWtfcHl0aG9uJywgJy1waHQnLCAnMi4wJywgJy1waCcsICc3LjAnLCAnLXRuJywgJzgnLCAnLW1hJywgJzIwMCcsICctaW1hZScsICc8aW5maWxlLm1hZT4nLCAnLW9tYWUnLCAnPG91dGZpbGUubWFlPic=

>  <r_lp_tautomer_probability>  (247) 
1

>  <r_epik_Ionization_Penalty>  (247) 
7.14042e-05

>  <r_epik_Ionization_Penalty_Charging>  (247) 
0

>  <r_epik_Ionization_Penalty_Neutral>  (247) 
7.14042e-05

>  <r_epik_State_Penalty>  (247) 
-0

>  <r_epik_Charging_Adjusted_Penalty>  (247) 
0

>  <i_epik_Tot_Q>  (247) 
0

>  <i_epik_Tot_abs_Q>  (247) 
0

>  <s_epik_Chemistry_Notes>  (247) 
This compound contains an acetal/aminal-like group ( X-CH(R)-Y where X, Y are N, S, or O) that may be acid/base labile, releasing an aldehyde.

>  <s_lp_Force_Field>  (247) 
OPLS3e

>  <r_lp_Energy>  (247) 
97.5266

>  <b_lp_Chiralities_Consistent>  (247) 
1

>  <s_lp_Variant>  (247) 
82:0-1

>  <s_i_glide_gridfile>  (247) 
pfpi4k_grid

>  <i_i_glide_lignum>  (247) 
27

>  <i_i_glide_rotatable_bonds>  (247) 
3

>  <r_i_docking_score>  (247) 
-3.54156

>  <r_i_glide_ligand_efficiency>  (247) 
-0.168646

>  <r_i_glide_ligand_efficiency_sa>  (247) 
-0.465281

>  <r_i_glide_ligand_efficiency_ln>  (247) 
-0.875644

>  <r_i_glide_gscore>  (247) 
-3.54156

>  <r_i_glide_lipo>  (247) 
-0.400332

>  <r_i_glide_hbond>  (247) 
-0.078718

>  <r_i_glide_metal>  (247) 
-0

>  <r_i_glide_rewards>  (247) 
-1.64024

>  <r_i_glide_evdw>  (247) 
-13.0645

>  <r_i_glide_ecoul>  (247) 
-5.12701

>  <r_i_glide_erotb>  (247) 
0

>  <r_i_glide_esite>  (247) 
0

>  <r_i_glide_emodel>  (247) 
-18.0863

>  <r_i_glide_energy>  (247) 
-18.1915

>  <r_i_glide_einternal>  (247) 
5.12127

>  <r_i_glide_intrahb_reward>  (247) 
-0

>  <i_i_glide_confnum>  (247) 
2

>  <i_i_glide_posenum>  (247) 
21

>  <r_i_glide_eff_state_penalty>  (247) 
0

>  <ligand_id>  (247) 
82

>  <original_smiles>  (247) 
COC1OC2C(=O)C=C3C(O)C(O)C(C1C)C21COC31C

>  <smiles>  (247) 
[H]OC1([H])C2=C([H])C(=O)C3([H])OC([H])(OC([H])([H])[H])C([H])(C([H])([H])[H])C([H])(C1([H])O[H])C31C([H])([H])OC21C([H])([H])[H]

$$$$
82:0:1
     RDKit          3D

 41 44  0  0  1  0  0  0  0  0999 V2000
    2.9496   -3.1865   -4.2025 C   0  0  0  0  0  0  0  0  0  0  0  0
    3.8386   -3.7275   -3.2312 O   0  0  0  0  0  0  0  0  0  0  0  0
    4.8279   -2.8701   -2.7648 C   0  0  2  0  0  0  0  0  0  0  0  0
    5.8679   -3.5422   -2.0670 O   0  0  0  0  0  0  0  0  0  0  0  0
    5.5398   -4.2432   -0.8449 C   0  0  1  0  0  0  0  0  0  0  0  0
    6.7353   -4.0892    0.2027 C   0  0  0  0  0  0  0  0  0  0  0  0
    7.8562   -4.4973   -0.0106 O   0  0  0  0  0  0  0  0  0  0  0  0
    6.4470   -3.3449    1.4742 C   0  0  0  0  0  0  0  0  0  0  0  0
    5.1652   -3.2005    1.8794 C   0  0  0  0  0  0  0  0  0  0  0  0
    4.6220   -1.7960    2.1490 C   0  0  1  0  0  0  0  0  0  0  0  0
    5.6744   -0.9232    2.5352 O   0  0  0  0  0  0  0  0  0  0  0  0
    3.9595   -1.2654    0.8180 C   0  0  1  0  0  0  0  0  0  0  0  0
    4.0779    0.1407    0.7219 O   0  0  0  0  0  0  0  0  0  0  0  0
    4.5374   -2.0572   -0.4093 C   0  0  2  0  0  0  0  0  0  0  0  0
    4.2027   -1.7346   -1.8733 C   0  0  1  0  0  0  0  0  0  0  0  0
    4.7521   -0.4143   -2.4006 C   0  0  0  0  0  0  0  0  0  0  0  0
    4.3158   -3.5958   -0.2068 C   0  0  1  0  0  0  0  0  0  0  0  0
    2.8524   -4.0400   -0.2486 C   0  0  0  0  0  0  0  0  0  0  0  0
    2.7600   -3.8107    1.1919 O   0  0  0  0  0  0  0  0  0  0  0  0
    4.1594   -4.1188    1.2355 C   0  0  2  0  0  0  0  0  0  0  0  0
    4.3072   -5.5950    1.6717 C   0  0  0  0  0  0  0  0  0  0  0  0
    2.1899   -3.9191   -4.4499 H   0  0  0  0  0  0  0  0  0  0  0  0
    3.4811   -2.9293   -5.1104 H   0  0  0  0  0  0  0  0  0  0  0  0
    2.4185   -2.2868   -3.9019 H   0  0  0  0  0  0  0  0  0  0  0  0
    5.3352   -2.4791   -3.6459 H   0  0  0  0  0  0  0  0  0  0  0  0
    5.3536   -5.3006   -1.0499 H   0  0  0  0  0  0  0  0  0  0  0  0
    7.2021   -2.6055    1.6820 H   0  0  0  0  0  0  0  0  0  0  0  0
    3.8765   -1.8370    2.9419 H   0  0  0  0  0  0  0  0  0  0  0  0
    5.8053   -1.0232    3.4663 H   0  0  0  0  0  0  0  0  0  0  0  0
    2.8896   -1.4458    0.8708 H   0  0  0  0  0  0  0  0  0  0  0  0
    4.9348    0.3587    0.3749 H   0  0  0  0  0  0  0  0  0  0  0  0
    5.6000   -1.7950   -0.3821 H   0  0  0  0  0  0  0  0  0  0  0  0
    3.1200   -1.7010   -1.9496 H   0  0  0  0  0  0  0  0  0  0  0  0
    5.8161   -0.3001   -2.1771 H   0  0  0  0  0  0  0  0  0  0  0  0
    4.2203    0.4154   -1.9487 H   0  0  0  0  0  0  0  0  0  0  0  0
    4.6091   -0.3064   -3.4774 H   0  0  0  0  0  0  0  0  0  0  0  0
    2.1918   -3.3812   -0.8099 H   0  0  0  0  0  0  0  0  0  0  0  0
    2.6792   -5.0843   -0.5216 H   0  0  0  0  0  0  0  0  0  0  0  0
    5.3250   -5.9631    1.5922 H   0  0  0  0  0  0  0  0  0  0  0  0
    3.6850   -6.2745    1.0878 H   0  0  0  0  0  0  0  0  0  0  0  0
    4.0120   -5.7041    2.7146 H   0  0  0  0  0  0  0  0  0  0  0  0
  1  2  1  0
  1 22  1  0
  1 23  1  0
  1 24  1  0
  2  3  1  0
  3 15  1  0
  3  4  1  0
  3 25  1  6
  4  5  1  0
  5 17  1  0
  5  6  1  0
  5 26  1  6
  6  7  2  0
  6  8  1  0
  8  9  2  0
  8 27  1  0
  9 20  1  0
  9 10  1  0
 10 11  1  0
 10 12  1  0
 10 28  1  1
 11 29  1  0
 12 13  1  0
 12 14  1  0
 12 30  1  1
 13 31  1  0
 14 15  1  0
 14 17  1  0
 14 32  1  6
 15 16  1  0
 15 33  1  1
 16 34  1  0
 16 35  1  0
 16 36  1  0
 17 20  1  0
 17 18  1  6
 18 19  1  0
 18 37  1  0
 18 38  1  0
 19 20  1  0
 20 21  1  6
 21 39  1  0
 21 40  1  0
 21 41  1  0
M  END
>  <i_m_ct_stereo_status>  (248) 
1

>  <s_m_source_file>  (248) 
/var/tmp/pbs.5076255.sched01/tmprh8juyh8/78tr4t3sa2.sdf

>  <i_m_source_file_index>  (248) 
27

>  <i_lp_mmshare_version>  (248) 
48012

>  <i_f3d_flags>  (248) 
0

>  <s_epik_input>  (248) 
W0NAXTEyM1tDSF00T1tDQEBIXShPW0NIM10pW0NASF0oW0NIM10pW0NASF0xW0NASF0oW09IXSlbQ0BIXShbT0hdKUMoPVtDSF1DND1PKVtDQEBdMyhbQ0gzXSlPW0NIMl0y

>  <s_epik_cmdline>  (248) 
J2VwaWtfcHl0aG9uJywgJy1waHQnLCAnMi4wJywgJy1waCcsICc3LjAnLCAnLXRuJywgJzgnLCAnLW1hJywgJzIwMCcsICctaW1hZScsICc8aW5maWxlLm1hZT4nLCAnLW9tYWUnLCAnPG91dGZpbGUubWFlPic=

>  <r_lp_tautomer_probability>  (248) 
1

>  <r_epik_Ionization_Penalty>  (248) 
7.14042e-05

>  <r_epik_Ionization_Penalty_Charging>  (248) 
0

>  <r_epik_Ionization_Penalty_Neutral>  (248) 
7.14042e-05

>  <r_epik_State_Penalty>  (248) 
-0

>  <r_epik_Charging_Adjusted_Penalty>  (248) 
0

>  <i_epik_Tot_Q>  (248) 
0

>  <i_epik_Tot_abs_Q>  (248) 
0

>  <s_epik_Chemistry_Notes>  (248) 
This compound contains an acetal/aminal-like group ( X-CH(R)-Y where X, Y are N, S, or O) that may be acid/base labile, releasing an aldehyde.

>  <s_lp_Force_Field>  (248) 
OPLS3e

>  <r_lp_Energy>  (248) 
97.5266

>  <b_lp_Chiralities_Consistent>  (248) 
1

>  <s_lp_Variant>  (248) 
82:0-1

>  <s_i_glide_gridfile>  (248) 
pfpi4k_grid

>  <i_i_glide_lignum>  (248) 
27

>  <i_i_glide_rotatable_bonds>  (248) 
3

>  <r_i_docking_score>  (248) 
-2.64015

>  <r_i_glide_ligand_efficiency>  (248) 
-0.125722

>  <r_i_glide_ligand_efficiency_sa>  (248) 
-0.346856

>  <r_i_glide_ligand_efficiency_ln>  (248) 
-0.652773

>  <r_i_glide_gscore>  (248) 
-2.64015

>  <r_i_glide_lipo>  (248) 
-0.242311

>  <r_i_glide_hbond>  (248) 
0

>  <r_i_glide_metal>  (248) 
-0

>  <r_i_glide_rewards>  (248) 
-1.72456

>  <r_i_glide_evdw>  (248) 
-15.1502

>  <r_i_glide_ecoul>  (248) 
0.561481

>  <r_i_glide_erotb>  (248) 
0

>  <r_i_glide_esite>  (248) 
0

>  <r_i_glide_emodel>  (248) 
-13.7439

>  <r_i_glide_energy>  (248) 
-14.5887

>  <r_i_glide_einternal>  (248) 
4.51282

>  <r_i_glide_intrahb_reward>  (248) 
-0

>  <i_i_glide_confnum>  (248) 
2

>  <i_i_glide_posenum>  (248) 
11

>  <r_i_glide_eff_state_penalty>  (248) 
0

>  <ligand_id>  (248) 
82

>  <original_smiles>  (248) 
COC1OC2C(=O)C=C3C(O)C(O)C(C1C)C21COC31C

>  <smiles>  (248) 
[H]OC1([H])C2=C([H])C(=O)C3([H])OC([H])(OC([H])([H])[H])C([H])(C([H])([H])[H])C([H])(C1([H])O[H])C31C([H])([H])OC21C([H])([H])[H]

$$$$
83:0:0
     RDKit          3D

 34 37  0  0  1  0  0  0  0  0999 V2000
   -1.2315   -7.6987    2.8900 C   0  0  0  0  0  0  0  0  0  0  0  0
    0.0829   -7.5038    2.3065 N   0  0  0  0  0  0  0  0  0  0  0  0
    1.0571   -8.4558    2.0782 C   0  0  0  0  0  0  0  0  0  0  0  0
    2.1653   -7.7752    1.6847 C   0  0  0  0  0  0  0  0  0  0  0  0
    1.7768   -6.4040    1.7261 C   0  0  0  0  0  0  0  0  0  0  0  0
    2.7630   -5.2811    1.5510 C   0  0  0  0  0  0  0  0  0  0  0  0
    3.7906   -5.5082    0.9119 O   0  0  0  0  0  0  0  0  0  0  0  0
    2.4670   -4.0366    2.0899 N   0  0  0  0  0  0  0  0  0  0  0  0
    2.7942   -2.8097    1.5024 C   0  0  0  0  0  0  0  0  0  0  0  0
    3.3967   -2.5211    0.1857 C   0  0  0  0  0  0  0  0  0  0  0  0
    4.1792   -1.3445   -0.0133 C   0  0  0  0  0  0  0  0  0  0  0  0
    4.7939   -1.0624   -1.1903 N   0  0  0  0  0  0  0  0  0  0  0  0
    4.5762   -1.9362   -2.2043 C   0  0  0  0  0  0  0  0  0  0  0  0
    3.7733   -3.0858   -2.0154 C   0  0  0  0  0  0  0  0  0  0  0  0
    3.1878   -3.3752   -0.8361 N   0  0  0  0  0  0  0  0  0  0  0  0
    2.4411   -1.8249    2.3370 N   0  0  0  0  0  0  0  0  0  0  0  0
    1.8357   -2.4262    3.4313 C   0  0  0  0  0  0  0  0  0  0  0  0
    1.2770   -1.7845    4.4682 N   0  0  0  0  0  0  0  0  0  0  0  0
    0.7385   -2.5596    5.4332 C   0  0  0  0  0  0  0  0  0  0  0  0
    0.7247   -3.9723    5.4312 C   0  0  0  0  0  0  0  0  0  0  0  0
    1.3228   -4.6434    4.3503 C   0  0  0  0  0  0  0  0  0  0  0  0
    1.8547   -3.8496    3.3111 C   0  0  0  0  0  0  0  0  0  0  0  0
    0.4979   -6.2638    2.0198 N   0  0  0  0  0  0  0  0  0  0  0  0
   -1.6028   -8.7123    2.7209 H   0  0  0  0  0  0  0  0  0  0  0  0
   -1.9056   -6.9784    2.4390 H   0  0  0  0  0  0  0  0  0  0  0  0
   -1.1969   -7.4891    3.9648 H   0  0  0  0  0  0  0  0  0  0  0  0
    0.9190   -9.5160    2.2041 H   0  0  0  0  0  0  0  0  0  0  0  0
    3.1254   -8.1793    1.4268 H   0  0  0  0  0  0  0  0  0  0  0  0
    4.3274   -0.6324    0.7862 H   0  0  0  0  0  0  0  0  0  0  0  0
    5.0537   -1.7151   -3.1473 H   0  0  0  0  0  0  0  0  0  0  0  0
    3.6624   -3.8131   -2.8124 H   0  0  0  0  0  0  0  0  0  0  0  0
    0.3190   -2.0150    6.2714 H   0  0  0  0  0  0  0  0  0  0  0  0
    0.2675   -4.5213    6.2387 H   0  0  0  0  0  0  0  0  0  0  0  0
    1.3391   -5.7270    4.3365 H   0  0  0  0  0  0  0  0  0  0  0  0
  1  2  1  0
  1 24  1  0
  1 25  1  0
  1 26  1  0
  2 23  1  0
  2  3  1  0
  3  4  2  0
  3 27  1  0
  4  5  1  0
  4 28  1  0
  5  6  1  0
  5 23  2  0
  6  7  2  0
  6  8  1  0
  8 22  1  0
  8  9  1  0
  9 10  1  0
  9 16  2  0
 10 15  1  0
 10 11  2  0
 11 12  1  0
 11 29  1  0
 12 13  2  0
 13 14  1  0
 13 30  1  0
 14 15  2  0
 14 31  1  0
 16 17  1  0
 17 22  2  0
 17 18  1  0
 18 19  2  0
 19 20  1  0
 19 32  1  0
 20 21  2  0
 20 33  1  0
 21 22  1  0
 21 34  1  0
M  END
>  <i_m_ct_stereo_status>  (249) 
1

>  <s_m_source_file>  (249) 
/var/tmp/pbs.5076255.sched01/tmprh8juyh8/78tr4t3sa2.sdf

>  <i_m_source_file_index>  (249) 
28

>  <i_lp_mmshare_version>  (249) 
48012

>  <i_f3d_flags>  (249) 
0

>  <s_epik_input>  (249) 
W0NIM11uMVtjSF1bY0hdYyhuMSlDKD1PKW4oYyhjMjMpW2NIXVtjSF1bY0hdbjMpYyhuMiktYzRbY0hdbltjSF1bY0hdbjQ=

>  <s_epik_cmdline>  (249) 
J2VwaWtfcHl0aG9uJywgJy1waHQnLCAnMi4wJywgJy1waCcsICc3LjAnLCAnLXRuJywgJzgnLCAnLW1hJywgJzIwMCcsICctaW1hZScsICc8aW5maWxlLm1hZT4nLCAnLW9tYWUnLCAnPG91dGZpbGUubWFlPic=

>  <r_lp_tautomer_probability>  (249) 
1

>  <r_epik_Ionization_Penalty>  (249) 
3.07684e-08

>  <r_epik_Ionization_Penalty_Charging>  (249) 
0

>  <r_epik_Ionization_Penalty_Neutral>  (249) 
3.07684e-08

>  <r_epik_State_Penalty>  (249) 
-0

>  <r_epik_Charging_Adjusted_Penalty>  (249) 
0

>  <i_epik_Tot_Q>  (249) 
0

>  <i_epik_Tot_abs_Q>  (249) 
0

>  <s_lp_Force_Field>  (249) 
OPLS3e

>  <r_lp_Energy>  (249) 
48.4345

>  <b_lp_Chiralities_Consistent>  (249) 
1

>  <s_lp_Variant>  (249) 
83:0-1

>  <s_i_glide_gridfile>  (249) 
pfpi4k_grid

>  <i_i_glide_lignum>  (249) 
28

>  <i_i_glide_rotatable_bonds>  (249) 
3

>  <r_i_docking_score>  (249) 
-2.62262

>  <r_i_glide_ligand_efficiency>  (249) 
-0.114027

>  <r_i_glide_ligand_efficiency_sa>  (249) 
-0.324278

>  <r_i_glide_ligand_efficiency_ln>  (249) 
-0.634174

>  <r_i_glide_gscore>  (249) 
-2.62262

>  <r_i_glide_lipo>  (249) 
-0.00111885

>  <r_i_glide_hbond>  (249) 
-0.154263

>  <r_i_glide_metal>  (249) 
-0

>  <r_i_glide_rewards>  (249) 
-1.35426

>  <r_i_glide_evdw>  (249) 
-26.6852

>  <r_i_glide_ecoul>  (249) 
-1.82078

>  <r_i_glide_erotb>  (249) 
0.594017

>  <r_i_glide_esite>  (249) 
-0.0996263

>  <r_i_glide_emodel>  (249) 
-32.565

>  <r_i_glide_energy>  (249) 
-28.506

>  <r_i_glide_einternal>  (249) 
0.567474

>  <r_i_glide_intrahb_reward>  (249) 
-0

>  <i_i_glide_confnum>  (249) 
6

>  <i_i_glide_posenum>  (249) 
35

>  <r_i_glide_eff_state_penalty>  (249) 
0

>  <ligand_id>  (249) 
83

>  <original_smiles>  (249) 
Cn1ccc(C(=O)n2c(-c3cnccn3)nc3ncccc32)n1

>  <smiles>  (249) 
[H]c1nc([H])c(-c2nc3nc([H])c([H])c([H])c3n2C(=O)c2nn(C([H])([H])[H])c([H])c2[H])nc1[H]

$$$$
83:0:1
     RDKit          3D

 34 37  0  0  1  0  0  0  0  0999 V2000
    1.0083   -9.3222    2.6976 C   0  0  0  0  0  0  0  0  0  0  0  0
    2.1996   -8.8089    2.0693 N   0  0  0  0  0  0  0  0  0  0  0  0
    3.3967   -9.4340    1.7867 C   0  0  0  0  0  0  0  0  0  0  0  0
    4.2363   -8.4842    1.2837 C   0  0  0  0  0  0  0  0  0  0  0  0
    3.4519   -7.2834    1.3229 C   0  0  0  0  0  0  0  0  0  0  0  0
    4.0021   -5.9409    0.9065 C   0  0  0  0  0  0  0  0  0  0  0  0
    4.9614   -5.9476    0.1326 O   0  0  0  0  0  0  0  0  0  0  0  0
    3.4144   -4.7819    1.3621 N   0  0  0  0  0  0  0  0  0  0  0  0
    3.2714   -3.6238    0.6132 C   0  0  0  0  0  0  0  0  0  0  0  0
    3.6524   -3.4054   -0.7828 C   0  0  0  0  0  0  0  0  0  0  0  0
    5.0005   -3.3605   -1.1885 C   0  0  0  0  0  0  0  0  0  0  0  0
    5.3603   -3.0621   -2.4547 N   0  0  0  0  0  0  0  0  0  0  0  0
    4.3463   -2.7924   -3.3093 C   0  0  0  0  0  0  0  0  0  0  0  0
    2.9930   -2.7947   -2.8970 C   0  0  0  0  0  0  0  0  0  0  0  0
    2.6453   -3.0990   -1.6281 N   0  0  0  0  0  0  0  0  0  0  0  0
    2.6214   -2.7229    1.3594 N   0  0  0  0  0  0  0  0  0  0  0  0
    2.3562   -3.3292    2.5887 C   0  0  0  0  0  0  0  0  0  0  0  0
    1.7005   -2.7519    3.6014 N   0  0  0  0  0  0  0  0  0  0  0  0
    1.5374   -3.5003    4.7155 C   0  0  0  0  0  0  0  0  0  0  0  0
    1.9913   -4.8252    4.8720 C   0  0  0  0  0  0  0  0  0  0  0  0
    2.6890   -5.4203    3.8012 C   0  0  0  0  0  0  0  0  0  0  0  0
    2.8571   -4.6533    2.6197 C   0  0  0  0  0  0  0  0  0  0  0  0
    2.2040   -7.5232    1.6933 N   0  0  0  0  0  0  0  0  0  0  0  0
    0.9515  -10.4044    2.5960 H   0  0  0  0  0  0  0  0  0  0  0  0
    0.1437   -8.8620    2.2225 H   0  0  0  0  0  0  0  0  0  0  0  0
    1.0074   -9.0444    3.7536 H   0  0  0  0  0  0  0  0  0  0  0  0
    3.5509  -10.4862    1.9533 H   0  0  0  0  0  0  0  0  0  0  0  0
    5.2555   -8.6479    0.9451 H   0  0  0  0  0  0  0  0  0  0  0  0
    5.7907   -3.5520   -0.4840 H   0  0  0  0  0  0  0  0  0  0  0  0
    4.6153   -2.5760   -4.3302 H   0  0  0  0  0  0  0  0  0  0  0  0
    2.1919   -2.5516   -3.5816 H   0  0  0  0  0  0  0  0  0  0  0  0
    1.0269   -3.0039    5.5286 H   0  0  0  0  0  0  0  0  0  0  0  0
    1.8196   -5.3700    5.7927 H   0  0  0  0  0  0  0  0  0  0  0  0
    3.0468   -6.4323    3.9043 H   0  0  0  0  0  0  0  0  0  0  0  0
  1  2  1  0
  1 24  1  0
  1 25  1  0
  1 26  1  0
  2 23  1  0
  2  3  1  0
  3  4  2  0
  3 27  1  0
  4  5  1  0
  4 28  1  0
  5  6  1  0
  5 23  2  0
  6  7  2  0
  6  8  1  0
  8 22  1  0
  8  9  1  0
  9 10  1  0
  9 16  2  0
 10 15  1  0
 10 11  2  0
 11 12  1  0
 11 29  1  0
 12 13  2  0
 13 14  1  0
 13 30  1  0
 14 15  2  0
 14 31  1  0
 16 17  1  0
 17 22  2  0
 17 18  1  0
 18 19  2  0
 19 20  1  0
 19 32  1  0
 20 21  2  0
 20 33  1  0
 21 22  1  0
 21 34  1  0
M  END
>  <i_m_ct_stereo_status>  (250) 
1

>  <s_m_source_file>  (250) 
/var/tmp/pbs.5076255.sched01/tmprh8juyh8/78tr4t3sa2.sdf

>  <i_m_source_file_index>  (250) 
28

>  <i_lp_mmshare_version>  (250) 
48012

>  <i_f3d_flags>  (250) 
0

>  <s_epik_input>  (250) 
W0NIM11uMVtjSF1bY0hdYyhuMSlDKD1PKW4oYyhjMjMpW2NIXVtjSF1bY0hdbjMpYyhuMiktYzRbY0hdbltjSF1bY0hdbjQ=

>  <s_epik_cmdline>  (250) 
J2VwaWtfcHl0aG9uJywgJy1waHQnLCAnMi4wJywgJy1waCcsICc3LjAnLCAnLXRuJywgJzgnLCAnLW1hJywgJzIwMCcsICctaW1hZScsICc8aW5maWxlLm1hZT4nLCAnLW9tYWUnLCAnPG91dGZpbGUubWFlPic=

>  <r_lp_tautomer_probability>  (250) 
1

>  <r_epik_Ionization_Penalty>  (250) 
3.07684e-08

>  <r_epik_Ionization_Penalty_Charging>  (250) 
0

>  <r_epik_Ionization_Penalty_Neutral>  (250) 
3.07684e-08

>  <r_epik_State_Penalty>  (250) 
-0

>  <r_epik_Charging_Adjusted_Penalty>  (250) 
0

>  <i_epik_Tot_Q>  (250) 
0

>  <i_epik_Tot_abs_Q>  (250) 
0

>  <s_lp_Force_Field>  (250) 
OPLS3e

>  <r_lp_Energy>  (250) 
48.4345

>  <b_lp_Chiralities_Consistent>  (250) 
1

>  <s_lp_Variant>  (250) 
83:0-1

>  <s_i_glide_gridfile>  (250) 
pfpi4k_grid

>  <i_i_glide_lignum>  (250) 
28

>  <i_i_glide_rotatable_bonds>  (250) 
3

>  <r_i_docking_score>  (250) 
-2.4238

>  <r_i_glide_ligand_efficiency>  (250) 
-0.105383

>  <r_i_glide_ligand_efficiency_sa>  (250) 
-0.299694

>  <r_i_glide_ligand_efficiency_ln>  (250) 
-0.586096

>  <r_i_glide_gscore>  (250) 
-2.4238

>  <r_i_glide_lipo>  (250) 
-0.365868

>  <r_i_glide_hbond>  (250) 
0

>  <r_i_glide_metal>  (250) 
-0

>  <r_i_glide_rewards>  (250) 
-1.43027

>  <r_i_glide_evdw>  (250) 
-29.0316

>  <r_i_glide_ecoul>  (250) 
1.59274

>  <r_i_glide_erotb>  (250) 
0.594017

>  <r_i_glide_esite>  (250) 
-0.00900824

>  <r_i_glide_emodel>  (250) 
-29.8092

>  <r_i_glide_energy>  (250) 
-27.4389

>  <r_i_glide_einternal>  (250) 
3.5651

>  <r_i_glide_intrahb_reward>  (250) 
-0

>  <i_i_glide_confnum>  (250) 
4

>  <i_i_glide_posenum>  (250) 
27

>  <r_i_glide_eff_state_penalty>  (250) 
0

>  <ligand_id>  (250) 
83

>  <original_smiles>  (250) 
Cn1ccc(C(=O)n2c(-c3cnccn3)nc3ncccc32)n1

>  <smiles>  (250) 
[H]c1nc([H])c(-c2nc3nc([H])c([H])c([H])c3n2C(=O)c2nn(C([H])([H])[H])c([H])c2[H])nc1[H]

$$$$
83:0:2
     RDKit          3D

 34 37  0  0  1  0  0  0  0  0999 V2000
   -3.5182    3.4926    9.0776 C   0  0  0  0  0  0  0  0  0  0  0  0
   -2.3602    2.6332    9.1159 N   0  0  0  0  0  0  0  0  0  0  0  0
   -1.3864    2.5231   10.0842 C   0  0  0  0  0  0  0  0  0  0  0  0
   -0.4426    1.6704    9.5941 C   0  0  0  0  0  0  0  0  0  0  0  0
   -0.9285    1.3355    8.2919 C   0  0  0  0  0  0  0  0  0  0  0  0
   -0.1518    0.4757    7.3223 C   0  0  0  0  0  0  0  0  0  0  0  0
    0.6803   -0.3005    7.7942 O   0  0  0  0  0  0  0  0  0  0  0  0
   -0.4500    0.5452    5.9718 N   0  0  0  0  0  0  0  0  0  0  0  0
   -0.3902   -0.5263    5.0879 C   0  0  0  0  0  0  0  0  0  0  0  0
   -0.1204   -1.9415    5.3607 C   0  0  0  0  0  0  0  0  0  0  0  0
    0.5990   -2.7212    4.4234 C   0  0  0  0  0  0  0  0  0  0  0  0
    0.8457   -4.0368    4.6208 N   0  0  0  0  0  0  0  0  0  0  0  0
    0.3803   -4.5710    5.7728 C   0  0  0  0  0  0  0  0  0  0  0  0
   -0.3546   -3.7992    6.7007 C   0  0  0  0  0  0  0  0  0  0  0  0
   -0.6334   -2.4976    6.4819 N   0  0  0  0  0  0  0  0  0  0  0  0
   -0.6634   -0.0779    3.8572 N   0  0  0  0  0  0  0  0  0  0  0  0
   -0.9420    1.2800    3.9748 C   0  0  0  0  0  0  0  0  0  0  0  0
   -1.3032    2.0790    2.9690 N   0  0  0  0  0  0  0  0  0  0  0  0
   -1.5057    3.3769    3.2860 C   0  0  0  0  0  0  0  0  0  0  0  0
   -1.3725    3.9194    4.5808 C   0  0  0  0  0  0  0  0  0  0  0  0
   -0.9823    3.0760    5.6291 C   0  0  0  0  0  0  0  0  0  0  0  0
   -0.7908    1.7096    5.3219 C   0  0  0  0  0  0  0  0  0  0  0  0
   -2.1306    1.8289    8.0714 N   0  0  0  0  0  0  0  0  0  0  0  0
   -3.7998    3.7753   10.0877 H   0  0  0  0  0  0  0  0  0  0  0  0
   -4.3360    2.9605    8.5942 H   0  0  0  0  0  0  0  0  0  0  0  0
   -3.2963    4.3871    8.4899 H   0  0  0  0  0  0  0  0  0  0  0  0
   -1.4373    3.0399   11.0292 H   0  0  0  0  0  0  0  0  0  0  0  0
    0.4586    1.3412   10.0908 H   0  0  0  0  0  0  0  0  0  0  0  0
    0.9578   -2.2963    3.4995 H   0  0  0  0  0  0  0  0  0  0  0  0
    0.5916   -5.6151    5.9550 H   0  0  0  0  0  0  0  0  0  0  0  0
   -0.7107   -4.2232    7.6319 H   0  0  0  0  0  0  0  0  0  0  0  0
   -1.7693    4.0197    2.4591 H   0  0  0  0  0  0  0  0  0  0  0  0
   -1.5382    4.9616    4.7775 H   0  0  0  0  0  0  0  0  0  0  0  0
   -0.8583    3.4816    6.6214 H   0  0  0  0  0  0  0  0  0  0  0  0
  1  2  1  0
  1 24  1  0
  1 25  1  0
  1 26  1  0
  2 23  1  0
  2  3  1  0
  3  4  2  0
  3 27  1  0
  4  5  1  0
  4 28  1  0
  5  6  1  0
  5 23  2  0
  6  7  2  0
  6  8  1  0
  8 22  1  0
  8  9  1  0
  9 10  1  0
  9 16  2  0
 10 15  1  0
 10 11  2  0
 11 12  1  0
 11 29  1  0
 12 13  2  0
 13 14  1  0
 13 30  1  0
 14 15  2  0
 14 31  1  0
 16 17  1  0
 17 22  2  0
 17 18  1  0
 18 19  2  0
 19 20  1  0
 19 32  1  0
 20 21  2  0
 20 33  1  0
 21 22  1  0
 21 34  1  0
M  END
>  <i_m_ct_stereo_status>  (251) 
1

>  <s_m_source_file>  (251) 
/var/tmp/pbs.5076255.sched01/tmprh8juyh8/78tr4t3sa2.sdf

>  <i_m_source_file_index>  (251) 
28

>  <i_lp_mmshare_version>  (251) 
48012

>  <i_f3d_flags>  (251) 
0

>  <s_epik_input>  (251) 
W0NIM11uMVtjSF1bY0hdYyhuMSlDKD1PKW4oYyhjMjMpW2NIXVtjSF1bY0hdbjMpYyhuMiktYzRbY0hdbltjSF1bY0hdbjQ=

>  <s_epik_cmdline>  (251) 
J2VwaWtfcHl0aG9uJywgJy1waHQnLCAnMi4wJywgJy1waCcsICc3LjAnLCAnLXRuJywgJzgnLCAnLW1hJywgJzIwMCcsICctaW1hZScsICc8aW5maWxlLm1hZT4nLCAnLW9tYWUnLCAnPG91dGZpbGUubWFlPic=

>  <r_lp_tautomer_probability>  (251) 
1

>  <r_epik_Ionization_Penalty>  (251) 
3.07684e-08

>  <r_epik_Ionization_Penalty_Charging>  (251) 
0

>  <r_epik_Ionization_Penalty_Neutral>  (251) 
3.07684e-08

>  <r_epik_State_Penalty>  (251) 
-0

>  <r_epik_Charging_Adjusted_Penalty>  (251) 
0

>  <i_epik_Tot_Q>  (251) 
0

>  <i_epik_Tot_abs_Q>  (251) 
0

>  <s_lp_Force_Field>  (251) 
OPLS3e

>  <r_lp_Energy>  (251) 
48.4345

>  <b_lp_Chiralities_Consistent>  (251) 
1

>  <s_lp_Variant>  (251) 
83:0-1

>  <s_i_glide_gridfile>  (251) 
pfpi4k_grid

>  <i_i_glide_lignum>  (251) 
28

>  <i_i_glide_rotatable_bonds>  (251) 
3

>  <r_i_docking_score>  (251) 
-2.10636

>  <r_i_glide_ligand_efficiency>  (251) 
-0.0915808

>  <r_i_glide_ligand_efficiency_sa>  (251) 
-0.260443

>  <r_i_glide_ligand_efficiency_ln>  (251) 
-0.509336

>  <r_i_glide_gscore>  (251) 
-2.10636

>  <r_i_glide_lipo>  (251) 
-0.106963

>  <r_i_glide_hbond>  (251) 
0

>  <r_i_glide_metal>  (251) 
-0

>  <r_i_glide_rewards>  (251) 
-1.32754

>  <r_i_glide_evdw>  (251) 
-24.2886

>  <r_i_glide_ecoul>  (251) 
0.585291

>  <r_i_glide_erotb>  (251) 
0.594017

>  <r_i_glide_esite>  (251) 
-0.139233

>  <r_i_glide_emodel>  (251) 
-26.7746

>  <r_i_glide_energy>  (251) 
-23.7034

>  <r_i_glide_einternal>  (251) 
1.04668

>  <r_i_glide_intrahb_reward>  (251) 
-0

>  <i_i_glide_confnum>  (251) 
4

>  <i_i_glide_posenum>  (251) 
13

>  <r_i_glide_eff_state_penalty>  (251) 
0

>  <ligand_id>  (251) 
83

>  <original_smiles>  (251) 
Cn1ccc(C(=O)n2c(-c3cnccn3)nc3ncccc32)n1

>  <smiles>  (251) 
[H]c1nc([H])c(-c2nc3nc([H])c([H])c([H])c3n2C(=O)c2nn(C([H])([H])[H])c([H])c2[H])nc1[H]

$$$$
84:0:0
     RDKit          3D

 48 53  0  0  1  0  0  0  0  0999 V2000
    7.5313   -7.9469    3.2254 C   0  0  0  0  0  0  0  0  0  0  0  0
    6.5411   -7.1562    2.4191 N   0  0  1  0  0  0  0  0  0  0  0  0
    5.7767   -8.1167    1.5559 C   0  0  0  0  0  0  0  0  0  0  0  0
    5.0398   -9.2802    2.2511 C   0  0  0  0  0  0  0  0  0  0  0  0
    3.6499   -8.9377    2.7382 C   0  0  0  0  0  0  0  0  0  0  0  0
    2.5752   -9.7652    2.3224 C   0  0  0  0  0  0  0  0  0  0  0  0
    1.2799   -9.4527    2.7629 C   0  0  0  0  0  0  0  0  0  0  0  0
    1.0407   -8.3706    3.5756 C   0  0  0  0  0  0  0  0  0  0  0  0
    2.0897   -7.5553    4.0333 C   0  0  0  0  0  0  0  0  0  0  0  0
    3.4175   -7.8412    3.6079 C   0  0  0  0  0  0  0  0  0  0  0  0
    4.5480   -6.9876    4.1805 C   0  0  1  0  0  0  0  0  0  0  0  0
    5.2530   -7.5680    5.2572 O   0  0  0  0  0  0  0  0  0  0  0  0
    6.2170   -6.6078    5.6748 C   0  0  0  0  0  0  0  0  0  0  0  0
    6.3774   -5.6417    4.4824 C   0  0  0  0  0  0  0  0  0  0  0  0
    5.6185   -6.2876    3.2947 C   0  0  1  0  0  0  0  0  0  0  0  0
    4.9239   -5.1849    2.4370 C   0  0  0  0  0  0  0  0  0  0  0  0
    5.9215   -4.2311    1.7619 C   0  0  0  0  0  0  0  0  0  0  0  0
    7.0801   -5.0154    1.2072 C   0  0  0  0  0  0  0  0  0  0  0  0
    8.0964   -4.4382    0.2874 C   0  0  0  0  0  0  0  0  0  0  0  0
    8.9937   -5.5278    0.0807 O   0  0  0  0  0  0  0  0  0  0  0  0
    8.4697   -6.7091    0.7454 N   0  0  0  0  0  0  0  0  0  0  0  0
    7.3615   -6.2856    1.4677 C   0  0  0  0  0  0  0  0  0  0  0  0
   -0.2956   -8.2569    3.8022 O   0  0  0  0  0  0  0  0  0  0  0  0
   -0.8944   -9.2524    3.0089 C   0  0  0  0  0  0  0  0  0  0  0  0
    0.1082  -10.0761    2.4812 O   0  0  0  0  0  0  0  0  0  0  0  0
    7.0834   -8.5564    4.0059 H   0  0  0  0  0  0  0  0  0  0  0  0
    8.2827   -7.3150    3.6965 H   0  0  0  0  0  0  0  0  0  0  0  0
    8.0832   -8.6326    2.5888 H   0  0  0  0  0  0  0  0  0  0  0  0
    5.0978   -7.5902    0.8876 H   0  0  0  0  0  0  0  0  0  0  0  0
    6.5038   -8.5893    0.8990 H   0  0  0  0  0  0  0  0  0  0  0  0
    4.9395  -10.0715    1.5077 H   0  0  0  0  0  0  0  0  0  0  0  0
    5.5937   -9.7468    3.0656 H   0  0  0  0  0  0  0  0  0  0  0  0
    2.7349  -10.6226    1.6806 H   0  0  0  0  0  0  0  0  0  0  0  0
    1.8594   -6.7402    4.7025 H   0  0  0  0  0  0  0  0  0  0  0  0
    4.0058   -6.1753    4.6685 H   0  0  0  0  0  0  0  0  0  0  0  0
    5.8683   -6.0882    6.5692 H   0  0  0  0  0  0  0  0  0  0  0  0
    7.1552   -7.1044    5.9232 H   0  0  0  0  0  0  0  0  0  0  0  0
    5.8978   -4.6996    4.7606 H   0  0  0  0  0  0  0  0  0  0  0  0
    7.4216   -5.4068    4.2786 H   0  0  0  0  0  0  0  0  0  0  0  0
    4.2985   -5.6471    1.6690 H   0  0  0  0  0  0  0  0  0  0  0  0
    4.2324   -4.5927    3.0397 H   0  0  0  0  0  0  0  0  0  0  0  0
    5.4278   -3.6733    0.9639 H   0  0  0  0  0  0  0  0  0  0  0  0
    6.2961   -3.5020    2.4788 H   0  0  0  0  0  0  0  0  0  0  0  0
    7.6350   -4.1316   -0.6515 H   0  0  0  0  0  0  0  0  0  0  0  0
    8.5983   -3.5777    0.7296 H   0  0  0  0  0  0  0  0  0  0  0  0
   -1.6136   -9.8450    3.5640 H   0  0  0  0  0  0  0  0  0  0  0  0
   -1.4183   -8.7673    2.1867 H   0  0  0  0  0  0  0  0  0  0  0  0
    9.2419   -7.2032    1.2101 H   0  0  0  0  0  0  0  0  0  0  0  0
  2  1  1  1
  1 26  1  0
  1 27  1  0
  1 28  1  0
  2 15  1  0
  2 22  1  0
  2  3  1  0
  3  4  1  0
  3 29  1  0
  3 30  1  0
  4  5  1  0
  4 31  1  0
  4 32  1  0
  5 10  2  0
  5  6  1  0
  6  7  2  0
  6 33  1  0
  7 25  1  0
  7  8  1  0
  8  9  2  0
  8 23  1  0
  9 10  1  0
  9 34  1  0
 10 11  1  0
 11 15  1  0
 11 12  1  0
 11 35  1  1
 12 13  1  0
 13 14  1  0
 13 36  1  0
 13 37  1  0
 15 14  1  1
 14 38  1  0
 14 39  1  0
 15 16  1  0
 16 17  1  0
 16 40  1  0
 16 41  1  0
 17 18  1  0
 17 42  1  0
 17 43  1  0
 18 22  2  0
 18 19  1  0
 19 20  1  0
 19 44  1  0
 19 45  1  0
 20 21  1  0
 21 22  1  0
 21 48  1  0
 23 24  1  0
 24 25  1  0
 24 46  1  0
 24 47  1  0
M  CHG  1   2   1
M  END
>  <i_m_ct_stereo_status>  (252) 
1

>  <s_m_source_file>  (252) 
/var/tmp/pbs.5076255.sched01/tmprh8juyh8/78tr4t3sa2.sdf

>  <i_m_source_file_index>  (252) 
29

>  <i_lp_mmshare_version>  (252) 
48012

>  <i_f3d_flags>  (252) 
0

>  <s_epik_input>  (252) 
Tj0xT1tDSDJdW0NASF0oW0NIMl1bQ0gyXTIpQzFbTkArXShbQ0BAXTIzNCkoW0NIM10pW0NIMl1bQ0gyXWM1YyhbQ0BIXTNPW0NIMl1bQ0gyXTQpW2NIXWM2YyhbY0hdNSlPW0NIMl1PNg==

>  <s_epik_cmdline>  (252) 
J2VwaWtfcHl0aG9uJywgJy1waHQnLCAnMi4wJywgJy1waCcsICc3LjAnLCAnLXRuJywgJzgnLCAnLW1hJywgJzIwMCcsICctaW1hZScsICc8aW5maWxlLm1hZT4nLCAnLW9tYWUnLCAnPG91dGZpbGUubWFlPic=

>  <r_lp_tautomer_probability>  (252) 
1

>  <r_epik_Ionization_Penalty>  (252) 
3.90996e-09

>  <r_epik_Ionization_Penalty_Charging>  (252) 
0

>  <r_epik_Ionization_Penalty_Neutral>  (252) 
3.90996e-09

>  <r_epik_State_Penalty>  (252) 
-0

>  <r_epik_Charging_Adjusted_Penalty>  (252) 
0

>  <i_epik_Tot_Q>  (252) 
1

>  <i_epik_Tot_abs_Q>  (252) 
1

>  <s_epik_Chemistry_Notes>  (252) 
This compound contains an acetal/aminal-like group ( X-CH(R)-Y where X, Y are N, S, or O) that may be acid/base labile, releasing an aldehyde. This compound has a N-S or N-O group and may undergo hydrolysis at high or low pH.

>  <s_lp_Force_Field>  (252) 
OPLS3e

>  <r_lp_Energy>  (252) 
61.0336

>  <b_lp_Chiralities_Consistent>  (252) 
1

>  <s_lp_Variant>  (252) 
84:0-1

>  <s_i_glide_gridfile>  (252) 
pfpi4k_grid

>  <i_i_glide_lignum>  (252) 
29

>  <i_i_glide_rotatable_bonds>  (252) 
0

>  <r_i_docking_score>  (252) 
-3.53058

>  <r_i_glide_ligand_efficiency>  (252) 
-0.141223

>  <r_i_glide_ligand_efficiency_sa>  (252) 
-0.412939

>  <r_i_glide_ligand_efficiency_ln>  (252) 
-0.836852

>  <r_i_glide_gscore>  (252) 
-3.53058

>  <r_i_glide_lipo>  (252) 
-0.51294

>  <r_i_glide_hbond>  (252) 
-0.202573

>  <r_i_glide_metal>  (252) 
-0

>  <r_i_glide_rewards>  (252) 
-1.06775

>  <r_i_glide_evdw>  (252) 
-17.7338

>  <r_i_glide_ecoul>  (252) 
-5.11293

>  <r_i_glide_erotb>  (252) 
0

>  <r_i_glide_esite>  (252) 
-0.0936855

>  <r_i_glide_emodel>  (252) 
-29.0644

>  <r_i_glide_energy>  (252) 
-22.8467

>  <r_i_glide_einternal>  (252) 
0

>  <r_i_glide_intrahb_reward>  (252) 
-0

>  <i_i_glide_confnum>  (252) 
1

>  <i_i_glide_posenum>  (252) 
1

>  <r_i_glide_eff_state_penalty>  (252) 
0

>  <ligand_id>  (252) 
84

>  <original_smiles>  (252) 
C[N+]12CCc3cc4c(cc3C3OCCC31CCC1CON=C12)OCO4

>  <smiles>  (252) 
[H]c1c2c(c([H])c3c1C([H])([H])C([H])([H])[N+]1(C([H])([H])[H])C4=C(C([H])([H])ON4[H])C([H])([H])C([H])([H])C14C3([H])OC([H])([H])C4([H])[H])OC([H])([H])O2

$$$$
84:0:1
     RDKit          3D

 48 53  0  0  1  0  0  0  0  0999 V2000
    1.2815    3.8615    3.6587 C   0  0  0  0  0  0  0  0  0  0  0  0
    0.8897    2.5635    4.2992 N   0  0  1  0  0  0  0  0  0  0  0  0
    1.4002    2.5744    5.7082 C   0  0  0  0  0  0  0  0  0  0  0  0
    0.9537    3.7360    6.6184 C   0  0  0  0  0  0  0  0  0  0  0  0
   -0.3638    3.5065    7.3171 C   0  0  0  0  0  0  0  0  0  0  0  0
   -0.3971    3.6257    8.7287 C   0  0  0  0  0  0  0  0  0  0  0  0
   -1.6125    3.4105    9.3890 C   0  0  0  0  0  0  0  0  0  0  0  0
   -2.7617    3.1066    8.6941 C   0  0  0  0  0  0  0  0  0  0  0  0
   -2.7591    2.9796    7.2967 C   0  0  0  0  0  0  0  0  0  0  0  0
   -1.5459    3.1902    6.5898 C   0  0  0  0  0  0  0  0  0  0  0  0
   -1.5900    3.1439    5.0646 C   0  0  1  0  0  0  0  0  0  0  0  0
   -1.6646    4.4013    4.4255 O   0  0  0  0  0  0  0  0  0  0  0  0
   -1.7243    4.1338    3.0255 C   0  0  0  0  0  0  0  0  0  0  0  0
   -1.2175    2.6798    2.8543 C   0  0  0  0  0  0  0  0  0  0  0  0
   -0.6177    2.2764    4.2200 C   0  0  1  0  0  0  0  0  0  0  0  0
   -0.9077    0.7699    4.4976 C   0  0  0  0  0  0  0  0  0  0  0  0
   -0.2176   -0.1602    3.4877 C   0  0  0  0  0  0  0  0  0  0  0  0
    1.1798    0.3082    3.2282 C   0  0  0  0  0  0  0  0  0  0  0  0
    2.1981   -0.4985    2.4998 C   0  0  0  0  0  0  0  0  0  0  0  0
    3.3328    0.3663    2.5023 O   0  0  0  0  0  0  0  0  0  0  0  0
    3.0162    1.5721    3.2530 N   0  0  0  0  0  0  0  0  0  0  0  0
    1.6813    1.4809    3.5797 C   0  0  0  0  0  0  0  0  0  0  0  0
   -3.7905    2.9625    9.5654 O   0  0  0  0  0  0  0  0  0  0  0  0
   -3.2107    3.0330   10.8418 C   0  0  0  0  0  0  0  0  0  0  0  0
   -1.8775    3.4518   10.7162 O   0  0  0  0  0  0  0  0  0  0  0  0
    0.7198    4.7240    4.0117 H   0  0  0  0  0  0  0  0  0  0  0  0
    1.1849    3.8211    2.5731 H   0  0  0  0  0  0  0  0  0  0  0  0
    2.3317    4.0859    3.8470 H   0  0  0  0  0  0  0  0  0  0  0  0
    1.2224    1.6179    6.2015 H   0  0  0  0  0  0  0  0  0  0  0  0
    2.4860    2.6554    5.6489 H   0  0  0  0  0  0  0  0  0  0  0  0
    1.7169    3.8311    7.3908 H   0  0  0  0  0  0  0  0  0  0  0  0
    0.9361    4.7106    6.1326 H   0  0  0  0  0  0  0  0  0  0  0  0
    0.4806    3.8821    9.3086 H   0  0  0  0  0  0  0  0  0  0  0  0
   -3.6879    2.7466    6.7926 H   0  0  0  0  0  0  0  0  0  0  0  0
   -2.5808    2.7285    4.8686 H   0  0  0  0  0  0  0  0  0  0  0  0
   -2.7537    4.2402    2.6770 H   0  0  0  0  0  0  0  0  0  0  0  0
   -1.1223    4.8697    2.4888 H   0  0  0  0  0  0  0  0  0  0  0  0
   -2.0917    2.0636    2.6337 H   0  0  0  0  0  0  0  0  0  0  0  0
   -0.5430    2.5241    2.0130 H   0  0  0  0  0  0  0  0  0  0  0  0
   -0.5837    0.5037    5.5053 H   0  0  0  0  0  0  0  0  0  0  0  0
   -1.9810    0.5643    4.4739 H   0  0  0  0  0  0  0  0  0  0  0  0
   -0.2111   -1.1903    3.8524 H   0  0  0  0  0  0  0  0  0  0  0  0
   -0.7337   -0.1227    2.5310 H   0  0  0  0  0  0  0  0  0  0  0  0
    2.4217   -1.4169    3.0394 H   0  0  0  0  0  0  0  0  0  0  0  0
    1.8666   -0.7543    1.4923 H   0  0  0  0  0  0  0  0  0  0  0  0
   -3.7748    3.6571   11.5373 H   0  0  0  0  0  0  0  0  0  0  0  0
   -3.2004    2.0172   11.2159 H   0  0  0  0  0  0  0  0  0  0  0  0
    3.3530    2.3771    2.7357 H   0  0  0  0  0  0  0  0  0  0  0  0
  2  1  1  6
  1 26  1  0
  1 27  1  0
  1 28  1  0
  2 15  1  0
  2 22  1  0
  2  3  1  0
  3  4  1  0
  3 29  1  0
  3 30  1  0
  4  5  1  0
  4 31  1  0
  4 32  1  0
  5 10  2  0
  5  6  1  0
  6  7  2  0
  6 33  1  0
  7 25  1  0
  7  8  1  0
  8  9  2  0
  8 23  1  0
  9 10  1  0
  9 34  1  0
 10 11  1  0
 11 15  1  0
 11 12  1  0
 11 35  1  1
 12 13  1  0
 13 14  1  0
 13 36  1  0
 13 37  1  0
 15 14  1  6
 14 38  1  0
 14 39  1  0
 15 16  1  0
 16 17  1  0
 16 40  1  0
 16 41  1  0
 17 18  1  0
 17 42  1  0
 17 43  1  0
 18 22  2  0
 18 19  1  0
 19 20  1  0
 19 44  1  0
 19 45  1  0
 20 21  1  0
 21 22  1  0
 21 48  1  0
 23 24  1  0
 24 25  1  0
 24 46  1  0
 24 47  1  0
M  CHG  1   2   1
M  END
>  <i_m_ct_stereo_status>  (253) 
1

>  <s_m_source_file>  (253) 
/var/tmp/pbs.5076255.sched01/tmprh8juyh8/78tr4t3sa2.sdf

>  <i_m_source_file_index>  (253) 
29

>  <i_lp_mmshare_version>  (253) 
48012

>  <i_f3d_flags>  (253) 
0

>  <s_epik_input>  (253) 
Tj0xT1tDSDJdW0NASF0oW0NIMl1bQ0gyXTIpQzFbTkArXShbQ0BAXTIzNCkoW0NIM10pW0NIMl1bQ0gyXWM1YyhbQ0BIXTNPW0NIMl1bQ0gyXTQpW2NIXWM2YyhbY0hdNSlPW0NIMl1PNg==

>  <s_epik_cmdline>  (253) 
J2VwaWtfcHl0aG9uJywgJy1waHQnLCAnMi4wJywgJy1waCcsICc3LjAnLCAnLXRuJywgJzgnLCAnLW1hJywgJzIwMCcsICctaW1hZScsICc8aW5maWxlLm1hZT4nLCAnLW9tYWUnLCAnPG91dGZpbGUubWFlPic=

>  <r_lp_tautomer_probability>  (253) 
1

>  <r_epik_Ionization_Penalty>  (253) 
3.90996e-09

>  <r_epik_Ionization_Penalty_Charging>  (253) 
0

>  <r_epik_Ionization_Penalty_Neutral>  (253) 
3.90996e-09

>  <r_epik_State_Penalty>  (253) 
-0

>  <r_epik_Charging_Adjusted_Penalty>  (253) 
0

>  <i_epik_Tot_Q>  (253) 
1

>  <i_epik_Tot_abs_Q>  (253) 
1

>  <s_epik_Chemistry_Notes>  (253) 
This compound contains an acetal/aminal-like group ( X-CH(R)-Y where X, Y are N, S, or O) that may be acid/base labile, releasing an aldehyde. This compound has a N-S or N-O group and may undergo hydrolysis at high or low pH.

>  <s_lp_Force_Field>  (253) 
OPLS3e

>  <r_lp_Energy>  (253) 
61.0336

>  <b_lp_Chiralities_Consistent>  (253) 
1

>  <s_lp_Variant>  (253) 
84:0-1

>  <s_i_glide_gridfile>  (253) 
pfpi4k_grid

>  <i_i_glide_lignum>  (253) 
29

>  <i_i_glide_rotatable_bonds>  (253) 
0

>  <r_i_docking_score>  (253) 
-3.39365

>  <r_i_glide_ligand_efficiency>  (253) 
-0.135746

>  <r_i_glide_ligand_efficiency_sa>  (253) 
-0.396923

>  <r_i_glide_ligand_efficiency_ln>  (253) 
-0.804396

>  <r_i_glide_gscore>  (253) 
-3.39365

>  <r_i_glide_lipo>  (253) 
-0.23436

>  <r_i_glide_hbond>  (253) 
-0.0780302

>  <r_i_glide_metal>  (253) 
-0

>  <r_i_glide_rewards>  (253) 
-1.06775

>  <r_i_glide_evdw>  (253) 
-18.6077

>  <r_i_glide_ecoul>  (253) 
-6.32413

>  <r_i_glide_erotb>  (253) 
0

>  <r_i_glide_esite>  (253) 
-0.134506

>  <r_i_glide_emodel>  (253) 
-30.8569

>  <r_i_glide_energy>  (253) 
-24.9318

>  <r_i_glide_einternal>  (253) 
0

>  <r_i_glide_intrahb_reward>  (253) 
-0

>  <i_i_glide_confnum>  (253) 
2

>  <i_i_glide_posenum>  (253) 
10

>  <r_i_glide_eff_state_penalty>  (253) 
0

>  <ligand_id>  (253) 
84

>  <original_smiles>  (253) 
C[N+]12CCc3cc4c(cc3C3OCCC31CCC1CON=C12)OCO4

>  <smiles>  (253) 
[H]c1c2c(c([H])c3c1C([H])([H])C([H])([H])[N+]1(C([H])([H])[H])C4=C(C([H])([H])ON4[H])C([H])([H])C([H])([H])C14C3([H])OC([H])([H])C4([H])[H])OC([H])([H])O2

$$$$
84:0:2
     RDKit          3D

 48 53  0  0  1  0  0  0  0  0999 V2000
    6.2471   -3.8994    1.9243 C   0  0  0  0  0  0  0  0  0  0  0  0
    5.1825   -4.1214    0.8911 N   0  0  1  0  0  0  0  0  0  0  0  0
    5.1695   -5.5847    0.5625 C   0  0  0  0  0  0  0  0  0  0  0  0
    4.9838   -6.5807    1.7153 C   0  0  0  0  0  0  0  0  0  0  0  0
    3.5400   -6.8682    2.0562 C   0  0  0  0  0  0  0  0  0  0  0  0
    3.1034   -8.2187    2.0699 C   0  0  0  0  0  0  0  0  0  0  0  0
    1.7625   -8.4904    2.3861 C   0  0  0  0  0  0  0  0  0  0  0  0
    0.8760   -7.4731    2.6795 C   0  0  0  0  0  0  0  0  0  0  0  0
    1.2918   -6.1307    2.7070 C   0  0  0  0  0  0  0  0  0  0  0  0
    2.6397   -5.8151    2.3890 C   0  0  0  0  0  0  0  0  0  0  0  0
    3.0796   -4.3532    2.4948 C   0  0  1  0  0  0  0  0  0  0  0  0
    3.7433   -4.0067    3.6925 O   0  0  0  0  0  0  0  0  0  0  0  0
    4.0209   -2.6121    3.6099 C   0  0  0  0  0  0  0  0  0  0  0  0
    3.9215   -2.2569    2.1100 C   0  0  0  0  0  0  0  0  0  0  0  0
    3.8180   -3.6061    1.3543 C   0  0  1  0  0  0  0  0  0  0  0  0
    2.8614   -3.4565    0.1371 C   0  0  0  0  0  0  0  0  0  0  0  0
    3.3783   -2.4651   -0.9152 C   0  0  0  0  0  0  0  0  0  0  0  0
    4.8429   -2.6803   -1.1243 C   0  0  0  0  0  0  0  0  0  0  0  0
    5.6069   -2.0758   -2.2345 C   0  0  0  0  0  0  0  0  0  0  0  0
    6.9482   -2.5001   -1.9475 O   0  0  0  0  0  0  0  0  0  0  0  0
    6.9371   -3.4493   -0.8488 N   0  0  0  0  0  0  0  0  0  0  0  0
    5.6523   -3.4151   -0.3596 C   0  0  0  0  0  0  0  0  0  0  0  0
   -0.3634   -7.9950    2.8905 O   0  0  0  0  0  0  0  0  0  0  0  0
   -0.2417   -9.3785    2.6438 C   0  0  0  0  0  0  0  0  0  0  0  0
    1.1146   -9.6865    2.4303 O   0  0  0  0  0  0  0  0  0  0  0  0
    6.0194   -4.2907    2.9060 H   0  0  0  0  0  0  0  0  0  0  0  0
    6.4893   -2.8498    2.0471 H   0  0  0  0  0  0  0  0  0  0  0  0
    7.1737   -4.3713    1.6345 H   0  0  0  0  0  0  0  0  0  0  0  0
    4.4707   -5.7981   -0.2406 H   0  0  0  0  0  0  0  0  0  0  0  0
    6.1403   -5.8141    0.1411 H   0  0  0  0  0  0  0  0  0  0  0  0
    5.4277   -7.5215    1.3857 H   0  0  0  0  0  0  0  0  0  0  0  0
    5.5203   -6.3316    2.6313 H   0  0  0  0  0  0  0  0  0  0  0  0
    3.7749   -9.0438    1.8413 H   0  0  0  0  0  0  0  0  0  0  0  0
    0.5776   -5.3636    2.9849 H   0  0  0  0  0  0  0  0  0  0  0  0
    2.1295   -3.8241    2.6019 H   0  0  0  0  0  0  0  0  0  0  0  0
    3.2985   -2.0564    4.2094 H   0  0  0  0  0  0  0  0  0  0  0  0
    5.0121   -2.4099    4.0154 H   0  0  0  0  0  0  0  0  0  0  0  0
    2.9924   -1.6975    1.9789 H   0  0  0  0  0  0  0  0  0  0  0  0
    4.7107   -1.5867    1.7707 H   0  0  0  0  0  0  0  0  0  0  0  0
    2.6925   -4.4263   -0.3371 H   0  0  0  0  0  0  0  0  0  0  0  0
    1.8726   -3.1149    0.4517 H   0  0  0  0  0  0  0  0  0  0  0  0
    2.8396   -2.6088   -1.8553 H   0  0  0  0  0  0  0  0  0  0  0  0
    3.2213   -1.4346   -0.5880 H   0  0  0  0  0  0  0  0  0  0  0  0
    5.2550   -2.4609   -3.1935 H   0  0  0  0  0  0  0  0  0  0  0  0
    5.5090   -0.9901   -2.2333 H   0  0  0  0  0  0  0  0  0  0  0  0
   -0.6599   -9.9867    3.4495 H   0  0  0  0  0  0  0  0  0  0  0  0
   -0.7943   -9.5981    1.7325 H   0  0  0  0  0  0  0  0  0  0  0  0
    7.6932   -3.2204   -0.2008 H   0  0  0  0  0  0  0  0  0  0  0  0
  2  1  1  1
  1 26  1  0
  1 27  1  0
  1 28  1  0
  2 15  1  0
  2 22  1  0
  2  3  1  0
  3  4  1  0
  3 29  1  0
  3 30  1  0
  4  5  1  0
  4 31  1  0
  4 32  1  0
  5 10  2  0
  5  6  1  0
  6  7  2  0
  6 33  1  0
  7 25  1  0
  7  8  1  0
  8  9  2  0
  8 23  1  0
  9 10  1  0
  9 34  1  0
 10 11  1  0
 11 15  1  0
 11 12  1  0
 11 35  1  1
 12 13  1  0
 13 14  1  0
 13 36  1  0
 13 37  1  0
 15 14  1  1
 14 38  1  0
 14 39  1  0
 15 16  1  0
 16 17  1  0
 16 40  1  0
 16 41  1  0
 17 18  1  0
 17 42  1  0
 17 43  1  0
 18 22  2  0
 18 19  1  0
 19 20  1  0
 19 44  1  0
 19 45  1  0
 20 21  1  0
 21 22  1  0
 21 48  1  0
 23 24  1  0
 24 25  1  0
 24 46  1  0
 24 47  1  0
M  CHG  1   2   1
M  END
>  <i_m_ct_stereo_status>  (254) 
1

>  <s_m_source_file>  (254) 
/var/tmp/pbs.5076255.sched01/tmprh8juyh8/78tr4t3sa2.sdf

>  <i_m_source_file_index>  (254) 
29

>  <i_lp_mmshare_version>  (254) 
48012

>  <i_f3d_flags>  (254) 
0

>  <s_epik_input>  (254) 
Tj0xT1tDSDJdW0NASF0oW0NIMl1bQ0gyXTIpQzFbTkArXShbQ0BAXTIzNCkoW0NIM10pW0NIMl1bQ0gyXWM1YyhbQ0BIXTNPW0NIMl1bQ0gyXTQpW2NIXWM2YyhbY0hdNSlPW0NIMl1PNg==

>  <s_epik_cmdline>  (254) 
J2VwaWtfcHl0aG9uJywgJy1waHQnLCAnMi4wJywgJy1waCcsICc3LjAnLCAnLXRuJywgJzgnLCAnLW1hJywgJzIwMCcsICctaW1hZScsICc8aW5maWxlLm1hZT4nLCAnLW9tYWUnLCAnPG91dGZpbGUubWFlPic=

>  <r_lp_tautomer_probability>  (254) 
1

>  <r_epik_Ionization_Penalty>  (254) 
3.90996e-09

>  <r_epik_Ionization_Penalty_Charging>  (254) 
0

>  <r_epik_Ionization_Penalty_Neutral>  (254) 
3.90996e-09

>  <r_epik_State_Penalty>  (254) 
-0

>  <r_epik_Charging_Adjusted_Penalty>  (254) 
0

>  <i_epik_Tot_Q>  (254) 
1

>  <i_epik_Tot_abs_Q>  (254) 
1

>  <s_epik_Chemistry_Notes>  (254) 
This compound contains an acetal/aminal-like group ( X-CH(R)-Y where X, Y are N, S, or O) that may be acid/base labile, releasing an aldehyde. This compound has a N-S or N-O group and may undergo hydrolysis at high or low pH.

>  <s_lp_Force_Field>  (254) 
OPLS3e

>  <r_lp_Energy>  (254) 
61.0336

>  <b_lp_Chiralities_Consistent>  (254) 
1

>  <s_lp_Variant>  (254) 
84:0-1

>  <s_i_glide_gridfile>  (254) 
pfpi4k_grid

>  <i_i_glide_lignum>  (254) 
29

>  <i_i_glide_rotatable_bonds>  (254) 
0

>  <r_i_docking_score>  (254) 
-3.1982

>  <r_i_glide_ligand_efficiency>  (254) 
-0.127928

>  <r_i_glide_ligand_efficiency_sa>  (254) 
-0.374063

>  <r_i_glide_ligand_efficiency_ln>  (254) 
-0.758069

>  <r_i_glide_gscore>  (254) 
-3.1982

>  <r_i_glide_lipo>  (254) 
-0.29939

>  <r_i_glide_hbond>  (254) 
-0.147814

>  <r_i_glide_metal>  (254) 
-0

>  <r_i_glide_rewards>  (254) 
-1.06775

>  <r_i_glide_evdw>  (254) 
-21.852

>  <r_i_glide_ecoul>  (254) 
-3.87984

>  <r_i_glide_erotb>  (254) 
0

>  <r_i_glide_esite>  (254) 
-0.00866769

>  <r_i_glide_emodel>  (254) 
-31.3146

>  <r_i_glide_energy>  (254) 
-25.7319

>  <r_i_glide_einternal>  (254) 
0

>  <r_i_glide_intrahb_reward>  (254) 
-0

>  <i_i_glide_confnum>  (254) 
1

>  <i_i_glide_posenum>  (254) 
4

>  <r_i_glide_eff_state_penalty>  (254) 
0

>  <ligand_id>  (254) 
84

>  <original_smiles>  (254) 
C[N+]12CCc3cc4c(cc3C3OCCC31CCC1CON=C12)OCO4

>  <smiles>  (254) 
[H]c1c2c(c([H])c3c1C([H])([H])C([H])([H])[N+]1(C([H])([H])[H])C4=C(C([H])([H])ON4[H])C([H])([H])C([H])([H])C14C3([H])OC([H])([H])C4([H])[H])OC([H])([H])O2

$$$$
86:1:0
     RDKit          3D

 41 46  0  0  1  0  0  0  0  0999 V2000
    2.6794   -3.0649   -3.2738 C   0  0  0  0  0  0  0  0  0  0  0  0
    3.5235   -2.7258   -2.1362 N   0  0  0  0  0  0  0  0  0  0  0  0
    4.4543   -1.6859   -2.1828 C   0  0  0  0  0  0  0  0  0  0  0  0
    5.1107   -1.4340   -1.0500 C   0  0  0  0  0  0  0  0  0  0  0  0
    6.3849   -2.2607   -0.9783 C   0  0  0  0  0  0  0  0  0  0  0  0
    5.9184   -3.3479   -0.0012 C   0  0  2  0  0  0  0  0  0  0  0  0
    4.7923   -4.2038   -0.7180 C   0  0  0  0  0  0  0  0  0  0  0  0
    3.6162   -3.5504   -1.0050 C   0  0  0  0  0  0  0  0  0  0  0  0
    3.1893   -2.7573    0.2111 C   0  0  2  0  0  0  0  0  0  0  0  0
    4.3806   -1.7378    0.2693 C   0  0  2  0  0  0  0  0  0  0  0  0
    4.1064   -0.5394    0.9775 O   0  0  0  0  0  0  0  0  0  0  0  0
    5.3776   -2.4538    1.0533 N   0  0  0  0  0  0  0  0  0  0  0  0
    4.5519   -3.0425    2.0974 C   0  0  2  0  0  0  0  0  0  0  0  0
    4.8521   -3.8182    3.3534 C   0  0  0  0  0  0  0  0  0  0  0  0
    3.3487   -3.9855    3.8011 C   0  0  0  0  0  0  0  0  0  0  0  0
    2.4290   -3.6169    2.6751 N   0  0  0  0  0  0  0  0  0  0  0  0
    1.6884   -2.3712    2.8897 C   0  0  0  0  0  0  0  0  0  0  0  0
    3.3224   -3.6642    1.5207 C   0  0  1  0  0  0  0  0  0  0  0  0
    3.4626   -5.1753    1.1354 C   0  0  0  0  0  0  0  0  0  0  0  0
    4.5776   -5.4416    0.1224 C   0  0  0  0  0  0  0  0  0  0  0  0
    2.3495   -2.1621   -3.7804 H   0  0  0  0  0  0  0  0  0  0  0  0
    1.8115   -3.6278   -2.9455 H   0  0  0  0  0  0  0  0  0  0  0  0
    3.2500   -3.6773   -3.9743 H   0  0  0  0  0  0  0  0  0  0  0  0
    4.9718   -1.7228   -3.1304 H   0  0  0  0  0  0  0  0  0  0  0  0
    6.7688   -2.6271   -1.9322 H   0  0  0  0  0  0  0  0  0  0  0  0
    7.1764   -1.6702   -0.4884 H   0  0  0  0  0  0  0  0  0  0  0  0
    6.7480   -3.9757    0.3357 H   0  0  0  0  0  0  0  0  0  0  0  0
    2.2179   -2.3043    0.0698 H   0  0  0  0  0  0  0  0  0  0  0  0
    3.2138   -0.3148    0.7728 H   0  0  0  0  0  0  0  0  0  0  0  0
    4.2404   -2.1426    2.6228 H   0  0  0  0  0  0  0  0  0  0  0  0
    5.3322   -4.7728    3.1461 H   0  0  0  0  0  0  0  0  0  0  0  0
    5.4555   -3.2570    4.0690 H   0  0  0  0  0  0  0  0  0  0  0  0
    3.1785   -5.0063    4.1331 H   0  0  0  0  0  0  0  0  0  0  0  0
    3.1489   -3.3462    4.6692 H   0  0  0  0  0  0  0  0  0  0  0  0
    1.0202   -2.1740    2.0654 H   0  0  0  0  0  0  0  0  0  0  0  0
    2.3386   -1.5108    3.0202 H   0  0  0  0  0  0  0  0  0  0  0  0
    1.0761   -2.4566    3.7878 H   0  0  0  0  0  0  0  0  0  0  0  0
    3.6098   -5.8333    1.9895 H   0  0  0  0  0  0  0  0  0  0  0  0
    2.5088   -5.5004    0.7056 H   0  0  0  0  0  0  0  0  0  0  0  0
    4.2555   -6.2585   -0.5423 H   0  0  0  0  0  0  0  0  0  0  0  0
    5.4933   -5.7752    0.6016 H   0  0  0  0  0  0  0  0  0  0  0  0
  1  2  1  0
  1 21  1  0
  1 22  1  0
  1 23  1  0
  2  8  1  0
  2  3  1  0
  3  4  2  0
  3 24  1  0
  4 10  1  0
  4  5  1  0
  5  6  1  0
  5 25  1  0
  5 26  1  0
  6 12  1  0
  6  7  1  0
  6 27  1  1
  7 20  1  0
  7  8  2  0
  8  9  1  0
  9 18  1  0
  9 10  1  0
  9 28  1  6
 10 11  1  1
 10 12  1  0
 11 29  1  0
 12 13  1  0
 13 18  1  0
 13 14  1  0
 13 30  1  1
 14 15  1  0
 14 31  1  0
 14 32  1  0
 15 16  1  0
 15 33  1  0
 15 34  1  0
 16 17  1  0
 18 16  1  1
 17 35  1  0
 17 36  1  0
 17 37  1  0
 18 19  1  0
 19 20  1  0
 19 38  1  0
 19 39  1  0
 20 40  1  0
 20 41  1  0
M  END
>  <i_m_ct_stereo_status>  (255) 
1

>  <s_m_source_file>  (255) 
/var/tmp/pbs.5076255.sched01/tmprh8juyh8/78tr4t3sa2.sdf

>  <i_m_source_file_index>  (255) 
32

>  <i_lp_mmshare_version>  (255) 
48012

>  <i_f3d_flags>  (255) 
1

>  <s_epik_input>  (255) 
W0NIM11OMVtDSF09QyhbQ0gyXTIpW0NAXTMoW09IXSlOKFtDQEhdMkMoPUMxW0NASF0zW0NAQF00NTYpW0NIMl1bQ0gyXTYpW0NAQEhdNFtDSDJdW0NIMl1ONVtDSDNd

>  <s_epik_cmdline>  (255) 
J2VwaWtfcHl0aG9uJywgJy1waHQnLCAnMi4wJywgJy1waCcsICc3LjAnLCAnLXRuJywgJzgnLCAnLW1hJywgJzIwMCcsICctaW1hZScsICc8aW5maWxlLm1hZT4nLCAnLW9tYWUnLCAnPG91dGZpbGUubWFlPic=

>  <r_epik_Ionization_Penalty>  (255) 
1.32627

>  <r_epik_Ionization_Penalty_Charging>  (255) 
1.49957e-10

>  <r_epik_Ionization_Penalty_Neutral>  (255) 
1.32627

>  <r_epik_State_Penalty>  (255) 
1.39771

>  <r_epik_Charging_Adjusted_Penalty>  (255) 
1.39771

>  <i_epik_Tot_Q>  (255) 
0

>  <i_epik_Tot_abs_Q>  (255) 
0

>  <s_epik_Chemistry_Notes>  (255) 
This compound has an imine and may undergo hydrolysis.

>  <s_lp_Force_Field>  (255) 
OPLS3e

>  <r_lp_Energy>  (255) 
190.536

>  <b_lp_Chiralities_Consistent>  (255) 
1

>  <s_lp_Variant>  (255) 
86:0-2

>  <s_i_glide_gridfile>  (255) 
pfpi4k_grid

>  <i_i_glide_lignum>  (255) 
32

>  <i_i_glide_rotatable_bonds>  (255) 
1

>  <r_i_docking_score>  (255) 
-3.04244

>  <r_i_glide_ligand_efficiency>  (255) 
-0.152122

>  <r_i_glide_ligand_efficiency_sa>  (255) 
-0.412922

>  <r_i_glide_ligand_efficiency_ln>  (255) 
-0.761421

>  <r_i_glide_gscore>  (255) 
-3.04244

>  <r_i_glide_lipo>  (255) 
-0.314725

>  <r_i_glide_hbond>  (255) 
0

>  <r_i_glide_metal>  (255) 
-0

>  <r_i_glide_rewards>  (255) 
-1.55893

>  <r_i_glide_evdw>  (255) 
-20.8137

>  <r_i_glide_ecoul>  (255) 
-0.610652

>  <r_i_glide_erotb>  (255) 
0

>  <r_i_glide_esite>  (255) 
-0.0365026

>  <r_i_glide_emodel>  (255) 
-25.5399

>  <r_i_glide_energy>  (255) 
-21.4243

>  <r_i_glide_einternal>  (255) 
0.0368468

>  <r_i_glide_intrahb_reward>  (255) 
-0

>  <i_i_glide_confnum>  (255) 
2

>  <i_i_glide_posenum>  (255) 
1

>  <r_i_glide_eff_state_penalty>  (255) 
0

>  <ligand_id>  (255) 
86

>  <original_smiles>  (255) 
CN1C=C2CC3C4=C1C1C2(O)N3C2CCN(C)C21CC4

>  <smiles>  (255) 
[H]OC12C3=C([H])N(C([H])([H])[H])C4=C5C([H])([H])C([H])([H])C6(N(C([H])([H])[H])C([H])([H])C([H])([H])C6([H])N1C5([H])C3([H])[H])C42[H]

$$$$
87:0:0
     RDKit          3D

 29 31  0  0  1  0  0  0  0  0999 V2000
   -0.0004    1.7209    2.0934 N   0  0  0  0  0  0  0  0  0  0  0  0
   -0.3288    1.2806    3.3170 C   0  0  0  0  0  0  0  0  0  0  0  0
   -0.3554   -0.0538    3.5577 N   0  0  0  0  0  0  0  0  0  0  0  0
   -0.7042   -0.5049    4.7699 C   0  0  0  0  0  0  0  0  0  0  0  0
   -1.0414    0.1939    5.8599 N   0  0  0  0  0  0  0  0  0  0  0  0
   -0.9819    1.5374    5.6155 C   0  0  0  0  0  0  0  0  0  0  0  0
   -0.6468    2.1567    4.3772 C   0  0  0  0  0  0  0  0  0  0  0  0
   -0.7069    3.5384    4.4895 N   0  0  0  0  0  0  0  0  0  0  0  0
   -1.0268    3.7280    5.7360 C   0  0  0  0  0  0  0  0  0  0  0  0
   -1.2157    2.5865    6.4888 N   0  0  0  0  0  0  0  0  0  0  0  0
   -1.5899    2.5336    7.8920 C   0  0  0  0  0  0  0  0  0  0  0  0
   -2.9888    3.1326    8.0816 C   0  0  0  0  0  0  0  0  0  0  0  0
   -3.3339    3.2511    9.5665 C   0  0  0  0  0  0  0  0  0  0  0  0
   -2.3357    4.0260   10.2184 O   0  0  0  0  0  0  0  0  0  0  0  0
   -1.0571    3.3995   10.1986 C   0  0  0  0  0  0  0  0  0  0  0  0
   -0.5687    3.2952    8.7519 C   0  0  0  0  0  0  0  0  0  0  0  0
    0.1772    1.0592    1.3499 H   0  0  0  0  0  0  0  0  0  0  0  0
    0.0174    2.7176    1.8945 H   0  0  0  0  0  0  0  0  0  0  0  0
   -0.7084   -1.5825    4.8749 H   0  0  0  0  0  0  0  0  0  0  0  0
   -1.1364    4.7208    6.1495 H   0  0  0  0  0  0  0  0  0  0  0  0
   -1.6096    1.4935    8.2268 H   0  0  0  0  0  0  0  0  0  0  0  0
   -3.0269    4.1292    7.6449 H   0  0  0  0  0  0  0  0  0  0  0  0
   -3.7397    2.5363    7.5619 H   0  0  0  0  0  0  0  0  0  0  0  0
   -4.2979    3.7424    9.6784 H   0  0  0  0  0  0  0  0  0  0  0  0
   -3.4122    2.2692   10.0348 H   0  0  0  0  0  0  0  0  0  0  0  0
   -0.3621    4.0057   10.7772 H   0  0  0  0  0  0  0  0  0  0  0  0
   -1.1030    2.4161   10.6702 H   0  0  0  0  0  0  0  0  0  0  0  0
    0.4055    2.8071    8.7065 H   0  0  0  0  0  0  0  0  0  0  0  0
   -0.4246    4.3066    8.3752 H   0  0  0  0  0  0  0  0  0  0  0  0
  1  2  1  0
  1 18  1  0
  1 17  1  0
  2  3  2  0
  2  7  1  0
  3  4  1  0
  4 19  1  0
  4  5  2  0
  5  6  1  0
  6 10  1  0
  6  7  2  0
  7  8  1  0
  8  9  2  0
  9 20  1  0
  9 10  1  0
 10 11  1  0
 11 16  1  0
 11 12  1  0
 11 21  1  0
 12 13  1  0
 12 22  1  0
 12 23  1  0
 13 14  1  0
 13 24  1  0
 13 25  1  0
 14 15  1  0
 15 16  1  0
 15 26  1  0
 15 27  1  0
 16 28  1  0
 16 29  1  0
M  END
>  <i_m_ct_stereo_status>  (256) 
1

>  <s_m_source_file>  (256) 
/var/tmp/pbs.5076255.sched01/tmprh8juyh8/78tr4t3sa2.sdf

>  <i_m_source_file_index>  (256) 
33

>  <i_lp_mmshare_version>  (256) 
48012

>  <i_f3d_flags>  (256) 
0

>  <s_epik_input>  (256) 
bjFbY0hdW25IXVxjKD1OXFtIXSljKGMxMiluW2NIXW4yW0NIXTNbQ0gyXVtDSDJdT1tDSDJdW0NIMl0z

>  <s_epik_cmdline>  (256) 
J2VwaWtfcHl0aG9uJywgJy1waHQnLCAnMi4wJywgJy1waCcsICc3LjAnLCAnLXRuJywgJzgnLCAnLW1hJywgJzIwMCcsICctaW1hZScsICc8aW5maWxlLm1hZT4nLCAnLW9tYWUnLCAnPG91dGZpbGUubWFlPic=

>  <r_lp_tautomer_probability>  (256) 
1

>  <r_epik_Ionization_Penalty>  (256) 
0.00109342

>  <r_epik_Ionization_Penalty_Charging>  (256) 
0

>  <r_epik_Ionization_Penalty_Neutral>  (256) 
0.00109342

>  <r_epik_State_Penalty>  (256) 
-0

>  <r_epik_Charging_Adjusted_Penalty>  (256) 
0

>  <i_epik_Tot_Q>  (256) 
0

>  <i_epik_Tot_abs_Q>  (256) 
0

>  <s_lp_Force_Field>  (256) 
OPLS3e

>  <r_lp_Energy>  (256) 
15.8725

>  <b_lp_Chiralities_Consistent>  (256) 
1

>  <s_lp_Variant>  (256) 
87:0-1

>  <s_i_glide_gridfile>  (256) 
pfpi4k_grid

>  <i_i_glide_lignum>  (256) 
33

>  <i_i_glide_rotatable_bonds>  (256) 
1

>  <r_i_docking_score>  (256) 
-3.1863

>  <r_i_glide_ligand_efficiency>  (256) 
-0.199144

>  <r_i_glide_ligand_efficiency_sa>  (256) 
-0.501811

>  <r_i_glide_ligand_efficiency_ln>  (256) 
-0.844592

>  <r_i_glide_gscore>  (256) 
-3.1863

>  <r_i_glide_lipo>  (256) 
-0.115833

>  <r_i_glide_hbond>  (256) 
-0.16

>  <r_i_glide_metal>  (256) 
-0

>  <r_i_glide_rewards>  (256) 
-1.93801

>  <r_i_glide_evdw>  (256) 
-19.0141

>  <r_i_glide_ecoul>  (256) 
-1.63661

>  <r_i_glide_erotb>  (256) 
0.350041

>  <r_i_glide_esite>  (256) 
-0.126301

>  <r_i_glide_emodel>  (256) 
-25.3139

>  <r_i_glide_energy>  (256) 
-20.6507

>  <r_i_glide_einternal>  (256) 
0.0285284

>  <r_i_glide_intrahb_reward>  (256) 
-0

>  <i_i_glide_confnum>  (256) 
2

>  <i_i_glide_posenum>  (256) 
6

>  <r_i_glide_eff_state_penalty>  (256) 
0

>  <ligand_id>  (256) 
87

>  <original_smiles>  (256) 
N=c1[nH]cnc2c1ncn2C1CCOCC1

>  <smiles>  (256) 
[H]c1nc(N([H])[H])c2nc([H])n(C3([H])C([H])([H])C([H])([H])OC([H])([H])C3([H])[H])c2n1

$$$$
87:0:1
     RDKit          3D

 29 31  0  0  1  0  0  0  0  0999 V2000
   -0.1900    1.7362    2.0748 N   0  0  0  0  0  0  0  0  0  0  0  0
   -0.5863    1.4956    3.3297 C   0  0  0  0  0  0  0  0  0  0  0  0
   -0.9773    0.2407    3.6687 N   0  0  0  0  0  0  0  0  0  0  0  0
   -1.3943   -0.0006    4.9156 C   0  0  0  0  0  0  0  0  0  0  0  0
   -1.4802    0.8448    5.9450 N   0  0  0  0  0  0  0  0  0  0  0  0
   -1.0604    2.1006    5.5988 C   0  0  0  0  0  0  0  0  0  0  0  0
   -0.6096    2.5080    4.3164 C   0  0  0  0  0  0  0  0  0  0  0  0
   -0.2783    3.8577    4.3265 N   0  0  0  0  0  0  0  0  0  0  0  0
   -0.4859    4.2254    5.5590 C   0  0  0  0  0  0  0  0  0  0  0  0
   -0.9656    3.2384    6.3922 N   0  0  0  0  0  0  0  0  0  0  0  0
   -1.2974    3.3730    7.7994 C   0  0  0  0  0  0  0  0  0  0  0  0
   -0.4480    2.4289    8.6666 C   0  0  0  0  0  0  0  0  0  0  0  0
   -0.9123    2.4732   10.1235 C   0  0  0  0  0  0  0  0  0  0  0  0
   -2.3024    2.1739   10.1701 O   0  0  0  0  0  0  0  0  0  0  0  0
   -3.1136    3.1499    9.5281 C   0  0  0  0  0  0  0  0  0  0  0  0
   -2.7967    3.1366    8.0324 C   0  0  0  0  0  0  0  0  0  0  0  0
   -0.2238    1.0014    1.3778 H   0  0  0  0  0  0  0  0  0  0  0  0
    0.0599    2.6834    1.8009 H   0  0  0  0  0  0  0  0  0  0  0  0
   -1.7086   -1.0156    5.1143 H   0  0  0  0  0  0  0  0  0  0  0  0
   -0.2954    5.2380    5.8973 H   0  0  0  0  0  0  0  0  0  0  0  0
   -1.0726    4.3950    8.1074 H   0  0  0  0  0  0  0  0  0  0  0  0
   -0.5405    1.3989    8.3244 H   0  0  0  0  0  0  0  0  0  0  0  0
    0.6091    2.6905    8.5918 H   0  0  0  0  0  0  0  0  0  0  0  0
   -0.3722    1.7247   10.7039 H   0  0  0  0  0  0  0  0  0  0  0  0
   -0.7141    3.4453   10.5786 H   0  0  0  0  0  0  0  0  0  0  0  0
   -4.1616    2.8970    9.6854 H   0  0  0  0  0  0  0  0  0  0  0  0
   -2.9491    4.1371    9.9663 H   0  0  0  0  0  0  0  0  0  0  0  0
   -3.3840    3.8952    7.5178 H   0  0  0  0  0  0  0  0  0  0  0  0
   -3.1032    2.1752    7.6212 H   0  0  0  0  0  0  0  0  0  0  0  0
  1  2  1  0
  1 18  1  0
  1 17  1  0
  2  3  2  0
  2  7  1  0
  3  4  1  0
  4 19  1  0
  4  5  2  0
  5  6  1  0
  6 10  1  0
  6  7  2  0
  7  8  1  0
  8  9  2  0
  9 20  1  0
  9 10  1  0
 10 11  1  0
 11 16  1  0
 11 12  1  0
 11 21  1  0
 12 13  1  0
 12 22  1  0
 12 23  1  0
 13 14  1  0
 13 24  1  0
 13 25  1  0
 14 15  1  0
 15 16  1  0
 15 26  1  0
 15 27  1  0
 16 28  1  0
 16 29  1  0
M  END
>  <i_m_ct_stereo_status>  (257) 
1

>  <s_m_source_file>  (257) 
/var/tmp/pbs.5076255.sched01/tmprh8juyh8/78tr4t3sa2.sdf

>  <i_m_source_file_index>  (257) 
33

>  <i_lp_mmshare_version>  (257) 
48012

>  <i_f3d_flags>  (257) 
0

>  <s_epik_input>  (257) 
bjFbY0hdW25IXVxjKD1OXFtIXSljKGMxMiluW2NIXW4yW0NIXTNbQ0gyXVtDSDJdT1tDSDJdW0NIMl0z

>  <s_epik_cmdline>  (257) 
J2VwaWtfcHl0aG9uJywgJy1waHQnLCAnMi4wJywgJy1waCcsICc3LjAnLCAnLXRuJywgJzgnLCAnLW1hJywgJzIwMCcsICctaW1hZScsICc8aW5maWxlLm1hZT4nLCAnLW9tYWUnLCAnPG91dGZpbGUubWFlPic=

>  <r_lp_tautomer_probability>  (257) 
1

>  <r_epik_Ionization_Penalty>  (257) 
0.00109342

>  <r_epik_Ionization_Penalty_Charging>  (257) 
0

>  <r_epik_Ionization_Penalty_Neutral>  (257) 
0.00109342

>  <r_epik_State_Penalty>  (257) 
-0

>  <r_epik_Charging_Adjusted_Penalty>  (257) 
0

>  <i_epik_Tot_Q>  (257) 
0

>  <i_epik_Tot_abs_Q>  (257) 
0

>  <s_lp_Force_Field>  (257) 
OPLS3e

>  <r_lp_Energy>  (257) 
15.8725

>  <b_lp_Chiralities_Consistent>  (257) 
1

>  <s_lp_Variant>  (257) 
87:0-1

>  <s_i_glide_gridfile>  (257) 
pfpi4k_grid

>  <i_i_glide_lignum>  (257) 
33

>  <i_i_glide_rotatable_bonds>  (257) 
1

>  <r_i_docking_score>  (257) 
-3.13512

>  <r_i_glide_ligand_efficiency>  (257) 
-0.195945

>  <r_i_glide_ligand_efficiency_sa>  (257) 
-0.49375

>  <r_i_glide_ligand_efficiency_ln>  (257) 
-0.831025

>  <r_i_glide_gscore>  (257) 
-3.13512

>  <r_i_glide_lipo>  (257) 
-0.129431

>  <r_i_glide_hbond>  (257) 
-0.16

>  <r_i_glide_metal>  (257) 
-0

>  <r_i_glide_rewards>  (257) 
-1.92185

>  <r_i_glide_evdw>  (257) 
-18.7601

>  <r_i_glide_ecoul>  (257) 
-1.29731

>  <r_i_glide_erotb>  (257) 
0.350041

>  <r_i_glide_esite>  (257) 
-0.141272

>  <r_i_glide_emodel>  (257) 
-24.5034

>  <r_i_glide_energy>  (257) 
-20.0575

>  <r_i_glide_einternal>  (257) 
0.365598

>  <r_i_glide_intrahb_reward>  (257) 
-0

>  <i_i_glide_confnum>  (257) 
5

>  <i_i_glide_posenum>  (257) 
19

>  <r_i_glide_eff_state_penalty>  (257) 
0

>  <ligand_id>  (257) 
87

>  <original_smiles>  (257) 
N=c1[nH]cnc2c1ncn2C1CCOCC1

>  <smiles>  (257) 
[H]c1nc(N([H])[H])c2nc([H])n(C3([H])C([H])([H])C([H])([H])OC([H])([H])C3([H])[H])c2n1

$$$$
87:0:2
     RDKit          3D

 29 31  0  0  1  0  0  0  0  0999 V2000
    2.9126   -2.3732    2.1132 N   0  0  0  0  0  0  0  0  0  0  0  0
    1.9504   -1.7204    2.7702 C   0  0  0  0  0  0  0  0  0  0  0  0
    1.1942   -2.4099    3.6583 N   0  0  0  0  0  0  0  0  0  0  0  0
    0.2320   -1.7624    4.3274 C   0  0  0  0  0  0  0  0  0  0  0  0
   -0.1212   -0.4784    4.2475 N   0  0  0  0  0  0  0  0  0  0  0  0
    0.6537    0.2048    3.3512 C   0  0  0  0  0  0  0  0  0  0  0  0
    1.7094   -0.3394    2.5772 C   0  0  0  0  0  0  0  0  0  0  0  0
    2.2910    0.6470    1.7883 N   0  0  0  0  0  0  0  0  0  0  0  0
    1.6053    1.7206    2.0752 C   0  0  0  0  0  0  0  0  0  0  0  0
    0.6027    1.5450    3.0012 N   0  0  0  0  0  0  0  0  0  0  0  0
   -0.3002    2.5657    3.4972 C   0  0  0  0  0  0  0  0  0  0  0  0
   -0.1122    2.7756    5.0072 C   0  0  0  0  0  0  0  0  0  0  0  0
   -1.1639    3.7434    5.5575 C   0  0  0  0  0  0  0  0  0  0  0  0
   -2.4715    3.2794    5.2328 O   0  0  0  0  0  0  0  0  0  0  0  0
   -2.7063    3.2194    3.8272 C   0  0  0  0  0  0  0  0  0  0  0  0
   -1.7571    2.2151    3.1741 C   0  0  0  0  0  0  0  0  0  0  0  0
    3.0610   -3.3535    2.2797 H   0  0  0  0  0  0  0  0  0  0  0  0
    3.4627   -1.8515    1.4450 H   0  0  0  0  0  0  0  0  0  0  0  0
   -0.3411   -2.3643    5.0188 H   0  0  0  0  0  0  0  0  0  0  0  0
    1.7961    2.6838    1.6111 H   0  0  0  0  0  0  0  0  0  0  0  0
   -0.0637    3.5033    2.9902 H   0  0  0  0  0  0  0  0  0  0  0  0
   -0.2063    1.8299    5.5394 H   0  0  0  0  0  0  0  0  0  0  0  0
    0.8925    3.1491    5.2106 H   0  0  0  0  0  0  0  0  0  0  0  0
   -1.0692    3.8075    6.6419 H   0  0  0  0  0  0  0  0  0  0  0  0
   -1.0167    4.7479    5.1588 H   0  0  0  0  0  0  0  0  0  0  0  0
   -3.7372    2.9080    3.6588 H   0  0  0  0  0  0  0  0  0  0  0  0
   -2.5893    4.2107    3.3864 H   0  0  0  0  0  0  0  0  0  0  0  0
   -1.9113    2.1899    2.0936 H   0  0  0  0  0  0  0  0  0  0  0  0
   -2.0026    1.2227    3.5467 H   0  0  0  0  0  0  0  0  0  0  0  0
  1  2  1  0
  1 18  1  0
  1 17  1  0
  2  3  2  0
  2  7  1  0
  3  4  1  0
  4 19  1  0
  4  5  2  0
  5  6  1  0
  6 10  1  0
  6  7  2  0
  7  8  1  0
  8  9  2  0
  9 20  1  0
  9 10  1  0
 10 11  1  0
 11 16  1  0
 11 12  1  0
 11 21  1  0
 12 13  1  0
 12 22  1  0
 12 23  1  0
 13 14  1  0
 13 24  1  0
 13 25  1  0
 14 15  1  0
 15 16  1  0
 15 26  1  0
 15 27  1  0
 16 28  1  0
 16 29  1  0
M  END
>  <i_m_ct_stereo_status>  (258) 
1

>  <s_m_source_file>  (258) 
/var/tmp/pbs.5076255.sched01/tmprh8juyh8/78tr4t3sa2.sdf

>  <i_m_source_file_index>  (258) 
33

>  <i_lp_mmshare_version>  (258) 
48012

>  <i_f3d_flags>  (258) 
0

>  <s_epik_input>  (258) 
bjFbY0hdW25IXVxjKD1OXFtIXSljKGMxMiluW2NIXW4yW0NIXTNbQ0gyXVtDSDJdT1tDSDJdW0NIMl0z

>  <s_epik_cmdline>  (258) 
J2VwaWtfcHl0aG9uJywgJy1waHQnLCAnMi4wJywgJy1waCcsICc3LjAnLCAnLXRuJywgJzgnLCAnLW1hJywgJzIwMCcsICctaW1hZScsICc8aW5maWxlLm1hZT4nLCAnLW9tYWUnLCAnPG91dGZpbGUubWFlPic=

>  <r_lp_tautomer_probability>  (258) 
1

>  <r_epik_Ionization_Penalty>  (258) 
0.00109342

>  <r_epik_Ionization_Penalty_Charging>  (258) 
0

>  <r_epik_Ionization_Penalty_Neutral>  (258) 
0.00109342

>  <r_epik_State_Penalty>  (258) 
-0

>  <r_epik_Charging_Adjusted_Penalty>  (258) 
0

>  <i_epik_Tot_Q>  (258) 
0

>  <i_epik_Tot_abs_Q>  (258) 
0

>  <s_lp_Force_Field>  (258) 
OPLS3e

>  <r_lp_Energy>  (258) 
15.8725

>  <b_lp_Chiralities_Consistent>  (258) 
1

>  <s_lp_Variant>  (258) 
87:0-1

>  <s_i_glide_gridfile>  (258) 
pfpi4k_grid

>  <i_i_glide_lignum>  (258) 
33

>  <i_i_glide_rotatable_bonds>  (258) 
1

>  <r_i_docking_score>  (258) 
-2.73582

>  <r_i_glide_ligand_efficiency>  (258) 
-0.170989

>  <r_i_glide_ligand_efficiency_sa>  (258) 
-0.430865

>  <r_i_glide_ligand_efficiency_ln>  (258) 
-0.725184

>  <r_i_glide_gscore>  (258) 
-2.73582

>  <r_i_glide_lipo>  (258) 
0

>  <r_i_glide_hbond>  (258) 
0

>  <r_i_glide_metal>  (258) 
-0

>  <r_i_glide_rewards>  (258) 
-1.92944

>  <r_i_glide_evdw>  (258) 
-20.0123

>  <r_i_glide_ecoul>  (258) 
-0.452952

>  <r_i_glide_erotb>  (258) 
0.350041

>  <r_i_glide_esite>  (258) 
-0.0878616

>  <r_i_glide_emodel>  (258) 
-24.3505

>  <r_i_glide_energy>  (258) 
-20.4652

>  <r_i_glide_einternal>  (258) 
0.334009

>  <r_i_glide_intrahb_reward>  (258) 
-0

>  <i_i_glide_confnum>  (258) 
3

>  <i_i_glide_posenum>  (258) 
18

>  <r_i_glide_eff_state_penalty>  (258) 
0

>  <ligand_id>  (258) 
87

>  <original_smiles>  (258) 
N=c1[nH]cnc2c1ncn2C1CCOCC1

>  <smiles>  (258) 
[H]c1nc(N([H])[H])c2nc([H])n(C3([H])C([H])([H])C([H])([H])OC([H])([H])C3([H])[H])c2n1

$$$$
88:0:0
     RDKit          3D

 84 90  0  0  1  0  0  0  0  0999 V2000
    3.2675   -6.3802    2.1275 C   0  0  0  0  0  0  0  0  0  0  0  0
    4.6777   -5.7639    2.0287 C   0  0  2  0  0  0  0  0  0  0  0  0
    4.7257   -4.5027    2.7083 O   0  0  0  0  0  0  0  0  0  0  0  0
    4.0031   -3.4323    2.1616 C   0  0  1  0  0  0  0  0  0  0  0  0
    4.1429   -2.2875    2.9462 O   0  0  0  0  0  0  0  0  0  0  0  0
    3.1445   -1.2752    2.7253 C   0  0  2  0  0  0  0  0  0  0  0  0
    3.8167    0.1337    2.9074 C   0  0  1  0  0  0  0  0  0  0  0  0
    3.2087    1.0291    1.8389 C   0  0  0  0  0  0  0  0  0  0  0  0
    1.7533    0.7253    1.6058 C   0  0  0  0  0  0  0  0  0  0  0  0
    1.0939    0.1892    2.8817 C   0  0  2  0  0  0  0  0  0  0  0  0
    0.3908    1.4041    3.5994 C   0  0  1  0  0  0  0  0  0  0  0  0
    1.1799    2.7955    3.5325 C   0  0  0  0  0  0  0  0  0  0  0  0
    0.6485    3.8766    4.3082 O   0  0  0  0  0  0  0  0  0  0  0  0
   -0.7038    4.1615    4.1161 C   0  0  1  0  0  0  0  0  0  0  0  0
   -0.9737    4.9910    3.0116 O   0  0  0  0  0  0  0  0  0  0  0  0
   -1.4846    2.8330    4.0867 C   0  0  1  0  0  0  0  0  0  0  0  0
   -2.9622    3.0975    3.9416 C   0  0  0  0  0  0  0  0  0  0  0  0
   -0.9227    1.9238    2.9544 C   0  0  0  0  0  0  0  0  0  0  0  0
   -1.1191    2.0486    5.3398 C   0  0  0  0  0  0  0  0  0  0  0  0
   -1.5117    2.3339    6.5084 O   0  0  0  0  0  0  0  0  0  0  0  0
   -0.2396    0.9154    4.9156 C   0  0  2  0  0  0  0  0  0  0  0  0
    0.3566   -0.2417    5.7607 C   0  0  1  0  0  0  0  0  0  0  0  0
   -0.4205   -0.3061    7.0880 C   0  0  0  0  0  0  0  0  0  0  0  0
   -0.0861   -1.5451    4.9536 C   0  0  0  0  0  0  0  0  0  0  0  0
   -1.1591   -2.0909    5.2068 O   0  0  0  0  0  0  0  0  0  0  0  0
    0.7968   -2.1480    3.8318 C   0  0  0  0  0  0  0  0  0  0  0  0
    1.8658   -1.1304    3.5740 C   0  0  1  0  0  0  0  0  0  0  0  0
    2.7882   -1.4708    4.6743 O   0  0  0  0  0  0  0  0  0  0  0  0
    2.6221   -1.4429    6.0814 C   0  0  0  0  0  0  0  0  0  0  0  0
    2.0278   -2.7297    6.7502 C   0  0  0  0  0  0  0  0  0  0  0  0
    4.0367   -1.4167    6.7281 C   0  0  0  0  0  0  0  0  0  0  0  0
    1.8953   -0.1138    6.1686 C   0  0  1  0  0  0  0  0  0  0  0  0
    2.8207    1.0152    5.5328 C   0  0  0  0  0  0  0  0  0  0  0  0
    3.9359    0.8298    4.3589 C   0  0  0  0  0  0  0  0  0  0  0  0
    4.4835   -3.1638    0.7004 C   0  0  1  0  0  0  0  0  0  0  0  0
    5.7685   -2.5592    0.6976 O   0  0  0  0  0  0  0  0  0  0  0  0
    4.4412   -4.4630   -0.1122 C   0  0  1  0  0  0  0  0  0  0  0  0
    4.8123   -4.2628   -1.4703 O   0  0  0  0  0  0  0  0  0  0  0  0
    5.1877   -5.6242    0.5807 C   0  0  1  0  0  0  0  0  0  0  0  0
    6.5793   -5.3846    0.6544 O   0  0  0  0  0  0  0  0  0  0  0  0
    3.2301   -7.3697    1.6698 H   0  0  0  0  0  0  0  0  0  0  0  0
    2.4988   -5.7741    1.6448 H   0  0  0  0  0  0  0  0  0  0  0  0
    2.9795   -6.4815    3.1740 H   0  0  0  0  0  0  0  0  0  0  0  0
    5.3655   -6.4281    2.5537 H   0  0  0  0  0  0  0  0  0  0  0  0
    2.9445   -3.7005    2.2234 H   0  0  0  0  0  0  0  0  0  0  0  0
    2.8412   -1.4362    1.6993 H   0  0  0  0  0  0  0  0  0  0  0  0
    4.8535    0.0169    2.5968 H   0  0  0  0  0  0  0  0  0  0  0  0
    3.2980    2.0705    2.1076 H   0  0  0  0  0  0  0  0  0  0  0  0
    3.7599    0.9078    0.9026 H   0  0  0  0  0  0  0  0  0  0  0  0
    1.2295    1.5751    1.1816 H   0  0  0  0  0  0  0  0  0  0  0  0
    1.7104   -0.0109    0.8172 H   0  0  0  0  0  0  0  0  0  0  0  0
    0.2329   -0.2774    2.4088 H   0  0  0  0  0  0  0  0  0  0  0  0
    2.2386    2.7485    3.7363 H   0  0  0  0  0  0  0  0  0  0  0  0
    1.1761    3.1853    2.5142 H   0  0  0  0  0  0  0  0  0  0  0  0
   -1.0058    4.7527    4.9834 H   0  0  0  0  0  0  0  0  0  0  0  0
   -0.5187    4.6572    2.2270 H   0  0  0  0  0  0  0  0  0  0  0  0
   -3.2015    3.6565    3.0381 H   0  0  0  0  0  0  0  0  0  0  0  0
   -3.2864    3.6557    4.8159 H   0  0  0  0  0  0  0  0  0  0  0  0
   -3.4979    2.1565    3.8884 H   0  0  0  0  0  0  0  0  0  0  0  0
   -0.7812    2.4657    2.0225 H   0  0  0  0  0  0  0  0  0  0  0  0
   -1.6210    1.1191    2.7179 H   0  0  0  0  0  0  0  0  0  0  0  0
   -1.1212    0.3829    4.5671 H   0  0  0  0  0  0  0  0  0  0  0  0
   -0.2294    0.5410    7.7421 H   0  0  0  0  0  0  0  0  0  0  0  0
   -0.1903   -1.2112    7.6465 H   0  0  0  0  0  0  0  0  0  0  0  0
   -1.4841   -0.3035    6.8766 H   0  0  0  0  0  0  0  0  0  0  0  0
    1.2244   -3.0971    4.1412 H   0  0  0  0  0  0  0  0  0  0  0  0
    0.2154   -2.3346    2.9318 H   0  0  0  0  0  0  0  0  0  0  0  0
    1.8745   -2.5608    7.8175 H   0  0  0  0  0  0  0  0  0  0  0  0
    2.7293   -3.5600    6.6532 H   0  0  0  0  0  0  0  0  0  0  0  0
    1.0946   -3.1393    6.3860 H   0  0  0  0  0  0  0  0  0  0  0  0
    3.9838   -1.6543    7.7933 H   0  0  0  0  0  0  0  0  0  0  0  0
    4.5684   -0.4726    6.6923 H   0  0  0  0  0  0  0  0  0  0  0  0
    4.6777   -2.1639    6.2538 H   0  0  0  0  0  0  0  0  0  0  0  0
    1.9060    0.1375    7.2296 H   0  0  0  0  0  0  0  0  0  0  0  0
    2.2414    1.9195    5.5155 H   0  0  0  0  0  0  0  0  0  0  0  0
    3.4557    1.3138    6.3678 H   0  0  0  0  0  0  0  0  0  0  0  0
    4.7829    0.3117    4.7976 H   0  0  0  0  0  0  0  0  0  0  0  0
    4.3502    1.8240    4.1865 H   0  0  0  0  0  0  0  0  0  0  0  0
    3.7991   -2.4865    0.2041 H   0  0  0  0  0  0  0  0  0  0  0  0
    5.7432   -1.8417    1.2944 H   0  0  0  0  0  0  0  0  0  0  0  0
    3.3975   -4.7715   -0.1804 H   0  0  0  0  0  0  0  0  0  0  0  0
    4.4640   -4.9800   -1.9843 H   0  0  0  0  0  0  0  0  0  0  0  0
    5.0495   -6.5609    0.0336 H   0  0  0  0  0  0  0  0  0  0  0  0
    6.6777   -4.4785    0.9107 H   0  0  0  0  0  0  0  0  0  0  0  0
  1  2  1  0
  1 41  1  0
  1 42  1  0
  1 43  1  0
  2 39  1  0
  2  3  1  0
  2 44  1  1
  3  4  1  0
  4  5  1  0
  4 35  1  0
  4 45  1  6
  5  6  1  0
  6 27  1  0
  6  7  1  0
  6 46  1  6
  7 34  1  0
  7  8  1  0
  7 47  1  6
  8  9  1  0
  8 48  1  0
  8 49  1  0
  9 10  1  0
  9 50  1  0
  9 51  1  0
 10 27  1  0
 10 11  1  0
 10 52  1  6
 11 18  1  0
 11 21  1  0
 11 12  1  1
 12 13  1  0
 12 53  1  0
 12 54  1  0
 13 14  1  0
 14 15  1  0
 14 16  1  0
 14 55  1  1
 15 56  1  0
 16 17  1  6
 16 18  1  0
 16 19  1  0
 17 57  1  0
 17 58  1  0
 17 59  1  0
 18 60  1  0
 18 61  1  0
 19 20  2  0
 19 21  1  0
 21 22  1  0
 21 62  1  6
 22 32  1  0
 22 23  1  1
 22 24  1  0
 23 63  1  0
 23 64  1  0
 23 65  1  0
 24 25  2  0
 24 26  1  0
 26 27  1  0
 26 66  1  0
 26 67  1  0
 27 28  1  1
 28 29  1  0
 29 30  1  0
 29 31  1  0
 29 32  1  0
 30 68  1  0
 30 69  1  0
 30 70  1  0
 31 71  1  0
 31 72  1  0
 31 73  1  0
 32 33  1  0
 32 74  1  1
 33 34  1  0
 33 75  1  0
 33 76  1  0
 34 77  1  0
 34 78  1  0
 35 36  1  0
 35 37  1  0
 35 79  1  6
 36 80  1  0
 37 38  1  0
 37 39  1  0
 37 81  1  6
 38 82  1  0
 39 40  1  0
 39 83  1  6
 40 84  1  0
M  END
>  <i_m_ct_stereo_status>  (259) 
1

>  <s_m_source_file>  (259) 
/var/tmp/pbs.5076255.sched01/tmprh8juyh8/78tr4t3sa2.sdf

>  <i_m_source_file_index>  (259) 
34

>  <i_lp_mmshare_version>  (259) 
48012

>  <i_f3d_flags>  (259) 
0

>  <s_epik_input>  (259) 
W09IXVtDQEBIXTFbQ0BIXShbT0hdKVtDQEhdKFtPSF0pW0NAQEhdKE9bQ0BIXTFbQ0gzXSlPW0NAQEhdKFtDQEBdMjNbQ0BIXTRbQ0BAXTU2NylbQ0BASF0oW0NIMl1bQ0gyXTQpW0NIMl1bQ0gyXVtDQEhdKEMoTzMpKFtDSDNdKVtDSDNdKVtDQF0oW0NIM10pKEMoPU8pW0NIMl0yKVtDQEhdN0MoPU8pW0NAXShbQ0gzXSkoW0NIMl02KVtDQEhdKFtPSF0pT1tDSDJdNQ==

>  <s_epik_cmdline>  (259) 
J2VwaWtfcHl0aG9uJywgJy1waHQnLCAnMi4wJywgJy1waCcsICc3LjAnLCAnLXRuJywgJzgnLCAnLW1hJywgJzIwMCcsICctaW1hZScsICc8aW5maWxlLm1hZT4nLCAnLW9tYWUnLCAnPG91dGZpbGUubWFlPic=

>  <r_lp_tautomer_probability>  (259) 
1

>  <r_epik_Ionization_Penalty>  (259) 
2.11278e-06

>  <r_epik_Ionization_Penalty_Charging>  (259) 
0

>  <r_epik_Ionization_Penalty_Neutral>  (259) 
2.11278e-06

>  <r_epik_State_Penalty>  (259) 
-0

>  <r_epik_Charging_Adjusted_Penalty>  (259) 
0

>  <i_epik_Tot_Q>  (259) 
0

>  <i_epik_Tot_abs_Q>  (259) 
0

>  <s_epik_Chemistry_Notes>  (259) 
This compound contains an acetal/aminal-like group ( X-CH(R)-Y where X, Y are N, S, or O) that may be acid/base labile, releasing an aldehyde.

>  <s_lp_Force_Field>  (259) 
OPLS3e

>  <r_lp_Energy>  (259) 
226.012

>  <b_lp_Chiralities_Consistent>  (259) 
1

>  <s_lp_Variant>  (259) 
88:0-1

>  <s_i_glide_gridfile>  (259) 
pfpi4k_grid

>  <i_i_glide_lignum>  (259) 
34

>  <i_i_glide_rotatable_bonds>  (259) 
6

>  <r_i_docking_score>  (259) 
-4.16407

>  <r_i_glide_ligand_efficiency>  (259) 
-0.104102

>  <r_i_glide_ligand_efficiency_sa>  (259) 
-0.356023

>  <r_i_glide_ligand_efficiency_ln>  (259) 
-0.888073

>  <r_i_glide_gscore>  (259) 
-4.16407

>  <r_i_glide_lipo>  (259) 
-0.262204

>  <r_i_glide_hbond>  (259) 
0

>  <r_i_glide_metal>  (259) 
-0

>  <r_i_glide_rewards>  (259) 
-0.504943

>  <r_i_glide_evdw>  (259) 
-24.7888

>  <r_i_glide_ecoul>  (259) 
-14.0401

>  <r_i_glide_erotb>  (259) 
0.0461335

>  <r_i_glide_esite>  (259) 
-0.0975938

>  <r_i_glide_emodel>  (259) 
-49.8977

>  <r_i_glide_energy>  (259) 
-38.8289

>  <r_i_glide_einternal>  (259) 
7.28209

>  <r_i_glide_intrahb_reward>  (259) 
-0.5

>  <i_i_glide_confnum>  (259) 
1

>  <i_i_glide_posenum>  (259) 
23

>  <r_i_glide_eff_state_penalty>  (259) 
0

>  <ligand_id>  (259) 
88

>  <original_smiles>  (259) 
CC1OC(OC2C3CCC4C56COC(O)C(C)(C5)C(=O)C6C5(C)C(=O)CC24OC(C)(C)C5CC3)C(O)C(O)C1O

>  <smiles>  (259) 
[H]OC1([H])OC([H])([H])C23C([H])([H])C1(C([H])([H])[H])C(=O)C2([H])C1(C([H])([H])[H])C(=O)C([H])([H])C24OC(C([H])([H])[H])(C([H])([H])[H])C1([H])C([H])([H])C([H])([H])C([H])(C([H])([H])C([H])([H])C23[H])C4([H])OC1([H])OC([H])(C([H])([H])[H])C([H])(O[H])C([H])(O[H])C1([H])O[H]

$$$$
88:0:1
     RDKit          3D

 84 90  0  0  1  0  0  0  0  0999 V2000
    2.7647   -6.5450    4.2832 C   0  0  0  0  0  0  0  0  0  0  0  0
    3.7610   -6.2884    3.1244 C   0  0  2  0  0  0  0  0  0  0  0  0
    4.2209   -4.9256    3.1573 O   0  0  0  0  0  0  0  0  0  0  0  0
    3.2992   -3.9196    2.8470 C   0  0  1  0  0  0  0  0  0  0  0  0
    3.8522   -2.6383    2.9781 O   0  0  0  0  0  0  0  0  0  0  0  0
    2.9408   -1.5326    2.8238 C   0  0  2  0  0  0  0  0  0  0  0  0
    3.7540   -0.1887    2.8131 C   0  0  1  0  0  0  0  0  0  0  0  0
    3.0937    0.7224    1.7735 C   0  0  0  0  0  0  0  0  0  0  0  0
    1.5782    0.5529    1.7845 C   0  0  0  0  0  0  0  0  0  0  0  0
    1.0665    0.1264    3.1862 C   0  0  2  0  0  0  0  0  0  0  0  0
    0.5716    1.4125    3.9464 C   0  0  1  0  0  0  0  0  0  0  0  0
    1.4577    2.7093    3.6703 C   0  0  0  0  0  0  0  0  0  0  0  0
    1.1511    3.8494    4.4740 O   0  0  0  0  0  0  0  0  0  0  0  0
   -0.1849    4.2682    4.4584 C   0  0  1  0  0  0  0  0  0  0  0  0
   -0.5088    5.0225    3.3055 O   0  0  0  0  0  0  0  0  0  0  0  0
   -1.0821    3.0247    4.6434 C   0  0  1  0  0  0  0  0  0  0  0  0
   -2.5509    3.4143    4.7562 C   0  0  0  0  0  0  0  0  0  0  0  0
   -0.7866    2.0237    3.4892 C   0  0  0  0  0  0  0  0  0  0  0  0
   -0.5796    2.2770    5.8809 C   0  0  0  0  0  0  0  0  0  0  0  0
   -0.7393    2.6450    7.0497 O   0  0  0  0  0  0  0  0  0  0  0  0
    0.1159    1.0426    5.3758 C   0  0  2  0  0  0  0  0  0  0  0  0
    0.7166   -0.1248    6.2054 C   0  0  1  0  0  0  0  0  0  0  0  0
    0.1609   -0.0756    7.6563 C   0  0  0  0  0  0  0  0  0  0  0  0
    0.0360   -1.4038    5.5343 C   0  0  0  0  0  0  0  0  0  0  0  0
   -1.0468   -1.8257    5.9423 O   0  0  0  0  0  0  0  0  0  0  0  0
    0.6775   -2.1226    4.3294 C   0  0  0  0  0  0  0  0  0  0  0  0
    1.8006   -1.2294    3.8345 C   0  0  1  0  0  0  0  0  0  0  0  0
    2.8450   -1.6056    4.8123 O   0  0  0  0  0  0  0  0  0  0  0  0
    2.9099   -1.5070    6.2249 C   0  0  0  0  0  0  0  0  0  0  0  0
    2.3285   -2.7001    7.0583 C   0  0  0  0  0  0  0  0  0  0  0  0
    4.4090   -1.5816    6.6477 C   0  0  0  0  0  0  0  0  0  0  0  0
    2.3149   -0.1181    6.3468 C   0  0  1  0  0  0  0  0  0  0  0  0
    3.2291    0.8876    5.5036 C   0  0  0  0  0  0  0  0  0  0  0  0
    4.1393    0.5455    4.1938 C   0  0  0  0  0  0  0  0  0  0  0  0
    2.6875   -4.1630    1.4368 C   0  0  1  0  0  0  0  0  0  0  0  0
    3.5841   -3.8574    0.3831 O   0  0  0  0  0  0  0  0  0  0  0  0
    2.1532   -5.6031    1.3409 C   0  0  1  0  0  0  0  0  0  0  0  0
    1.5418   -5.8532    0.0907 O   0  0  0  0  0  0  0  0  0  0  0  0
    3.1900   -6.6623    1.7364 C   0  0  1  0  0  0  0  0  0  0  0  0
    4.2367   -6.7944    0.7891 O   0  0  0  0  0  0  0  0  0  0  0  0
    2.4467   -7.5884    4.3193 H   0  0  0  0  0  0  0  0  0  0  0  0
    1.8413   -5.9616    4.2234 H   0  0  0  0  0  0  0  0  0  0  0  0
    3.2196   -6.2939    5.2421 H   0  0  0  0  0  0  0  0  0  0  0  0
    4.6387   -6.9177    3.3001 H   0  0  0  0  0  0  0  0  0  0  0  0
    2.5568   -3.9626    3.6257 H   0  0  0  0  0  0  0  0  0  0  0  0
    2.5656   -1.6678    1.8192 H   0  0  0  0  0  0  0  0  0  0  0  0
    4.7126   -0.4268    2.3661 H   0  0  0  0  0  0  0  0  0  0  0  0
    3.3753    1.7554    1.9422 H   0  0  0  0  0  0  0  0  0  0  0  0
    3.4682    0.4734    0.7743 H   0  0  0  0  0  0  0  0  0  0  0  0
    1.0675    1.4132    1.3585 H   0  0  0  0  0  0  0  0  0  0  0  0
    1.3216   -0.2311    1.0821 H   0  0  0  0  0  0  0  0  0  0  0  0
    0.1073   -0.2817    2.8803 H   0  0  0  0  0  0  0  0  0  0  0  0
    2.5290    2.5611    3.6892 H   0  0  0  0  0  0  0  0  0  0  0  0
    1.3217    3.0573    2.6445 H   0  0  0  0  0  0  0  0  0  0  0  0
   -0.2970    4.9580    5.2929 H   0  0  0  0  0  0  0  0  0  0  0  0
   -0.2003    4.6001    2.5191 H   0  0  0  0  0  0  0  0  0  0  0  0
   -2.9133    3.8499    3.8264 H   0  0  0  0  0  0  0  0  0  0  0  0
   -2.7018    4.1390    5.5565 H   0  0  0  0  0  0  0  0  0  0  0  0
   -3.1660    2.5446    4.9739 H   0  0  0  0  0  0  0  0  0  0  0  0
   -0.7478    2.4981    2.5044 H   0  0  0  0  0  0  0  0  0  0  0  0
   -1.5743    1.2743    3.4070 H   0  0  0  0  0  0  0  0  0  0  0  0
   -0.8555    0.5906    5.1959 H   0  0  0  0  0  0  0  0  0  0  0  0
    0.5279    0.7886    8.2063 H   0  0  0  0  0  0  0  0  0  0  0  0
    0.4422   -0.9572    8.2308 H   0  0  0  0  0  0  0  0  0  0  0  0
   -0.9246   -0.0063    7.6710 H   0  0  0  0  0  0  0  0  0  0  0  0
    1.0312   -3.0830    4.6801 H   0  0  0  0  0  0  0  0  0  0  0  0
   -0.0595   -2.3139    3.5509 H   0  0  0  0  0  0  0  0  0  0  0  0
    2.3663   -2.4673    8.1244 H   0  0  0  0  0  0  0  0  0  0  0  0
    2.9374   -3.5939    6.9102 H   0  0  0  0  0  0  0  0  0  0  0  0
    1.3162   -3.0318    6.8698 H   0  0  0  0  0  0  0  0  0  0  0  0
    4.5124   -1.7625    7.7200 H   0  0  0  0  0  0  0  0  0  0  0  0
    5.0120   -0.6978    6.4743 H   0  0  0  0  0  0  0  0  0  0  0  0
    4.9044   -2.4068    6.1318 H   0  0  0  0  0  0  0  0  0  0  0  0
    2.5136    0.1823    7.3760 H   0  0  0  0  0  0  0  0  0  0  0  0
    2.7406    1.8443    5.5168 H   0  0  0  0  0  0  0  0  0  0  0  0
    4.0092    1.1611    6.2140 H   0  0  0  0  0  0  0  0  0  0  0  0
    4.9932   -0.0356    4.5271 H   0  0  0  0  0  0  0  0  0  0  0  0
    4.6148    1.4891    3.9193 H   0  0  0  0  0  0  0  0  0  0  0  0
    1.8171   -3.5272    1.3403 H   0  0  0  0  0  0  0  0  0  0  0  0
    3.1502   -3.9977   -0.4517 H   0  0  0  0  0  0  0  0  0  0  0  0
    1.3286   -5.6947    2.0431 H   0  0  0  0  0  0  0  0  0  0  0  0
    2.2027   -5.7902   -0.5884 H   0  0  0  0  0  0  0  0  0  0  0  0
    2.7102   -7.6454    1.7843 H   0  0  0  0  0  0  0  0  0  0  0  0
    3.8678   -6.7730   -0.0875 H   0  0  0  0  0  0  0  0  0  0  0  0
  1  2  1  0
  1 41  1  0
  1 42  1  0
  1 43  1  0
  2 39  1  0
  2  3  1  0
  2 44  1  1
  3  4  1  0
  4  5  1  0
  4 35  1  0
  4 45  1  1
  5  6  1  0
  6 27  1  0
  6  7  1  0
  6 46  1  6
  7 34  1  0
  7  8  1  0
  7 47  1  6
  8  9  1  0
  8 48  1  0
  8 49  1  0
  9 10  1  0
  9 50  1  0
  9 51  1  0
 10 27  1  0
 10 11  1  0
 10 52  1  6
 11 18  1  0
 11 21  1  0
 11 12  1  1
 12 13  1  0
 12 53  1  0
 12 54  1  0
 13 14  1  0
 14 15  1  0
 14 16  1  0
 14 55  1  1
 15 56  1  0
 16 17  1  1
 16 18  1  0
 16 19  1  0
 17 57  1  0
 17 58  1  0
 17 59  1  0
 18 60  1  0
 18 61  1  0
 19 20  2  0
 19 21  1  0
 21 22  1  0
 21 62  1  6
 22 32  1  0
 22 23  1  1
 22 24  1  0
 23 63  1  0
 23 64  1  0
 23 65  1  0
 24 25  2  0
 24 26  1  0
 26 27  1  0
 26 66  1  0
 26 67  1  0
 27 28  1  1
 28 29  1  0
 29 30  1  0
 29 31  1  0
 29 32  1  0
 30 68  1  0
 30 69  1  0
 30 70  1  0
 31 71  1  0
 31 72  1  0
 31 73  1  0
 32 33  1  0
 32 74  1  1
 33 34  1  0
 33 75  1  0
 33 76  1  0
 34 77  1  0
 34 78  1  0
 35 36  1  0
 35 37  1  0
 35 79  1  6
 36 80  1  0
 37 38  1  0
 37 39  1  0
 37 81  1  1
 38 82  1  0
 39 40  1  0
 39 83  1  1
 40 84  1  0
M  END
>  <i_m_ct_stereo_status>  (260) 
1

>  <s_m_source_file>  (260) 
/var/tmp/pbs.5076255.sched01/tmprh8juyh8/78tr4t3sa2.sdf

>  <i_m_source_file_index>  (260) 
34

>  <i_lp_mmshare_version>  (260) 
48012

>  <i_f3d_flags>  (260) 
0

>  <s_epik_input>  (260) 
W09IXVtDQEBIXTFbQ0BIXShbT0hdKVtDQEhdKFtPSF0pW0NAQEhdKE9bQ0BIXTFbQ0gzXSlPW0NAQEhdKFtDQEBdMjNbQ0BIXTRbQ0BAXTU2NylbQ0BASF0oW0NIMl1bQ0gyXTQpW0NIMl1bQ0gyXVtDQEhdKEMoTzMpKFtDSDNdKVtDSDNdKVtDQF0oW0NIM10pKEMoPU8pW0NIMl0yKVtDQEhdN0MoPU8pW0NAXShbQ0gzXSkoW0NIMl02KVtDQEhdKFtPSF0pT1tDSDJdNQ==

>  <s_epik_cmdline>  (260) 
J2VwaWtfcHl0aG9uJywgJy1waHQnLCAnMi4wJywgJy1waCcsICc3LjAnLCAnLXRuJywgJzgnLCAnLW1hJywgJzIwMCcsICctaW1hZScsICc8aW5maWxlLm1hZT4nLCAnLW9tYWUnLCAnPG91dGZpbGUubWFlPic=

>  <r_lp_tautomer_probability>  (260) 
1

>  <r_epik_Ionization_Penalty>  (260) 
2.11278e-06

>  <r_epik_Ionization_Penalty_Charging>  (260) 
0

>  <r_epik_Ionization_Penalty_Neutral>  (260) 
2.11278e-06

>  <r_epik_State_Penalty>  (260) 
-0

>  <r_epik_Charging_Adjusted_Penalty>  (260) 
0

>  <i_epik_Tot_Q>  (260) 
0

>  <i_epik_Tot_abs_Q>  (260) 
0

>  <s_epik_Chemistry_Notes>  (260) 
This compound contains an acetal/aminal-like group ( X-CH(R)-Y where X, Y are N, S, or O) that may be acid/base labile, releasing an aldehyde.

>  <s_lp_Force_Field>  (260) 
OPLS3e

>  <r_lp_Energy>  (260) 
226.012

>  <b_lp_Chiralities_Consistent>  (260) 
1

>  <s_lp_Variant>  (260) 
88:0-1

>  <s_i_glide_gridfile>  (260) 
pfpi4k_grid

>  <i_i_glide_lignum>  (260) 
34

>  <i_i_glide_rotatable_bonds>  (260) 
6

>  <r_i_docking_score>  (260) 
-3.79896

>  <r_i_glide_ligand_efficiency>  (260) 
-0.094974

>  <r_i_glide_ligand_efficiency_sa>  (260) 
-0.324807

>  <r_i_glide_ligand_efficiency_ln>  (260) 
-0.810207

>  <r_i_glide_gscore>  (260) 
-3.79896

>  <r_i_glide_lipo>  (260) 
-0.23322

>  <r_i_glide_hbond>  (260) 
0

>  <r_i_glide_metal>  (260) 
-0

>  <r_i_glide_rewards>  (260) 
-0.000163953

>  <r_i_glide_evdw>  (260) 
-29.0736

>  <r_i_glide_ecoul>  (260) 
-13.9233

>  <r_i_glide_erotb>  (260) 
0.0461335

>  <r_i_glide_esite>  (260) 
-0.0695303

>  <r_i_glide_emodel>  (260) 
-49.7105

>  <r_i_glide_energy>  (260) 
-42.9969

>  <r_i_glide_einternal>  (260) 
5.89123

>  <r_i_glide_intrahb_reward>  (260) 
-0

>  <i_i_glide_confnum>  (260) 
1

>  <i_i_glide_posenum>  (260) 
25

>  <r_i_glide_eff_state_penalty>  (260) 
0

>  <ligand_id>  (260) 
88

>  <original_smiles>  (260) 
CC1OC(OC2C3CCC4C56COC(O)C(C)(C5)C(=O)C6C5(C)C(=O)CC24OC(C)(C)C5CC3)C(O)C(O)C1O

>  <smiles>  (260) 
[H]OC1([H])OC([H])([H])C23C([H])([H])C1(C([H])([H])[H])C(=O)C2([H])C1(C([H])([H])[H])C(=O)C([H])([H])C24OC(C([H])([H])[H])(C([H])([H])[H])C1([H])C([H])([H])C([H])([H])C([H])(C([H])([H])C([H])([H])C23[H])C4([H])OC1([H])OC([H])(C([H])([H])[H])C([H])(O[H])C([H])(O[H])C1([H])O[H]

$$$$
88:0:2
     RDKit          3D

 84 90  0  0  1  0  0  0  0  0999 V2000
    3.3437   -2.9637   -2.8482 C   0  0  0  0  0  0  0  0  0  0  0  0
    4.8335   -3.2459   -2.5420 C   0  0  2  0  0  0  0  0  0  0  0  0
    4.9516   -4.3532   -1.6336 O   0  0  0  0  0  0  0  0  0  0  0  0
    4.4332   -4.1810   -0.3358 C   0  0  1  0  0  0  0  0  0  0  0  0
    4.5681   -5.3510    0.4424 O   0  0  0  0  0  0  0  0  0  0  0  0
    3.5733   -5.5886    1.4716 C   0  0  2  0  0  0  0  0  0  0  0  0
    3.7832   -4.6381    2.7246 C   0  0  1  0  0  0  0  0  0  0  0  0
    2.4117   -4.2158    3.2367 C   0  0  0  0  0  0  0  0  0  0  0  0
    1.4477   -5.3977    3.1289 C   0  0  0  0  0  0  0  0  0  0  0  0
    2.2162   -6.7478    3.2635 C   0  0  2  0  0  0  0  0  0  0  0  0
    2.1762   -7.1960    4.7730 C   0  0  1  0  0  0  0  0  0  0  0  0
    2.2894   -5.9900    5.8169 C   0  0  0  0  0  0  0  0  0  0  0  0
    2.4186   -6.3829    7.1832 O   0  0  0  0  0  0  0  0  0  0  0  0
    1.4243   -7.2326    7.6852 C   0  0  1  0  0  0  0  0  0  0  0  0
    0.2221   -6.5529    7.9628 O   0  0  0  0  0  0  0  0  0  0  0  0
    1.2100   -8.3744    6.6682 C   0  0  1  0  0  0  0  0  0  0  0  0
    0.2290   -9.4379    7.1948 C   0  0  0  0  0  0  0  0  0  0  0  0
    0.8165   -7.7451    5.2948 C   0  0  0  0  0  0  0  0  0  0  0  0
    2.6038   -8.9765    6.3901 C   0  0  0  0  0  0  0  0  0  0  0  0
    3.2677   -9.6427    7.1473 O   0  0  0  0  0  0  0  0  0  0  0  0
    2.9671   -8.5048    4.9807 C   0  0  2  0  0  0  0  0  0  0  0  0
    4.2177   -8.9011    4.1264 C   0  0  1  0  0  0  0  0  0  0  0  0
    4.8625  -10.1870    4.7239 C   0  0  0  0  0  0  0  0  0  0  0  0
    3.5693   -9.3361    2.7383 C   0  0  0  0  0  0  0  0  0  0  0  0
    3.2036  -10.5067    2.5750 O   0  0  0  0  0  0  0  0  0  0  0  0
    3.3039   -8.3490    1.5856 C   0  0  0  0  0  0  0  0  0  0  0  0
    3.4852   -6.9728    2.1880 C   0  0  1  0  0  0  0  0  0  0  0  0
    4.9596   -6.9018    2.1128 O   0  0  0  0  0  0  0  0  0  0  0  0
    6.0024   -7.6780    2.6865 C   0  0  0  0  0  0  0  0  0  0  0  0
    6.4590   -8.9597    1.9128 C   0  0  0  0  0  0  0  0  0  0  0  0
    7.3145   -6.8374    2.6550 C   0  0  0  0  0  0  0  0  0  0  0  0
    5.3892   -7.7992    4.0679 C   0  0  1  0  0  0  0  0  0  0  0  0
    5.1839   -6.3344    4.6705 C   0  0  0  0  0  0  0  0  0  0  0  0
    4.8911   -4.9718    3.8288 C   0  0  0  0  0  0  0  0  0  0  0  0
    5.1427   -2.9599    0.3371 C   0  0  1  0  0  0  0  0  0  0  0  0
    6.4805   -3.3245    0.6436 O   0  0  0  0  0  0  0  0  0  0  0  0
    5.0570   -1.7284   -0.5660 C   0  0  1  0  0  0  0  0  0  0  0  0
    5.7033   -0.6324    0.0500 O   0  0  0  0  0  0  0  0  0  0  0  0
    5.5789   -2.0218   -1.9733 C   0  0  1  0  0  0  0  0  0  0  0  0
    6.9732   -2.3279   -1.9312 O   0  0  0  0  0  0  0  0  0  0  0  0
    3.2298   -2.1159   -3.5234 H   0  0  0  0  0  0  0  0  0  0  0  0
    2.7603   -2.6867   -1.9684 H   0  0  0  0  0  0  0  0  0  0  0  0
    2.8692   -3.8483   -3.2715 H   0  0  0  0  0  0  0  0  0  0  0  0
    5.3253   -3.5222   -3.4770 H   0  0  0  0  0  0  0  0  0  0  0  0
    3.3658   -4.0348   -0.4641 H   0  0  0  0  0  0  0  0  0  0  0  0
    2.6261   -5.4292    0.9549 H   0  0  0  0  0  0  0  0  0  0  0  0
    4.1470   -3.6938    2.4562 H   0  0  0  0  0  0  0  0  0  0  0  0
    2.4797   -3.7785    4.2352 H   0  0  0  0  0  0  0  0  0  0  0  0
    2.0412   -3.4104    2.5985 H   0  0  0  0  0  0  0  0  0  0  0  0
    0.6093   -5.2783    3.8194 H   0  0  0  0  0  0  0  0  0  0  0  0
    0.9681   -5.3589    2.1508 H   0  0  0  0  0  0  0  0  0  0  0  0
    1.4540   -7.4047    2.8452 H   0  0  0  0  0  0  0  0  0  0  0  0
    3.0588   -5.2584    5.6271 H   0  0  0  0  0  0  0  0  0  0  0  0
    1.4038   -5.3560    5.7896 H   0  0  0  0  0  0  0  0  0  0  0  0
    1.7798   -7.5907    8.6528 H   0  0  0  0  0  0  0  0  0  0  0  0
   -0.1317   -6.2475    7.1438 H   0  0  0  0  0  0  0  0  0  0  0  0
   -0.7804   -9.0578    7.3057 H   0  0  0  0  0  0  0  0  0  0  0  0
    0.5426   -9.8455    8.1541 H   0  0  0  0  0  0  0  0  0  0  0  0
    0.1654  -10.2717    6.4993 H   0  0  0  0  0  0  0  0  0  0  0  0
    0.0318   -6.9956    5.3805 H   0  0  0  0  0  0  0  0  0  0  0  0
    0.4014   -8.5067    4.6349 H   0  0  0  0  0  0  0  0  0  0  0  0
    2.3042   -9.2708    4.5779 H   0  0  0  0  0  0  0  0  0  0  0  0
    5.3032  -10.0057    5.7037 H   0  0  0  0  0  0  0  0  0  0  0  0
    5.6616  -10.5707    4.0928 H   0  0  0  0  0  0  0  0  0  0  0  0
    4.1485  -11.0043    4.8549 H   0  0  0  0  0  0  0  0  0  0  0  0
    4.0005   -8.5197    0.7634 H   0  0  0  0  0  0  0  0  0  0  0  0
    2.2994   -8.4869    1.1834 H   0  0  0  0  0  0  0  0  0  0  0  0
    7.1877   -9.5162    2.5016 H   0  0  0  0  0  0  0  0  0  0  0  0
    6.9567   -8.6833    0.9841 H   0  0  0  0  0  0  0  0  0  0  0  0
    5.7205   -9.6905    1.6101 H   0  0  0  0  0  0  0  0  0  0  0  0
    8.1911   -7.4579    2.8444 H   0  0  0  0  0  0  0  0  0  0  0  0
    7.4002   -6.0346    3.3759 H   0  0  0  0  0  0  0  0  0  0  0  0
    7.4521   -6.3909    1.6708 H   0  0  0  0  0  0  0  0  0  0  0  0
    6.1781   -8.1967    4.7005 H   0  0  0  0  0  0  0  0  0  0  0  0
    4.6513   -6.4263    5.6058 H   0  0  0  0  0  0  0  0  0  0  0  0
    6.1592   -6.0926    5.1089 H   0  0  0  0  0  0  0  0  0  0  0  0
    5.8094   -4.7016    3.3187 H   0  0  0  0  0  0  0  0  0  0  0  0
    4.8297   -4.1720    4.5632 H   0  0  0  0  0  0  0  0  0  0  0  0
    4.5910   -2.5477    1.1725 H   0  0  0  0  0  0  0  0  0  0  0  0
    6.9010   -3.5381   -0.1829 H   0  0  0  0  0  0  0  0  0  0  0  0
    4.0085   -1.4314   -0.6227 H   0  0  0  0  0  0  0  0  0  0  0  0
    5.4164    0.2019   -0.3221 H   0  0  0  0  0  0  0  0  0  0  0  0
    5.3989   -1.1382   -2.6064 H   0  0  0  0  0  0  0  0  0  0  0  0
    7.2622   -2.6990   -2.7639 H   0  0  0  0  0  0  0  0  0  0  0  0
  1  2  1  0
  1 41  1  0
  1 42  1  0
  1 43  1  0
  2 39  1  0
  2  3  1  0
  2 44  1  6
  3  4  1  0
  4  5  1  0
  4 35  1  0
  4 45  1  6
  5  6  1  0
  6 27  1  0
  6  7  1  0
  6 46  1  6
  7 34  1  0
  7  8  1  0
  7 47  1  6
  8  9  1  0
  8 48  1  0
  8 49  1  0
  9 10  1  0
  9 50  1  0
  9 51  1  0
 10 27  1  0
 10 11  1  0
 10 52  1  6
 11 18  1  0
 11 21  1  0
 11 12  1  1
 12 13  1  0
 12 53  1  0
 12 54  1  0
 13 14  1  0
 14 15  1  0
 14 16  1  0
 14 55  1  1
 15 56  1  0
 16 17  1  1
 16 18  1  0
 16 19  1  0
 17 57  1  0
 17 58  1  0
 17 59  1  0
 18 60  1  0
 18 61  1  0
 19 20  2  0
 19 21  1  0
 21 22  1  0
 21 62  1  6
 22 32  1  0
 22 23  1  1
 22 24  1  0
 23 63  1  0
 23 64  1  0
 23 65  1  0
 24 25  2  0
 24 26  1  0
 26 27  1  0
 26 66  1  0
 26 67  1  0
 27 28  1  1
 28 29  1  0
 29 30  1  0
 29 31  1  0
 29 32  1  0
 30 68  1  0
 30 69  1  0
 30 70  1  0
 31 71  1  0
 31 72  1  0
 31 73  1  0
 32 33  1  0
 32 74  1  1
 33 34  1  0
 33 75  1  0
 33 76  1  0
 34 77  1  0
 34 78  1  0
 35 36  1  0
 35 37  1  0
 35 79  1  1
 36 80  1  0
 37 38  1  0
 37 39  1  0
 37 81  1  6
 38 82  1  0
 39 40  1  0
 39 83  1  6
 40 84  1  0
M  END
>  <i_m_ct_stereo_status>  (261) 
1

>  <s_m_source_file>  (261) 
/var/tmp/pbs.5076255.sched01/tmprh8juyh8/78tr4t3sa2.sdf

>  <i_m_source_file_index>  (261) 
34

>  <i_lp_mmshare_version>  (261) 
48012

>  <i_f3d_flags>  (261) 
0

>  <s_epik_input>  (261) 
W09IXVtDQEBIXTFbQ0BIXShbT0hdKVtDQEhdKFtPSF0pW0NAQEhdKE9bQ0BIXTFbQ0gzXSlPW0NAQEhdKFtDQEBdMjNbQ0BIXTRbQ0BAXTU2NylbQ0BASF0oW0NIMl1bQ0gyXTQpW0NIMl1bQ0gyXVtDQEhdKEMoTzMpKFtDSDNdKVtDSDNdKVtDQF0oW0NIM10pKEMoPU8pW0NIMl0yKVtDQEhdN0MoPU8pW0NAXShbQ0gzXSkoW0NIMl02KVtDQEhdKFtPSF0pT1tDSDJdNQ==

>  <s_epik_cmdline>  (261) 
J2VwaWtfcHl0aG9uJywgJy1waHQnLCAnMi4wJywgJy1waCcsICc3LjAnLCAnLXRuJywgJzgnLCAnLW1hJywgJzIwMCcsICctaW1hZScsICc8aW5maWxlLm1hZT4nLCAnLW9tYWUnLCAnPG91dGZpbGUubWFlPic=

>  <r_lp_tautomer_probability>  (261) 
1

>  <r_epik_Ionization_Penalty>  (261) 
2.11278e-06

>  <r_epik_Ionization_Penalty_Charging>  (261) 
0

>  <r_epik_Ionization_Penalty_Neutral>  (261) 
2.11278e-06

>  <r_epik_State_Penalty>  (261) 
-0

>  <r_epik_Charging_Adjusted_Penalty>  (261) 
0

>  <i_epik_Tot_Q>  (261) 
0

>  <i_epik_Tot_abs_Q>  (261) 
0

>  <s_epik_Chemistry_Notes>  (261) 
This compound contains an acetal/aminal-like group ( X-CH(R)-Y where X, Y are N, S, or O) that may be acid/base labile, releasing an aldehyde.

>  <s_lp_Force_Field>  (261) 
OPLS3e

>  <r_lp_Energy>  (261) 
226.012

>  <b_lp_Chiralities_Consistent>  (261) 
1

>  <s_lp_Variant>  (261) 
88:0-1

>  <s_i_glide_gridfile>  (261) 
pfpi4k_grid

>  <i_i_glide_lignum>  (261) 
34

>  <i_i_glide_rotatable_bonds>  (261) 
6

>  <r_i_docking_score>  (261) 
-3.45185

>  <r_i_glide_ligand_efficiency>  (261) 
-0.0862963

>  <r_i_glide_ligand_efficiency_sa>  (261) 
-0.295129

>  <r_i_glide_ligand_efficiency_ln>  (261) 
-0.736179

>  <r_i_glide_gscore>  (261) 
-3.45185

>  <r_i_glide_lipo>  (261) 
-0.263109

>  <r_i_glide_hbond>  (261) 
0

>  <r_i_glide_metal>  (261) 
-0

>  <r_i_glide_rewards>  (261) 
-0.5

>  <r_i_glide_evdw>  (261) 
-36.3333

>  <r_i_glide_ecoul>  (261) 
-5.73427

>  <r_i_glide_erotb>  (261) 
0.0461335

>  <r_i_glide_esite>  (261) 
-0.0580711

>  <r_i_glide_emodel>  (261) 
-51.3787

>  <r_i_glide_energy>  (261) 
-42.0676

>  <r_i_glide_einternal>  (261) 
4.76386

>  <r_i_glide_intrahb_reward>  (261) 
-0.5

>  <i_i_glide_confnum>  (261) 
2

>  <i_i_glide_posenum>  (261) 
3

>  <r_i_glide_eff_state_penalty>  (261) 
0

>  <ligand_id>  (261) 
88

>  <original_smiles>  (261) 
CC1OC(OC2C3CCC4C56COC(O)C(C)(C5)C(=O)C6C5(C)C(=O)CC24OC(C)(C)C5CC3)C(O)C(O)C1O

>  <smiles>  (261) 
[H]OC1([H])OC([H])([H])C23C([H])([H])C1(C([H])([H])[H])C(=O)C2([H])C1(C([H])([H])[H])C(=O)C([H])([H])C24OC(C([H])([H])[H])(C([H])([H])[H])C1([H])C([H])([H])C([H])([H])C([H])(C([H])([H])C([H])([H])C23[H])C4([H])OC1([H])OC([H])(C([H])([H])[H])C([H])(O[H])C([H])(O[H])C1([H])O[H]

$$$$
89:0:0
     RDKit          3D

 49 52  0  0  1  0  0  0  0  0999 V2000
    4.4538   -2.3733   -3.6732 C   0  0  0  0  0  0  0  0  0  0  0  0
    4.4404   -2.3383   -2.1389 C   0  0  2  0  0  0  0  0  0  0  0  0
    3.4991   -1.2533   -1.7121 C   0  0  0  0  0  0  0  0  0  0  0  0
    3.4001   -1.2189   -0.1926 C   0  0  0  0  0  0  0  0  0  0  0  0
    4.6936   -0.8665    0.4882 C   0  0  1  0  0  0  0  0  0  0  0  0
    4.5119   -0.6806    2.0258 C   0  0  1  0  0  0  0  0  0  0  0  0
    3.4342    0.3379    2.4542 C   0  0  0  0  0  0  0  0  0  0  0  0
    4.3647   -2.0100    2.7910 C   0  0  1  0  0  0  0  0  0  0  0  0
    3.1113   -2.6133    2.6001 O   0  0  0  0  0  0  0  0  0  0  0  0
    5.5017   -2.9598    2.4149 C   0  0  1  0  0  0  0  0  0  0  0  0
    5.4208   -4.2829    3.2065 C   0  0  0  0  0  0  0  0  0  0  0  0
    5.6865   -3.1841    0.8943 C   0  0  2  0  0  0  0  0  0  0  0  0
    6.8313   -3.9891    0.7026 O   0  0  0  0  0  0  0  0  0  0  0  0
    7.9849   -3.2799    0.3019 C   0  0  1  0  0  0  0  0  0  0  0  0
    9.1547   -3.9830    0.9481 C   0  0  0  0  0  0  0  0  0  0  0  0
    8.1216   -3.2661   -1.2146 C   0  0  0  0  0  0  0  0  0  0  0  0
    6.7628   -3.1844   -1.9253 C   0  0  0  0  0  0  0  0  0  0  0  0
    5.8190   -2.0745   -1.4929 C   0  0  2  0  0  0  0  0  0  0  0  0
    5.7800   -1.8589    0.0575 C   0  0  1  0  0  0  0  0  0  0  0  0
    6.9550   -1.1062    0.2955 O   0  0  0  0  0  0  0  0  0  0  0  0
    8.0573   -1.9780    0.8364 O   0  0  0  0  0  0  0  0  0  0  0  0
    4.9109   -1.4700   -4.0811 H   0  0  0  0  0  0  0  0  0  0  0  0
    3.4424   -2.4331   -4.0761 H   0  0  0  0  0  0  0  0  0  0  0  0
    4.9952   -3.2433   -4.0486 H   0  0  0  0  0  0  0  0  0  0  0  0
    4.0447   -3.3007   -1.7959 H   0  0  0  0  0  0  0  0  0  0  0  0
    3.8461   -0.3044   -2.1030 H   0  0  0  0  0  0  0  0  0  0  0  0
    2.5258   -1.4518   -2.1529 H   0  0  0  0  0  0  0  0  0  0  0  0
    2.6700   -0.4590    0.0702 H   0  0  0  0  0  0  0  0  0  0  0  0
    2.9979   -2.1826    0.1330 H   0  0  0  0  0  0  0  0  0  0  0  0
    4.9584    0.1214    0.0949 H   0  0  0  0  0  0  0  0  0  0  0  0
    5.4600   -0.2548    2.3615 H   0  0  0  0  0  0  0  0  0  0  0  0
    2.4176   -0.0117    2.2790 H   0  0  0  0  0  0  0  0  0  0  0  0
    3.5467    1.2856    1.9255 H   0  0  0  0  0  0  0  0  0  0  0  0
    3.5188    0.5519    3.5209 H   0  0  0  0  0  0  0  0  0  0  0  0
    4.4317   -1.7990    3.8651 H   0  0  0  0  0  0  0  0  0  0  0  0
    2.9694   -2.7276    1.6571 H   0  0  0  0  0  0  0  0  0  0  0  0
    6.3869   -2.4363    2.7431 H   0  0  0  0  0  0  0  0  0  0  0  0
    4.5816   -4.9032    2.8980 H   0  0  0  0  0  0  0  0  0  0  0  0
    5.3251   -4.0919    4.2755 H   0  0  0  0  0  0  0  0  0  0  0  0
    6.3298   -4.8688    3.0690 H   0  0  0  0  0  0  0  0  0  0  0  0
    4.8341   -3.7617    0.5280 H   0  0  0  0  0  0  0  0  0  0  0  0
    9.0582   -3.9966    2.0394 H   0  0  0  0  0  0  0  0  0  0  0  0
   10.0737   -3.4403    0.7116 H   0  0  0  0  0  0  0  0  0  0  0  0
    9.2389   -5.0235    0.6272 H   0  0  0  0  0  0  0  0  0  0  0  0
    8.7869   -2.4648   -1.5416 H   0  0  0  0  0  0  0  0  0  0  0  0
    8.6108   -4.1908   -1.5459 H   0  0  0  0  0  0  0  0  0  0  0  0
    6.9375   -3.1248   -2.9929 H   0  0  0  0  0  0  0  0  0  0  0  0
    6.2247   -4.1251   -1.7673 H   0  0  0  0  0  0  0  0  0  0  0  0
    6.1827   -1.1397   -1.9167 H   0  0  0  0  0  0  0  0  0  0  0  0
  1  2  1  0
  1 22  1  0
  1 23  1  0
  1 24  1  0
  2 18  1  0
  2  3  1  0
  2 25  1  1
  3  4  1  0
  3 26  1  0
  3 27  1  0
  4  5  1  0
  4 28  1  0
  4 29  1  0
  5 19  1  0
  5  6  1  0
  5 30  1  6
  6  7  1  0
  6  8  1  0
  6 31  1  1
  7 32  1  0
  7 33  1  0
  7 34  1  0
  8  9  1  0
  8 10  1  0
  8 35  1  1
  9 36  1  0
 10 11  1  0
 10 12  1  0
 10 37  1  1
 11 38  1  0
 11 39  1  0
 11 40  1  0
 12 19  1  0
 12 13  1  0
 12 41  1  6
 13 14  1  0
 14 21  1  0
 14 15  1  1
 14 16  1  0
 15 42  1  0
 15 43  1  0
 15 44  1  0
 16 17  1  0
 16 45  1  0
 16 46  1  0
 17 18  1  0
 17 47  1  0
 17 48  1  0
 18 19  1  0
 18 49  1  6
 19 20  1  1
 20 21  1  0
M  END
>  <i_m_ct_stereo_status>  (262) 
1

>  <s_m_source_file>  (262) 
/var/tmp/pbs.5076255.sched01/tmprh8juyh8/78tr4t3sa2.sdf

>  <i_m_source_file_index>  (262) 
35

>  <i_lp_mmshare_version>  (262) 
48012

>  <i_f3d_flags>  (262) 
0

>  <s_epik_input>  (262) 
W0NAXTEyM1tDQEhdNFtDSDJdW0NIMl1bQ0BASF0oW0NIM10pW0NAQEhdMltDSDJdW0NIMl1bQ0BAXShbQ0gzXSkoT08zKU9bQ0BIXTFbQ0BIXShbQ0gzXSlbQ0BIXShbT0hdKVtDQEBIXTRbQ0gzXQ==

>  <s_epik_cmdline>  (262) 
J2VwaWtfcHl0aG9uJywgJy1waHQnLCAnMi4wJywgJy1waCcsICc3LjAnLCAnLXRuJywgJzgnLCAnLW1hJywgJzIwMCcsICctaW1hZScsICc8aW5maWxlLm1hZT4nLCAnLW9tYWUnLCAnPG91dGZpbGUubWFlPic=

>  <r_lp_tautomer_probability>  (262) 
1

>  <r_epik_Ionization_Penalty>  (262) 
1.78023e-07

>  <r_epik_Ionization_Penalty_Charging>  (262) 
0

>  <r_epik_Ionization_Penalty_Neutral>  (262) 
1.78023e-07

>  <r_epik_State_Penalty>  (262) 
-0

>  <r_epik_Charging_Adjusted_Penalty>  (262) 
0

>  <i_epik_Tot_Q>  (262) 
0

>  <i_epik_Tot_abs_Q>  (262) 
0

>  <s_lp_Force_Field>  (262) 
OPLS3e

>  <r_lp_Energy>  (262) 
37.0466

>  <b_lp_Chiralities_Consistent>  (262) 
1

>  <s_lp_Variant>  (262) 
89:0-1

>  <s_i_glide_gridfile>  (262) 
pfpi4k_grid

>  <i_i_glide_lignum>  (262) 
35

>  <i_i_glide_rotatable_bonds>  (262) 
1

>  <r_i_docking_score>  (262) 
-3.10581

>  <r_i_glide_ligand_efficiency>  (262) 
-0.147896

>  <r_i_glide_ligand_efficiency_sa>  (262) 
-0.408033

>  <r_i_glide_ligand_efficiency_ln>  (262) 
-0.767905

>  <r_i_glide_gscore>  (262) 
-3.10581

>  <r_i_glide_lipo>  (262) 
-0.501622

>  <r_i_glide_hbond>  (262) 
-0.0440509

>  <r_i_glide_metal>  (262) 
-0

>  <r_i_glide_rewards>  (262) 
-1.70693

>  <r_i_glide_evdw>  (262) 
-15.0891

>  <r_i_glide_ecoul>  (262) 
-0.658368

>  <r_i_glide_erotb>  (262) 
0

>  <r_i_glide_esite>  (262) 
0

>  <r_i_glide_emodel>  (262) 
-16.3636

>  <r_i_glide_energy>  (262) 
-15.7475

>  <r_i_glide_einternal>  (262) 
0.0457937

>  <r_i_glide_intrahb_reward>  (262) 
-0

>  <i_i_glide_confnum>  (262) 
1

>  <i_i_glide_posenum>  (262) 
10

>  <r_i_glide_eff_state_penalty>  (262) 
0

>  <ligand_id>  (262) 
89

>  <original_smiles>  (262) 
CC1CCC2C(C)C(O)C(C)C3OC4(C)CCC1C23OO4

>  <smiles>  (262) 
[H]OC1([H])C([H])(C([H])([H])[H])C2([H])OC3(C([H])([H])[H])OOC24C([H])(C([H])([H])C3([H])[H])C([H])(C([H])([H])[H])C([H])([H])C([H])([H])C4([H])C1([H])C([H])([H])[H]

$$$$
89:0:1
     RDKit          3D

 49 52  0  0  1  0  0  0  0  0999 V2000
    4.4462   -2.3910   -3.6619 C   0  0  0  0  0  0  0  0  0  0  0  0
    4.4442   -2.3303   -2.1309 C   0  0  2  0  0  0  0  0  0  0  0  0
    3.4379   -1.2739   -1.6967 C   0  0  0  0  0  0  0  0  0  0  0  0
    3.3972   -1.2480   -0.1777 C   0  0  0  0  0  0  0  0  0  0  0  0
    4.6939   -0.8614    0.4860 C   0  0  1  0  0  0  0  0  0  0  0  0
    4.5355   -0.6655    2.0224 C   0  0  1  0  0  0  0  0  0  0  0  0
    3.4331    0.3326    2.4544 C   0  0  0  0  0  0  0  0  0  0  0  0
    4.4261   -1.9903    2.7963 C   0  0  1  0  0  0  0  0  0  0  0  0
    3.1970   -2.6364    2.6045 O   0  0  0  0  0  0  0  0  0  0  0  0
    5.5818   -2.9233    2.4168 C   0  0  1  0  0  0  0  0  0  0  0  0
    5.5327   -4.2454    3.2124 C   0  0  0  0  0  0  0  0  0  0  0  0
    5.7412   -3.1588    0.8946 C   0  0  2  0  0  0  0  0  0  0  0  0
    6.9072   -3.9376    0.7012 O   0  0  0  0  0  0  0  0  0  0  0  0
    8.0464   -3.2057    0.2813 C   0  0  1  0  0  0  0  0  0  0  0  0
    9.2434   -3.8699    0.9111 C   0  0  0  0  0  0  0  0  0  0  0  0
    8.1483   -3.1912   -1.2400 C   0  0  0  0  0  0  0  0  0  0  0  0
    6.7842   -3.1388   -1.9244 C   0  0  0  0  0  0  0  0  0  0  0  0
    5.8233   -2.0427   -1.4957 C   0  0  2  0  0  0  0  0  0  0  0  0
    5.7997   -1.8277    0.0544 C   0  0  1  0  0  0  0  0  0  0  0  0
    6.9659   -1.0623    0.2696 O   0  0  0  0  0  0  0  0  0  0  0  0
    8.0807   -1.8914    0.8111 O   0  0  0  0  0  0  0  0  0  0  0  0
    4.8855   -1.4888   -4.0872 H   0  0  0  0  0  0  0  0  0  0  0  0
    3.4360   -2.4789   -4.0511 H   0  0  0  0  0  0  0  0  0  0  0  0
    4.9992   -3.2580   -4.0280 H   0  0  0  0  0  0  0  0  0  0  0  0
    4.0796   -3.2998   -1.7740 H   0  0  0  0  0  0  0  0  0  0  0  0
    3.7684   -0.2918   -2.0766 H   0  0  0  0  0  0  0  0  0  0  0  0
    2.4903   -1.5083   -2.1307 H   0  0  0  0  0  0  0  0  0  0  0  0
    2.6555   -0.5014    0.0975 H   0  0  0  0  0  0  0  0  0  0  0  0
    3.0311   -2.2226    0.1599 H   0  0  0  0  0  0  0  0  0  0  0  0
    4.9444    0.1196    0.0797 H   0  0  0  0  0  0  0  0  0  0  0  0
    5.4724   -0.2116    2.3448 H   0  0  0  0  0  0  0  0  0  0  0  0
    2.4208   -0.0343    2.2880 H   0  0  0  0  0  0  0  0  0  0  0  0
    3.5215    1.2783    1.9168 H   0  0  0  0  0  0  0  0  0  0  0  0
    3.5212    0.5600    3.5190 H   0  0  0  0  0  0  0  0  0  0  0  0
    4.4922   -1.7727    3.8662 H   0  0  0  0  0  0  0  0  0  0  0  0
    2.4929   -2.0178    2.8090 H   0  0  0  0  0  0  0  0  0  0  0  0
    6.4617   -2.3738    2.7190 H   0  0  0  0  0  0  0  0  0  0  0  0
    4.7008   -4.8809    2.9175 H   0  0  0  0  0  0  0  0  0  0  0  0
    5.4462   -4.0501    4.2826 H   0  0  0  0  0  0  0  0  0  0  0  0
    6.4503   -4.8154    3.0640 H   0  0  0  0  0  0  0  0  0  0  0  0
    4.8982   -3.7583    0.5483 H   0  0  0  0  0  0  0  0  0  0  0  0
    9.1633   -3.8665    1.9992 H   0  0  0  0  0  0  0  0  0  0  0  0
   10.1580   -3.3486    0.6341 H   0  0  0  0  0  0  0  0  0  0  0  0
    9.3293   -4.9177    0.6039 H   0  0  0  0  0  0  0  0  0  0  0  0
    8.8084   -2.3883   -1.5751 H   0  0  0  0  0  0  0  0  0  0  0  0
    8.6398   -4.1158   -1.5699 H   0  0  0  0  0  0  0  0  0  0  0  0
    6.9499   -3.0805   -2.9905 H   0  0  0  0  0  0  0  0  0  0  0  0
    6.2544   -4.0777   -1.7498 H   0  0  0  0  0  0  0  0  0  0  0  0
    6.1687   -1.1020   -1.9236 H   0  0  0  0  0  0  0  0  0  0  0  0
  1  2  1  0
  1 22  1  0
  1 23  1  0
  1 24  1  0
  2 18  1  0
  2  3  1  0
  2 25  1  1
  3  4  1  0
  3 26  1  0
  3 27  1  0
  4  5  1  0
  4 28  1  0
  4 29  1  0
  5 19  1  0
  5  6  1  0
  5 30  1  6
  6  7  1  0
  6  8  1  0
  6 31  1  1
  7 32  1  0
  7 33  1  0
  7 34  1  0
  8  9  1  0
  8 10  1  0
  8 35  1  1
  9 36  1  0
 10 11  1  0
 10 12  1  0
 10 37  1  1
 11 38  1  0
 11 39  1  0
 11 40  1  0
 12 19  1  0
 12 13  1  0
 12 41  1  6
 13 14  1  0
 14 21  1  0
 14 15  1  1
 14 16  1  0
 15 42  1  0
 15 43  1  0
 15 44  1  0
 16 17  1  0
 16 45  1  0
 16 46  1  0
 17 18  1  0
 17 47  1  0
 17 48  1  0
 18 19  1  0
 18 49  1  6
 19 20  1  1
 20 21  1  0
M  END
>  <i_m_ct_stereo_status>  (263) 
1

>  <s_m_source_file>  (263) 
/var/tmp/pbs.5076255.sched01/tmprh8juyh8/78tr4t3sa2.sdf

>  <i_m_source_file_index>  (263) 
35

>  <i_lp_mmshare_version>  (263) 
48012

>  <i_f3d_flags>  (263) 
0

>  <s_epik_input>  (263) 
W0NAXTEyM1tDQEhdNFtDSDJdW0NIMl1bQ0BASF0oW0NIM10pW0NAQEhdMltDSDJdW0NIMl1bQ0BAXShbQ0gzXSkoT08zKU9bQ0BIXTFbQ0BIXShbQ0gzXSlbQ0BIXShbT0hdKVtDQEBIXTRbQ0gzXQ==

>  <s_epik_cmdline>  (263) 
J2VwaWtfcHl0aG9uJywgJy1waHQnLCAnMi4wJywgJy1waCcsICc3LjAnLCAnLXRuJywgJzgnLCAnLW1hJywgJzIwMCcsICctaW1hZScsICc8aW5maWxlLm1hZT4nLCAnLW9tYWUnLCAnPG91dGZpbGUubWFlPic=

>  <r_lp_tautomer_probability>  (263) 
1

>  <r_epik_Ionization_Penalty>  (263) 
1.78023e-07

>  <r_epik_Ionization_Penalty_Charging>  (263) 
0

>  <r_epik_Ionization_Penalty_Neutral>  (263) 
1.78023e-07

>  <r_epik_State_Penalty>  (263) 
-0

>  <r_epik_Charging_Adjusted_Penalty>  (263) 
0

>  <i_epik_Tot_Q>  (263) 
0

>  <i_epik_Tot_abs_Q>  (263) 
0

>  <s_lp_Force_Field>  (263) 
OPLS3e

>  <r_lp_Energy>  (263) 
37.0466

>  <b_lp_Chiralities_Consistent>  (263) 
1

>  <s_lp_Variant>  (263) 
89:0-1

>  <s_i_glide_gridfile>  (263) 
pfpi4k_grid

>  <i_i_glide_lignum>  (263) 
35

>  <i_i_glide_rotatable_bonds>  (263) 
1

>  <r_i_docking_score>  (263) 
-3.05783

>  <r_i_glide_ligand_efficiency>  (263) 
-0.145611

>  <r_i_glide_ligand_efficiency_sa>  (263) 
-0.40173

>  <r_i_glide_ligand_efficiency_ln>  (263) 
-0.756043

>  <r_i_glide_gscore>  (263) 
-3.05783

>  <r_i_glide_lipo>  (263) 
-0.493699

>  <r_i_glide_hbond>  (263) 
-0.0483474

>  <r_i_glide_metal>  (263) 
-0

>  <r_i_glide_rewards>  (263) 
-1.70999

>  <r_i_glide_evdw>  (263) 
-13.839

>  <r_i_glide_ecoul>  (263) 
-0.758951

>  <r_i_glide_erotb>  (263) 
0

>  <r_i_glide_esite>  (263) 
0

>  <r_i_glide_emodel>  (263) 
-14.8483

>  <r_i_glide_energy>  (263) 
-14.598

>  <r_i_glide_einternal>  (263) 
0.363786

>  <r_i_glide_intrahb_reward>  (263) 
-0

>  <i_i_glide_confnum>  (263) 
1

>  <i_i_glide_posenum>  (263) 
25

>  <r_i_glide_eff_state_penalty>  (263) 
0

>  <ligand_id>  (263) 
89

>  <original_smiles>  (263) 
CC1CCC2C(C)C(O)C(C)C3OC4(C)CCC1C23OO4

>  <smiles>  (263) 
[H]OC1([H])C([H])(C([H])([H])[H])C2([H])OC3(C([H])([H])[H])OOC24C([H])(C([H])([H])C3([H])[H])C([H])(C([H])([H])[H])C([H])([H])C([H])([H])C4([H])C1([H])C([H])([H])[H]

$$$$
89:0:2
     RDKit          3D

 49 52  0  0  1  0  0  0  0  0999 V2000
    0.8630   -6.2620    0.4552 C   0  0  0  0  0  0  0  0  0  0  0  0
    1.8498   -5.1065    0.1581 C   0  0  2  0  0  0  0  0  0  0  0  0
    1.4092   -4.3532   -1.1256 C   0  0  0  0  0  0  0  0  0  0  0  0
    2.3369   -3.1744   -1.3856 C   0  0  0  0  0  0  0  0  0  0  0  0
    3.8054   -3.5595   -1.5098 C   0  0  1  0  0  0  0  0  0  0  0  0
    4.7253   -2.3837   -1.9283 C   0  0  1  0  0  0  0  0  0  0  0  0
    4.2305   -1.6279   -3.1860 C   0  0  0  0  0  0  0  0  0  0  0  0
    5.0750   -1.4655   -0.7409 C   0  0  1  0  0  0  0  0  0  0  0  0
    3.9791   -0.6856   -0.3027 O   0  0  0  0  0  0  0  0  0  0  0  0
    5.6564   -2.2786    0.4354 C   0  0  1  0  0  0  0  0  0  0  0  0
    6.0052   -1.3539    1.6032 C   0  0  0  0  0  0  0  0  0  0  0  0
    4.7404   -3.4383    0.9028 C   0  0  2  0  0  0  0  0  0  0  0  0
    5.3941   -4.1571    1.9514 O   0  0  0  0  0  0  0  0  0  0  0  0
    6.0699   -5.3186    1.4941 C   0  0  1  0  0  0  0  0  0  0  0  0
    7.3374   -5.4913    2.3193 C   0  0  0  0  0  0  0  0  0  0  0  0
    5.1503   -6.5395    1.6884 C   0  0  0  0  0  0  0  0  0  0  0  0
    3.6753   -6.2200    1.4680 C   0  0  0  0  0  0  0  0  0  0  0  0
    3.3349   -5.5145    0.1442 C   0  0  2  0  0  0  0  0  0  0  0  0
    4.2965   -4.3589   -0.2667 C   0  0  1  0  0  0  0  0  0  0  0  0
    5.3620   -5.1331   -0.7750 O   0  0  0  0  0  0  0  0  0  0  0  0
    6.5315   -5.1220    0.1658 O   0  0  0  0  0  0  0  0  0  0  0  0
    1.0212   -7.0519   -0.2565 H   0  0  0  0  0  0  0  0  0  0  0  0
   -0.1698   -5.9712    0.3019 H   0  0  0  0  0  0  0  0  0  0  0  0
    0.9531   -6.6719    1.4562 H   0  0  0  0  0  0  0  0  0  0  0  0
    1.8268   -4.4059    0.9855 H   0  0  0  0  0  0  0  0  0  0  0  0
    1.4033   -5.0094   -1.9809 H   0  0  0  0  0  0  0  0  0  0  0  0
    0.4071   -3.9899   -1.1263 H   0  0  0  0  0  0  0  0  0  0  0  0
    1.9841   -2.6390   -2.2709 H   0  0  0  0  0  0  0  0  0  0  0  0
    2.2378   -2.5429   -0.5178 H   0  0  0  0  0  0  0  0  0  0  0  0
    3.8701   -4.2388   -2.3591 H   0  0  0  0  0  0  0  0  0  0  0  0
    5.6650   -2.8549   -2.2196 H   0  0  0  0  0  0  0  0  0  0  0  0
    3.3112   -1.0650   -3.0175 H   0  0  0  0  0  0  0  0  0  0  0  0
    4.0858   -2.3124   -4.0268 H   0  0  0  0  0  0  0  0  0  0  0  0
    4.9544   -0.8810   -3.5005 H   0  0  0  0  0  0  0  0  0  0  0  0
    5.8198   -0.7426   -1.0774 H   0  0  0  0  0  0  0  0  0  0  0  0
    3.1782   -1.1979   -0.3629 H   0  0  0  0  0  0  0  0  0  0  0  0
    6.5926   -2.6996    0.0704 H   0  0  0  0  0  0  0  0  0  0  0  0
    5.1205   -0.9252    2.0805 H   0  0  0  0  0  0  0  0  0  0  0  0
    6.6200   -0.5324    1.2474 H   0  0  0  0  0  0  0  0  0  0  0  0
    6.5658   -1.8987    2.3581 H   0  0  0  0  0  0  0  0  0  0  0  0
    3.8360   -3.0248    1.3349 H   0  0  0  0  0  0  0  0  0  0  0  0
    8.0179   -4.6763    2.0859 H   0  0  0  0  0  0  0  0  0  0  0  0
    7.8800   -6.4123    2.0955 H   0  0  0  0  0  0  0  0  0  0  0  0
    7.1263   -5.4817    3.3898 H   0  0  0  0  0  0  0  0  0  0  0  0
    5.4839   -7.3855    1.0871 H   0  0  0  0  0  0  0  0  0  0  0  0
    5.2183   -6.8680    2.7256 H   0  0  0  0  0  0  0  0  0  0  0  0
    3.1273   -7.1595    1.5208 H   0  0  0  0  0  0  0  0  0  0  0  0
    3.3083   -5.6017    2.2890 H   0  0  0  0  0  0  0  0  0  0  0  0
    3.4945   -6.2882   -0.6053 H   0  0  0  0  0  0  0  0  0  0  0  0
  1  2  1  0
  1 22  1  0
  1 23  1  0
  1 24  1  0
  2 18  1  0
  2  3  1  0
  2 25  1  1
  3  4  1  0
  3 26  1  0
  3 27  1  0
  4  5  1  0
  4 28  1  0
  4 29  1  0
  5 19  1  0
  5  6  1  0
  5 30  1  6
  6  7  1  0
  6  8  1  0
  6 31  1  6
  7 32  1  0
  7 33  1  0
  7 34  1  0
  8  9  1  0
  8 10  1  0
  8 35  1  6
  9 36  1  0
 10 11  1  0
 10 12  1  0
 10 37  1  6
 11 38  1  0
 11 39  1  0
 11 40  1  0
 12 19  1  0
 12 13  1  0
 12 41  1  1
 13 14  1  0
 14 21  1  0
 14 15  1  1
 14 16  1  0
 15 42  1  0
 15 43  1  0
 15 44  1  0
 16 17  1  0
 16 45  1  0
 16 46  1  0
 17 18  1  0
 17 47  1  0
 17 48  1  0
 18 19  1  0
 18 49  1  6
 19 20  1  6
 20 21  1  0
M  END
>  <i_m_ct_stereo_status>  (264) 
1

>  <s_m_source_file>  (264) 
/var/tmp/pbs.5076255.sched01/tmprh8juyh8/78tr4t3sa2.sdf

>  <i_m_source_file_index>  (264) 
35

>  <i_lp_mmshare_version>  (264) 
48012

>  <i_f3d_flags>  (264) 
0

>  <s_epik_input>  (264) 
W0NAXTEyM1tDQEhdNFtDSDJdW0NIMl1bQ0BASF0oW0NIM10pW0NAQEhdMltDSDJdW0NIMl1bQ0BAXShbQ0gzXSkoT08zKU9bQ0BIXTFbQ0BIXShbQ0gzXSlbQ0BIXShbT0hdKVtDQEBIXTRbQ0gzXQ==

>  <s_epik_cmdline>  (264) 
J2VwaWtfcHl0aG9uJywgJy1waHQnLCAnMi4wJywgJy1waCcsICc3LjAnLCAnLXRuJywgJzgnLCAnLW1hJywgJzIwMCcsICctaW1hZScsICc8aW5maWxlLm1hZT4nLCAnLW9tYWUnLCAnPG91dGZpbGUubWFlPic=

>  <r_lp_tautomer_probability>  (264) 
1

>  <r_epik_Ionization_Penalty>  (264) 
1.78023e-07

>  <r_epik_Ionization_Penalty_Charging>  (264) 
0

>  <r_epik_Ionization_Penalty_Neutral>  (264) 
1.78023e-07

>  <r_epik_State_Penalty>  (264) 
-0

>  <r_epik_Charging_Adjusted_Penalty>  (264) 
0

>  <i_epik_Tot_Q>  (264) 
0

>  <i_epik_Tot_abs_Q>  (264) 
0

>  <s_lp_Force_Field>  (264) 
OPLS3e

>  <r_lp_Energy>  (264) 
37.0466

>  <b_lp_Chiralities_Consistent>  (264) 
1

>  <s_lp_Variant>  (264) 
89:0-1

>  <s_i_glide_gridfile>  (264) 
pfpi4k_grid

>  <i_i_glide_lignum>  (264) 
35

>  <i_i_glide_rotatable_bonds>  (264) 
1

>  <r_i_docking_score>  (264) 
-2.36168

>  <r_i_glide_ligand_efficiency>  (264) 
-0.112461

>  <r_i_glide_ligand_efficiency_sa>  (264) 
-0.310272

>  <r_i_glide_ligand_efficiency_ln>  (264) 
-0.583922

>  <r_i_glide_gscore>  (264) 
-2.36168

>  <r_i_glide_lipo>  (264) 
-0.507006

>  <r_i_glide_hbond>  (264) 
0

>  <r_i_glide_metal>  (264) 
-0

>  <r_i_glide_rewards>  (264) 
-1.48665

>  <r_i_glide_evdw>  (264) 
-3.0261

>  <r_i_glide_ecoul>  (264) 
-1.44484

>  <r_i_glide_erotb>  (264) 
0

>  <r_i_glide_esite>  (264) 
0

>  <r_i_glide_emodel>  (264) 
-4.53034

>  <r_i_glide_energy>  (264) 
-4.47094

>  <r_i_glide_einternal>  (264) 
0.300961

>  <r_i_glide_intrahb_reward>  (264) 
-0

>  <i_i_glide_confnum>  (264) 
1

>  <i_i_glide_posenum>  (264) 
18

>  <r_i_glide_eff_state_penalty>  (264) 
0

>  <ligand_id>  (264) 
89

>  <original_smiles>  (264) 
CC1CCC2C(C)C(O)C(C)C3OC4(C)CCC1C23OO4

>  <smiles>  (264) 
[H]OC1([H])C([H])(C([H])([H])[H])C2([H])OC3(C([H])([H])[H])OOC24C([H])(C([H])([H])C3([H])[H])C([H])(C([H])([H])[H])C([H])([H])C([H])([H])C4([H])C1([H])C([H])([H])[H]

$$$$
90:0:0
     RDKit          3D

 73 78  0  0  1  0  0  0  0  0999 V2000
    6.8814   -5.8471    3.8381 C   0  0  0  0  0  0  0  0  0  0  0  0
    6.3056   -5.3303    2.7450 C   0  0  0  0  0  0  0  0  0  0  0  0
    7.2412   -4.8340    1.6112 C   0  0  0  0  0  0  0  0  0  0  0  0
    4.7337   -5.3193    2.6339 C   0  0  2  0  0  0  0  0  0  0  0  0
    4.2740   -6.6216    3.1303 O   0  0  0  0  0  0  0  0  0  0  0  0
    3.1006   -6.5744    3.9681 C   0  0  0  0  0  0  0  0  0  0  0  0
    2.0877   -7.6553    3.5149 C   0  0  0  0  0  0  0  0  0  0  0  0
    3.4878   -6.9120    5.4282 C   0  0  0  0  0  0  0  0  0  0  0  0
    2.6423   -5.1081    3.7896 C   0  0  2  0  0  0  0  0  0  0  0  0
    1.8206   -4.8910    2.5069 C   0  0  0  0  0  0  0  0  0  0  0  0
    2.5489   -5.3562    1.2581 C   0  0  0  0  0  0  0  0  0  0  0  0
    1.8630   -5.8195    0.3397 O   0  0  0  0  0  0  0  0  0  0  0  0
    4.1057   -5.2173    1.1790 C   0  0  2  0  0  0  0  0  0  0  0  0
    4.5428   -6.4515    0.3119 C   0  0  0  0  0  0  0  0  0  0  0  0
    4.4543   -3.8697    0.4132 C   0  0  1  0  0  0  0  0  0  0  0  0
    3.4243   -3.5670   -0.5599 O   0  0  0  0  0  0  0  0  0  0  0  0
    3.6924   -3.2158   -1.8461 C   0  0  0  0  0  0  0  0  0  0  0  0
    2.4357   -3.0087   -2.6773 C   0  0  0  0  0  0  0  0  0  0  0  0
    4.8073   -3.0653   -2.3396 O   0  0  0  0  0  0  0  0  0  0  0  0
    4.8011   -2.5765    1.2311 C   0  0  1  0  0  0  0  0  0  0  0  0
    5.2979   -1.6232    0.2943 O   0  0  0  0  0  0  0  0  0  0  0  0
    3.8314   -2.0677    2.3265 C   0  0  2  0  0  0  0  0  0  0  0  0
    3.9478   -0.4977    2.4116 C   0  0  1  0  0  0  0  0  0  0  0  0
    2.9081    0.1499    1.4938 C   0  0  0  0  0  0  0  0  0  0  0  0
    3.9449    0.1327    3.8030 C   0  0  0  0  0  0  0  0  0  0  0  0
    3.1201   -0.6272    4.8156 C   0  0  1  0  0  0  0  0  0  0  0  0
    1.7048   -0.5890    4.5410 O   0  0  0  0  0  0  0  0  0  0  0  0
    1.6482   -2.0270    4.6271 C   0  0  2  0  0  0  0  0  0  0  0  0
    1.0370   -2.5451    5.8037 O   0  0  0  0  0  0  0  0  0  0  0  0
    1.9569   -2.5926    6.8858 C   0  0  0  0  0  0  0  0  0  0  0  0
    3.3354   -2.7536    6.2442 C   0  0  0  0  0  0  0  0  0  0  0  0
    3.1533   -2.1559    4.8363 C   0  0  2  0  0  0  0  0  0  0  0  0
    4.0458   -2.8067    3.7222 C   0  0  2  0  0  0  0  0  0  0  0  0
    5.3626   -2.5370    4.1898 O   0  0  0  0  0  0  0  0  0  0  0  0
    4.0002   -4.3969    3.6893 C   0  0  2  0  0  0  0  0  0  0  0  0
    7.9610   -5.8463    3.9005 H   0  0  0  0  0  0  0  0  0  0  0  0
    6.3690   -6.2692    4.7226 H   0  0  0  0  0  0  0  0  0  0  0  0
    7.1025   -3.8223    1.2660 H   0  0  0  0  0  0  0  0  0  0  0  0
    7.2018   -5.4801    0.7412 H   0  0  0  0  0  0  0  0  0  0  0  0
    8.2661   -4.8637    1.9916 H   0  0  0  0  0  0  0  0  0  0  0  0
    1.1242   -7.5506    4.0154 H   0  0  0  0  0  0  0  0  0  0  0  0
    2.4580   -8.6522    3.7449 H   0  0  0  0  0  0  0  0  0  0  0  0
    1.9049   -7.6617    2.4436 H   0  0  0  0  0  0  0  0  0  0  0  0
    2.6354   -6.8174    6.0988 H   0  0  0  0  0  0  0  0  0  0  0  0
    4.2782   -6.2929    5.8369 H   0  0  0  0  0  0  0  0  0  0  0  0
    3.8399   -7.9375    5.5081 H   0  0  0  0  0  0  0  0  0  0  0  0
    2.0478   -4.7818    4.6421 H   0  0  0  0  0  0  0  0  0  0  0  0
    0.8707   -5.4201    2.5626 H   0  0  0  0  0  0  0  0  0  0  0  0
    1.5671   -3.8556    2.3252 H   0  0  0  0  0  0  0  0  0  0  0  0
    5.6043   -6.5942    0.1889 H   0  0  0  0  0  0  0  0  0  0  0  0
    4.1725   -6.3907   -0.7117 H   0  0  0  0  0  0  0  0  0  0  0  0
    4.1973   -7.3963    0.7398 H   0  0  0  0  0  0  0  0  0  0  0  0
    5.3269   -4.1239   -0.1851 H   0  0  0  0  0  0  0  0  0  0  0  0
    1.8133   -3.8953   -2.5966 H   0  0  0  0  0  0  0  0  0  0  0  0
    2.6821   -2.8502   -3.7262 H   0  0  0  0  0  0  0  0  0  0  0  0
    1.8654   -2.1503   -2.3239 H   0  0  0  0  0  0  0  0  0  0  0  0
    5.6748   -2.6336    1.8423 H   0  0  0  0  0  0  0  0  0  0  0  0
    4.6295   -1.3393   -0.3125 H   0  0  0  0  0  0  0  0  0  0  0  0
    2.8131   -2.2760    1.9764 H   0  0  0  0  0  0  0  0  0  0  0  0
    4.9120   -0.1655    2.0405 H   0  0  0  0  0  0  0  0  0  0  0  0
    1.9132   -0.0689    1.8670 H   0  0  0  0  0  0  0  0  0  0  0  0
    2.9706   -0.2460    0.4796 H   0  0  0  0  0  0  0  0  0  0  0  0
    3.0343    1.2308    1.4452 H   0  0  0  0  0  0  0  0  0  0  0  0
    4.9752    0.1663    4.1600 H   0  0  0  0  0  0  0  0  0  0  0  0
    3.6464    1.1727    3.7443 H   0  0  0  0  0  0  0  0  0  0  0  0
    3.2883   -0.2507    5.8120 H   0  0  0  0  0  0  0  0  0  0  0  0
    1.2747   -2.4501    3.7111 H   0  0  0  0  0  0  0  0  0  0  0  0
    1.8614   -1.6578    7.4295 H   0  0  0  0  0  0  0  0  0  0  0  0
    1.7164   -3.4049    7.5720 H   0  0  0  0  0  0  0  0  0  0  0  0
    4.0998   -2.2258    6.8338 H   0  0  0  0  0  0  0  0  0  0  0  0
    3.5910   -3.8192    6.2670 H   0  0  0  0  0  0  0  0  0  0  0  0
    5.5017   -1.6081    4.1737 H   0  0  0  0  0  0  0  0  0  0  0  0
    4.5254   -4.6481    4.6003 H   0  0  0  0  0  0  0  0  0  0  0  0
  1  2  2  0
  1 36  1  0
  1 37  1  0
  2  3  1  0
  4  2  1  6
  3 38  1  0
  3 39  1  0
  3 40  1  0
  4 13  1  0
  4 35  1  0
  4  5  1  0
  5  6  1  0
  6  7  1  0
  6  8  1  0
  6  9  1  0
  7 41  1  0
  7 42  1  0
  7 43  1  0
  8 44  1  0
  8 45  1  0
  8 46  1  0
  9 35  1  0
  9 10  1  0
  9 47  1  1
 10 11  1  0
 10 48  1  0
 10 49  1  0
 11 12  2  0
 11 13  1  0
 13 14  1  6
 13 15  1  0
 14 50  1  0
 14 51  1  0
 14 52  1  0
 15 16  1  0
 15 20  1  0
 15 53  1  6
 16 17  1  0
 17 18  1  0
 17 19  2  0
 18 54  1  0
 18 55  1  0
 18 56  1  0
 20 21  1  0
 20 22  1  0
 20 57  1  1
 21 58  1  0
 22 33  1  0
 22 23  1  0
 22 59  1  6
 23 24  1  0
 23 25  1  0
 23 60  1  6
 24 61  1  0
 24 62  1  0
 24 63  1  0
 25 26  1  0
 25 64  1  0
 25 65  1  0
 26 32  1  0
 26 27  1  0
 26 66  1  1
 27 28  1  0
 28 32  1  0
 28 29  1  0
 28 67  1  6
 29 30  1  0
 30 31  1  0
 30 68  1  0
 30 69  1  0
 32 31  1  1
 31 70  1  0
 31 71  1  0
 32 33  1  0
 33 34  1  1
 33 35  1  0
 34 72  1  0
 35 73  1  1
M  END
>  <i_m_ct_stereo_status>  (265) 
1

>  <s_m_source_file>  (265) 
/var/tmp/pbs.5076255.sched01/tmprh8juyh8/78tr4t3sa2.sdf

>  <i_m_source_file_index>  (265) 
36

>  <i_lp_mmshare_version>  (265) 
48012

>  <i_f3d_flags>  (265) 
0

>  <s_epik_input>  (265) 
TzFDKFtDSDNdKShbQ0gzXSlbQ0BASF0yW0NIMl1DKD1PKVtDQEBdKFtDSDNdKShbQ0BIXShbQ0BIXTNbT0hdKU9DKD1PKVtDSDNdKVtDQEBdMShDKD1bQ0gyXSlbQ0gzXSlbQ0BIXTJbQ0BAXTQoW09IXSlbQ0BIXTNbQ0BASF0oW0NIM10pW0NIMl1bQ0BIXShbQ0BdNDU2KU9bQ0BASF01T1tDSDJdW0NIMl02

>  <s_epik_cmdline>  (265) 
J2VwaWtfcHl0aG9uJywgJy1waHQnLCAnMi4wJywgJy1waCcsICc3LjAnLCAnLXRuJywgJzgnLCAnLW1hJywgJzIwMCcsICctaW1hZScsICc8aW5maWxlLm1hZT4nLCAnLW9tYWUnLCAnPG91dGZpbGUubWFlPic=

>  <r_lp_tautomer_probability>  (265) 
1

>  <r_epik_Ionization_Penalty>  (265) 
4.46021e-07

>  <r_epik_Ionization_Penalty_Charging>  (265) 
0

>  <r_epik_Ionization_Penalty_Neutral>  (265) 
4.46021e-07

>  <r_epik_State_Penalty>  (265) 
-0

>  <r_epik_Charging_Adjusted_Penalty>  (265) 
0

>  <i_epik_Tot_Q>  (265) 
0

>  <i_epik_Tot_abs_Q>  (265) 
0

>  <s_epik_Chemistry_Notes>  (265) 
This compound has an ester and may undergo hydrolysis at high or low pH. This compound contains an acetal/aminal-like group ( X-CH(R)-Y where X, Y are N, S, or O) that may be acid/base labile, releasing an aldehyde.

>  <s_lp_Force_Field>  (265) 
OPLS3e

>  <r_lp_Energy>  (265) 
58.6095

>  <b_lp_Chiralities_Consistent>  (265) 
1

>  <s_lp_Variant>  (265) 
90:0-1

>  <s_i_glide_gridfile>  (265) 
pfpi4k_grid

>  <i_i_glide_lignum>  (265) 
36

>  <i_i_glide_rotatable_bonds>  (265) 
5

>  <r_i_docking_score>  (265) 
-2.36938

>  <r_i_glide_ligand_efficiency>  (265) 
-0.0676967

>  <r_i_glide_ligand_efficiency_sa>  (265) 
-0.22144

>  <r_i_glide_ligand_efficiency_ln>  (265) 
-0.520132

>  <r_i_glide_gscore>  (265) 
-2.36938

>  <r_i_glide_lipo>  (265) 
-0.421692

>  <r_i_glide_hbond>  (265) 
-0.0471202

>  <r_i_glide_metal>  (265) 
-0

>  <r_i_glide_rewards>  (265) 
-0.0641876

>  <r_i_glide_evdw>  (265) 
-27.8347

>  <r_i_glide_ecoul>  (265) 
-3.84985

>  <r_i_glide_erotb>  (265) 
0.169121

>  <r_i_glide_esite>  (265) 
-0.0362955

>  <r_i_glide_emodel>  (265) 
-32.7553

>  <r_i_glide_energy>  (265) 
-31.6845

>  <r_i_glide_einternal>  (265) 
4.573

>  <r_i_glide_intrahb_reward>  (265) 
-0

>  <i_i_glide_confnum>  (265) 
4

>  <i_i_glide_posenum>  (265) 
17

>  <r_i_glide_eff_state_penalty>  (265) 
0

>  <ligand_id>  (265) 
90

>  <original_smiles>  (265) 
C=C(C)C12OC(C)(C)C3CC(=O)C1(C)C(OC(C)=O)C(O)C1C(C)CC4OC5OCCC45C1(O)C32

>  <smiles>  (265) 
[H]OC1([H])C([H])(OC(=O)C([H])([H])[H])C2(C([H])([H])[H])C(=O)C([H])([H])C3([H])C([H])(C2(C(=C([H])[H])C([H])([H])[H])OC3(C([H])([H])[H])C([H])([H])[H])C2(O[H])C1([H])C([H])(C([H])([H])[H])C([H])([H])C1([H])OC3([H])OC([H])([H])C([H])([H])C312

$$$$
90:0:1
     RDKit          3D

 73 78  0  0  1  0  0  0  0  0999 V2000
    6.8127   -5.8335    3.9573 C   0  0  0  0  0  0  0  0  0  0  0  0
    6.2808   -5.4361    2.7914 C   0  0  0  0  0  0  0  0  0  0  0  0
    7.2745   -5.0992    1.6524 C   0  0  0  0  0  0  0  0  0  0  0  0
    4.7166   -5.4067    2.6360 C   0  0  2  0  0  0  0  0  0  0  0  0
    4.2428   -6.6855    3.1233 O   0  0  0  0  0  0  0  0  0  0  0  0
    3.0346   -6.6407    3.9252 C   0  0  0  0  0  0  0  0  0  0  0  0
    2.0019   -7.6959    3.4408 C   0  0  0  0  0  0  0  0  0  0  0  0
    3.3634   -7.0077    5.3974 C   0  0  0  0  0  0  0  0  0  0  0  0
    2.6080   -5.1610    3.7697 C   0  0  2  0  0  0  0  0  0  0  0  0
    1.8158   -4.9114    2.4781 C   0  0  0  0  0  0  0  0  0  0  0  0
    2.5560   -5.3685    1.2395 C   0  0  0  0  0  0  0  0  0  0  0  0
    1.8681   -5.7914    0.3053 O   0  0  0  0  0  0  0  0  0  0  0  0
    4.1112   -5.2809    1.1708 C   0  0  2  0  0  0  0  0  0  0  0  0
    4.5323   -6.5146    0.3092 C   0  0  0  0  0  0  0  0  0  0  0  0
    4.5274   -3.9408    0.4494 C   0  0  1  0  0  0  0  0  0  0  0  0
    3.5206   -3.5405   -0.5196 O   0  0  0  0  0  0  0  0  0  0  0  0
    3.8314   -3.2642   -1.8111 C   0  0  0  0  0  0  0  0  0  0  0  0
    2.6183   -2.8339   -2.6301 C   0  0  0  0  0  0  0  0  0  0  0  0
    4.9484   -3.3028   -2.3213 O   0  0  0  0  0  0  0  0  0  0  0  0
    4.9408   -2.6958    1.3168 C   0  0  1  0  0  0  0  0  0  0  0  0
    5.4409   -1.7046    0.3815 O   0  0  0  0  0  0  0  0  0  0  0  0
    3.9154   -2.1488    2.3668 C   0  0  2  0  0  0  0  0  0  0  0  0
    4.0231   -0.5783    2.4741 C   0  0  1  0  0  0  0  0  0  0  0  0
    3.0255    0.1109    1.5362 C   0  0  0  0  0  0  0  0  0  0  0  0
    3.9975    0.0411    3.8812 C   0  0  0  0  0  0  0  0  0  0  0  0
    3.1439   -0.7175    4.8755 C   0  0  1  0  0  0  0  0  0  0  0  0
    1.7394   -0.6386    4.5485 O   0  0  0  0  0  0  0  0  0  0  0  0
    1.6434   -2.0594    4.5965 C   0  0  2  0  0  0  0  0  0  0  0  0
    0.9805   -2.5796    5.7571 O   0  0  0  0  0  0  0  0  0  0  0  0
    1.8817   -2.6621    6.8588 C   0  0  0  0  0  0  0  0  0  0  0  0
    3.2736   -2.8602    6.2546 C   0  0  0  0  0  0  0  0  0  0  0  0
    3.1494   -2.2476    4.8592 C   0  0  2  0  0  0  0  0  0  0  0  0
    4.0560   -2.9028    3.7503 C   0  0  2  0  0  0  0  0  0  0  0  0
    5.3624   -2.6318    4.2511 O   0  0  0  0  0  0  0  0  0  0  0  0
    3.9908   -4.4877    3.6924 C   0  0  2  0  0  0  0  0  0  0  0  0
    7.8792   -5.8747    4.0860 H   0  0  0  0  0  0  0  0  0  0  0  0
    6.2243   -6.1269    4.8201 H   0  0  0  0  0  0  0  0  0  0  0  0
    7.1342   -4.1623    1.1587 H   0  0  0  0  0  0  0  0  0  0  0  0
    7.3562   -5.9289    0.9451 H   0  0  0  0  0  0  0  0  0  0  0  0
    8.2855   -5.0494    2.0934 H   0  0  0  0  0  0  0  0  0  0  0  0
    1.0356   -7.5663    3.9279 H   0  0  0  0  0  0  0  0  0  0  0  0
    2.3469   -8.7030    3.6746 H   0  0  0  0  0  0  0  0  0  0  0  0
    1.8394   -7.6834    2.3657 H   0  0  0  0  0  0  0  0  0  0  0  0
    2.4851   -6.8962    6.0313 H   0  0  0  0  0  0  0  0  0  0  0  0
    4.1545   -6.4056    5.8400 H   0  0  0  0  0  0  0  0  0  0  0  0
    3.6890   -8.0459    5.4706 H   0  0  0  0  0  0  0  0  0  0  0  0
    2.0015   -4.8448    4.6193 H   0  0  0  0  0  0  0  0  0  0  0  0
    0.8549   -5.4294    2.5108 H   0  0  0  0  0  0  0  0  0  0  0  0
    1.5857   -3.8697    2.3143 H   0  0  0  0  0  0  0  0  0  0  0  0
    5.5989   -6.6474    0.1884 H   0  0  0  0  0  0  0  0  0  0  0  0
    4.1154   -6.4263   -0.7114 H   0  0  0  0  0  0  0  0  0  0  0  0
    4.1040   -7.4448    0.7174 H   0  0  0  0  0  0  0  0  0  0  0  0
    5.4017   -4.2066   -0.1273 H   0  0  0  0  0  0  0  0  0  0  0  0
    1.8268   -3.5852   -2.5636 H   0  0  0  0  0  0  0  0  0  0  0  0
    2.8776   -2.7067   -3.6848 H   0  0  0  0  0  0  0  0  0  0  0  0
    2.2218   -1.8793   -2.2738 H   0  0  0  0  0  0  0  0  0  0  0  0
    5.8405   -2.8735    1.8639 H   0  0  0  0  0  0  0  0  0  0  0  0
    4.7389   -1.4203   -0.2008 H   0  0  0  0  0  0  0  0  0  0  0  0
    2.8942   -2.3252    1.9964 H   0  0  0  0  0  0  0  0  0  0  0  0
    5.0150   -0.2519    2.1497 H   0  0  0  0  0  0  0  0  0  0  0  0
    2.0070   -0.0787    1.8712 H   0  0  0  0  0  0  0  0  0  0  0  0
    3.1184   -0.2595    0.5165 H   0  0  0  0  0  0  0  0  0  0  0  0
    3.1899    1.1889    1.5126 H   0  0  0  0  0  0  0  0  0  0  0  0
    5.0142    0.0337    4.2613 H   0  0  0  0  0  0  0  0  0  0  0  0
    3.7129    1.0953    3.8223 H   0  0  0  0  0  0  0  0  0  0  0  0
    3.2916   -0.3474    5.8894 H   0  0  0  0  0  0  0  0  0  0  0  0
    1.2908   -2.4475    3.6438 H   0  0  0  0  0  0  0  0  0  0  0  0
    1.8387   -1.7221    7.4110 H   0  0  0  0  0  0  0  0  0  0  0  0
    1.6062   -3.4729    7.5460 H   0  0  0  0  0  0  0  0  0  0  0  0
    4.0320   -2.3681    6.8570 H   0  0  0  0  0  0  0  0  0  0  0  0
    3.5171   -3.9172    6.2744 H   0  0  0  0  0  0  0  0  0  0  0  0
    5.4890   -3.0760    5.0812 H   0  0  0  0  0  0  0  0  0  0  0  0
    4.4758   -4.7645    4.6259 H   0  0  0  0  0  0  0  0  0  0  0  0
  1  2  2  0
  1 36  1  0
  1 37  1  0
  2  3  1  0
  4  2  1  6
  3 38  1  0
  3 39  1  0
  3 40  1  0
  4 13  1  0
  4 35  1  0
  4  5  1  0
  5  6  1  0
  6  7  1  0
  6  8  1  0
  6  9  1  0
  7 41  1  0
  7 42  1  0
  7 43  1  0
  8 44  1  0
  8 45  1  0
  8 46  1  0
  9 35  1  0
  9 10  1  0
  9 47  1  1
 10 11  1  0
 10 48  1  0
 10 49  1  0
 11 12  2  0
 11 13  1  0
 13 14  1  6
 13 15  1  0
 14 50  1  0
 14 51  1  0
 14 52  1  0
 15 16  1  0
 15 20  1  0
 15 53  1  6
 16 17  1  0
 17 18  1  0
 17 19  2  0
 18 54  1  0
 18 55  1  0
 18 56  1  0
 20 21  1  0
 20 22  1  0
 20 57  1  1
 21 58  1  0
 22 33  1  0
 22 23  1  0
 22 59  1  6
 23 24  1  0
 23 25  1  0
 23 60  1  6
 24 61  1  0
 24 62  1  0
 24 63  1  0
 25 26  1  0
 25 64  1  0
 25 65  1  0
 26 32  1  0
 26 27  1  0
 26 66  1  1
 27 28  1  0
 28 32  1  0
 28 29  1  0
 28 67  1  6
 29 30  1  0
 30 31  1  0
 30 68  1  0
 30 69  1  0
 32 31  1  1
 31 70  1  0
 31 71  1  0
 32 33  1  0
 33 34  1  1
 33 35  1  0
 34 72  1  0
 35 73  1  1
M  END
>  <i_m_ct_stereo_status>  (266) 
1

>  <s_m_source_file>  (266) 
/var/tmp/pbs.5076255.sched01/tmprh8juyh8/78tr4t3sa2.sdf

>  <i_m_source_file_index>  (266) 
36

>  <i_lp_mmshare_version>  (266) 
48012

>  <i_f3d_flags>  (266) 
0

>  <s_epik_input>  (266) 
TzFDKFtDSDNdKShbQ0gzXSlbQ0BASF0yW0NIMl1DKD1PKVtDQEBdKFtDSDNdKShbQ0BIXShbQ0BIXTNbT0hdKU9DKD1PKVtDSDNdKVtDQEBdMShDKD1bQ0gyXSlbQ0gzXSlbQ0BIXTJbQ0BAXTQoW09IXSlbQ0BIXTNbQ0BASF0oW0NIM10pW0NIMl1bQ0BIXShbQ0BdNDU2KU9bQ0BASF01T1tDSDJdW0NIMl02

>  <s_epik_cmdline>  (266) 
J2VwaWtfcHl0aG9uJywgJy1waHQnLCAnMi4wJywgJy1waCcsICc3LjAnLCAnLXRuJywgJzgnLCAnLW1hJywgJzIwMCcsICctaW1hZScsICc8aW5maWxlLm1hZT4nLCAnLW9tYWUnLCAnPG91dGZpbGUubWFlPic=

>  <r_lp_tautomer_probability>  (266) 
1

>  <r_epik_Ionization_Penalty>  (266) 
4.46021e-07

>  <r_epik_Ionization_Penalty_Charging>  (266) 
0

>  <r_epik_Ionization_Penalty_Neutral>  (266) 
4.46021e-07

>  <r_epik_State_Penalty>  (266) 
-0

>  <r_epik_Charging_Adjusted_Penalty>  (266) 
0

>  <i_epik_Tot_Q>  (266) 
0

>  <i_epik_Tot_abs_Q>  (266) 
0

>  <s_epik_Chemistry_Notes>  (266) 
This compound has an ester and may undergo hydrolysis at high or low pH. This compound contains an acetal/aminal-like group ( X-CH(R)-Y where X, Y are N, S, or O) that may be acid/base labile, releasing an aldehyde.

>  <s_lp_Force_Field>  (266) 
OPLS3e

>  <r_lp_Energy>  (266) 
58.6095

>  <b_lp_Chiralities_Consistent>  (266) 
1

>  <s_lp_Variant>  (266) 
90:0-1

>  <s_i_glide_gridfile>  (266) 
pfpi4k_grid

>  <i_i_glide_lignum>  (266) 
36

>  <i_i_glide_rotatable_bonds>  (266) 
5

>  <r_i_docking_score>  (266) 
-2.30663

>  <r_i_glide_ligand_efficiency>  (266) 
-0.0659038

>  <r_i_glide_ligand_efficiency_sa>  (266) 
-0.215576

>  <r_i_glide_ligand_efficiency_ln>  (266) 
-0.506357

>  <r_i_glide_gscore>  (266) 
-2.30663

>  <r_i_glide_lipo>  (266) 
-0.384264

>  <r_i_glide_hbond>  (266) 
-0.0476472

>  <r_i_glide_metal>  (266) 
-0

>  <r_i_glide_rewards>  (266) 
-0.0641876

>  <r_i_glide_evdw>  (266) 
-28.3473

>  <r_i_glide_ecoul>  (266) 
-3.48678

>  <r_i_glide_erotb>  (266) 
0.169121

>  <r_i_glide_esite>  (266) 
-0.0392754

>  <r_i_glide_emodel>  (266) 
-33.2145

>  <r_i_glide_energy>  (266) 
-31.834

>  <r_i_glide_einternal>  (266) 
4.4502

>  <r_i_glide_intrahb_reward>  (266) 
-0

>  <i_i_glide_confnum>  (266) 
5

>  <i_i_glide_posenum>  (266) 
32

>  <r_i_glide_eff_state_penalty>  (266) 
0

>  <ligand_id>  (266) 
90

>  <original_smiles>  (266) 
C=C(C)C12OC(C)(C)C3CC(=O)C1(C)C(OC(C)=O)C(O)C1C(C)CC4OC5OCCC45C1(O)C32

>  <smiles>  (266) 
[H]OC1([H])C([H])(OC(=O)C([H])([H])[H])C2(C([H])([H])[H])C(=O)C([H])([H])C3([H])C([H])(C2(C(=C([H])[H])C([H])([H])[H])OC3(C([H])([H])[H])C([H])([H])[H])C2(O[H])C1([H])C([H])(C([H])([H])[H])C([H])([H])C1([H])OC3([H])OC([H])([H])C([H])([H])C312

$$$$
90:0:2
     RDKit          3D

 73 78  0  0  1  0  0  0  0  0999 V2000
    7.1656   -5.0679    1.9297 C   0  0  0  0  0  0  0  0  0  0  0  0
    6.2370   -5.3911    2.8632 C   0  0  0  0  0  0  0  0  0  0  0  0
    6.7664   -5.8544    4.2173 C   0  0  0  0  0  0  0  0  0  0  0  0
    4.6927   -5.3870    2.6930 C   0  0  2  0  0  0  0  0  0  0  0  0
    4.2588   -6.6974    3.1225 O   0  0  0  0  0  0  0  0  0  0  0  0
    3.0858   -6.6703    3.9467 C   0  0  0  0  0  0  0  0  0  0  0  0
    2.0940   -7.7496    3.4554 C   0  0  0  0  0  0  0  0  0  0  0  0
    3.4746   -7.0493    5.3986 C   0  0  0  0  0  0  0  0  0  0  0  0
    2.6191   -5.1989    3.8123 C   0  0  2  0  0  0  0  0  0  0  0  0
    1.8007   -4.9539    2.5308 C   0  0  0  0  0  0  0  0  0  0  0  0
    2.5463   -5.3747    1.2818 C   0  0  0  0  0  0  0  0  0  0  0  0
    1.8757   -5.8204    0.3332 O   0  0  0  0  0  0  0  0  0  0  0  0
    4.0843   -5.2312    1.2279 C   0  0  2  0  0  0  0  0  0  0  0  0
    4.6011   -6.3916    0.3298 C   0  0  0  0  0  0  0  0  0  0  0  0
    4.4527   -3.8721    0.5255 C   0  0  1  0  0  0  0  0  0  0  0  0
    3.4751   -3.4525   -0.4472 O   0  0  0  0  0  0  0  0  0  0  0  0
    3.7455   -3.1762   -1.7643 C   0  0  0  0  0  0  0  0  0  0  0  0
    5.1692   -3.4482   -2.2621 C   0  0  0  0  0  0  0  0  0  0  0  0
    2.9032   -2.7306   -2.5376 O   0  0  0  0  0  0  0  0  0  0  0  0
    4.8826   -2.6438    1.3777 C   0  0  1  0  0  0  0  0  0  0  0  0
    5.3365   -1.6562    0.4602 O   0  0  0  0  0  0  0  0  0  0  0  0
    3.8857   -2.1291    2.4614 C   0  0  2  0  0  0  0  0  0  0  0  0
    3.9255   -0.5530    2.5854 C   0  0  1  0  0  0  0  0  0  0  0  0
    2.8648    0.1071    1.6794 C   0  0  0  0  0  0  0  0  0  0  0  0
    3.8756    0.0368    4.0033 C   0  0  0  0  0  0  0  0  0  0  0  0
    3.0637   -0.7649    4.9964 C   0  0  1  0  0  0  0  0  0  0  0  0
    1.6502   -0.7194    4.6884 O   0  0  0  0  0  0  0  0  0  0  0  0
    1.5995   -2.1561    4.7168 C   0  0  2  0  0  0  0  0  0  0  0  0
    0.9739   -2.7095    5.8701 O   0  0  0  0  0  0  0  0  0  0  0  0
    1.8905   -2.7786    6.9647 C   0  0  0  0  0  0  0  0  0  0  0  0
    3.2734   -2.9224    6.3334 C   0  0  0  0  0  0  0  0  0  0  0  0
    3.1155   -2.2912    4.9467 C   0  0  2  0  0  0  0  0  0  0  0  0
    4.0371   -2.9070    3.8243 C   0  0  2  0  0  0  0  0  0  0  0  0
    5.3449   -2.6326    4.2988 O   0  0  0  0  0  0  0  0  0  0  0  0
    3.9670   -4.4919    3.7463 C   0  0  2  0  0  0  0  0  0  0  0  0
    8.2203   -5.1211    2.1590 H   0  0  0  0  0  0  0  0  0  0  0  0
    6.9375   -4.7567    0.9297 H   0  0  0  0  0  0  0  0  0  0  0  0
    6.3389   -6.8238    4.4956 H   0  0  0  0  0  0  0  0  0  0  0  0
    6.5478   -5.1359    5.0037 H   0  0  0  0  0  0  0  0  0  0  0  0
    7.8514   -5.9804    4.1969 H   0  0  0  0  0  0  0  0  0  0  0  0
    1.1322   -7.6575    3.9601 H   0  0  0  0  0  0  0  0  0  0  0  0
    2.4813   -8.7474    3.6630 H   0  0  0  0  0  0  0  0  0  0  0  0
    1.9183   -7.7214    2.3824 H   0  0  0  0  0  0  0  0  0  0  0  0
    2.6073   -6.9781    6.0543 H   0  0  0  0  0  0  0  0  0  0  0  0
    4.2572   -6.4315    5.8349 H   0  0  0  0  0  0  0  0  0  0  0  0
    3.8362   -8.0778    5.4472 H   0  0  0  0  0  0  0  0  0  0  0  0
    2.0274   -4.9106    4.6797 H   0  0  0  0  0  0  0  0  0  0  0  0
    0.8633   -5.4977    2.5744 H   0  0  0  0  0  0  0  0  0  0  0  0
    1.5492   -3.9136    2.3901 H   0  0  0  0  0  0  0  0  0  0  0  0
    5.6840   -6.4336    0.2502 H   0  0  0  0  0  0  0  0  0  0  0  0
    4.2271   -6.3149   -0.6920 H   0  0  0  0  0  0  0  0  0  0  0  0
    4.2794   -7.3647    0.7012 H   0  0  0  0  0  0  0  0  0  0  0  0
    5.3499   -4.1447   -0.0099 H   0  0  0  0  0  0  0  0  0  0  0  0
    5.9056   -2.8907   -1.6844 H   0  0  0  0  0  0  0  0  0  0  0  0
    5.3056   -3.1589   -3.3097 H   0  0  0  0  0  0  0  0  0  0  0  0
    5.3810   -4.5143   -2.1852 H   0  0  0  0  0  0  0  0  0  0  0  0
    5.8144   -2.8798    1.8737 H   0  0  0  0  0  0  0  0  0  0  0  0
    4.5911   -1.3473   -0.0334 H   0  0  0  0  0  0  0  0  0  0  0  0
    2.8910   -2.3464    2.0897 H   0  0  0  0  0  0  0  0  0  0  0  0
    4.8880   -0.1754    2.2389 H   0  0  0  0  0  0  0  0  0  0  0  0
    1.8585   -0.1147    2.0307 H   0  0  0  0  0  0  0  0  0  0  0  0
    2.9423   -0.2397    0.6480 H   0  0  0  0  0  0  0  0  0  0  0  0
    2.9892    1.1901    1.6710 H   0  0  0  0  0  0  0  0  0  0  0  0
    4.9012    0.0601    4.3723 H   0  0  0  0  0  0  0  0  0  0  0  0
    3.5560    1.0797    3.9646 H   0  0  0  0  0  0  0  0  0  0  0  0
    3.2162   -0.4055    6.0071 H   0  0  0  0  0  0  0  0  0  0  0  0
    1.2346   -2.5325    3.7715 H   0  0  0  0  0  0  0  0  0  0  0  0
    1.8229   -1.8548    7.5371 H   0  0  0  0  0  0  0  0  0  0  0  0
    1.6527   -3.6086    7.6345 H   0  0  0  0  0  0  0  0  0  0  0  0
    4.0338   -2.4177    6.9287 H   0  0  0  0  0  0  0  0  0  0  0  0
    3.5508   -3.9708    6.3295 H   0  0  0  0  0  0  0  0  0  0  0  0
    5.9622   -2.9422    3.6616 H   0  0  0  0  0  0  0  0  0  0  0  0
    4.4622   -4.7539    4.6680 H   0  0  0  0  0  0  0  0  0  0  0  0
  1  2  2  0
  1 36  1  0
  1 37  1  0
  2  3  1  0
  4  2  1  6
  3 38  1  0
  3 39  1  0
  3 40  1  0
  4 13  1  0
  4 35  1  0
  4  5  1  0
  5  6  1  0
  6  7  1  0
  6  8  1  0
  6  9  1  0
  7 41  1  0
  7 42  1  0
  7 43  1  0
  8 44  1  0
  8 45  1  0
  8 46  1  0
  9 35  1  0
  9 10  1  0
  9 47  1  1
 10 11  1  0
 10 48  1  0
 10 49  1  0
 11 12  2  0
 11 13  1  0
 13 14  1  6
 13 15  1  0
 14 50  1  0
 14 51  1  0
 14 52  1  0
 15 16  1  0
 15 20  1  0
 15 53  1  6
 16 17  1  0
 17 18  1  0
 17 19  2  0
 18 54  1  0
 18 55  1  0
 18 56  1  0
 20 21  1  0
 20 22  1  0
 20 57  1  1
 21 58  1  0
 22 33  1  0
 22 23  1  0
 22 59  1  6
 23 24  1  0
 23 25  1  0
 23 60  1  6
 24 61  1  0
 24 62  1  0
 24 63  1  0
 25 26  1  0
 25 64  1  0
 25 65  1  0
 26 32  1  0
 26 27  1  0
 26 66  1  1
 27 28  1  0
 28 32  1  0
 28 29  1  0
 28 67  1  6
 29 30  1  0
 30 31  1  0
 30 68  1  0
 30 69  1  0
 32 31  1  1
 31 70  1  0
 31 71  1  0
 32 33  1  0
 33 34  1  1
 33 35  1  0
 34 72  1  0
 35 73  1  1
M  END
>  <i_m_ct_stereo_status>  (267) 
1

>  <s_m_source_file>  (267) 
/var/tmp/pbs.5076255.sched01/tmprh8juyh8/78tr4t3sa2.sdf

>  <i_m_source_file_index>  (267) 
36

>  <i_lp_mmshare_version>  (267) 
48012

>  <i_f3d_flags>  (267) 
0

>  <s_epik_input>  (267) 
TzFDKFtDSDNdKShbQ0gzXSlbQ0BASF0yW0NIMl1DKD1PKVtDQEBdKFtDSDNdKShbQ0BIXShbQ0BIXTNbT0hdKU9DKD1PKVtDSDNdKVtDQEBdMShDKD1bQ0gyXSlbQ0gzXSlbQ0BIXTJbQ0BAXTQoW09IXSlbQ0BIXTNbQ0BASF0oW0NIM10pW0NIMl1bQ0BIXShbQ0BdNDU2KU9bQ0BASF01T1tDSDJdW0NIMl02

>  <s_epik_cmdline>  (267) 
J2VwaWtfcHl0aG9uJywgJy1waHQnLCAnMi4wJywgJy1waCcsICc3LjAnLCAnLXRuJywgJzgnLCAnLW1hJywgJzIwMCcsICctaW1hZScsICc8aW5maWxlLm1hZT4nLCAnLW9tYWUnLCAnPG91dGZpbGUubWFlPic=

>  <r_lp_tautomer_probability>  (267) 
1

>  <r_epik_Ionization_Penalty>  (267) 
4.46021e-07

>  <r_epik_Ionization_Penalty_Charging>  (267) 
0

>  <r_epik_Ionization_Penalty_Neutral>  (267) 
4.46021e-07

>  <r_epik_State_Penalty>  (267) 
-0

>  <r_epik_Charging_Adjusted_Penalty>  (267) 
0

>  <i_epik_Tot_Q>  (267) 
0

>  <i_epik_Tot_abs_Q>  (267) 
0

>  <s_epik_Chemistry_Notes>  (267) 
This compound has an ester and may undergo hydrolysis at high or low pH. This compound contains an acetal/aminal-like group ( X-CH(R)-Y where X, Y are N, S, or O) that may be acid/base labile, releasing an aldehyde.

>  <s_lp_Force_Field>  (267) 
OPLS3e

>  <r_lp_Energy>  (267) 
58.6095

>  <b_lp_Chiralities_Consistent>  (267) 
1

>  <s_lp_Variant>  (267) 
90:0-1

>  <s_i_glide_gridfile>  (267) 
pfpi4k_grid

>  <i_i_glide_lignum>  (267) 
36

>  <i_i_glide_rotatable_bonds>  (267) 
5

>  <r_i_docking_score>  (267) 
-2.14141

>  <r_i_glide_ligand_efficiency>  (267) 
-0.0611831

>  <r_i_glide_ligand_efficiency_sa>  (267) 
-0.200134

>  <r_i_glide_ligand_efficiency_ln>  (267) 
-0.470087

>  <r_i_glide_gscore>  (267) 
-2.14141

>  <r_i_glide_lipo>  (267) 
-0.491678

>  <r_i_glide_hbond>  (267) 
-0.0429801

>  <r_i_glide_metal>  (267) 
-0

>  <r_i_glide_rewards>  (267) 
-0.0641876

>  <r_i_glide_evdw>  (267) 
-28.3891

>  <r_i_glide_ecoul>  (267) 
-1.70919

>  <r_i_glide_erotb>  (267) 
0.169121

>  <r_i_glide_esite>  (267) 
-0.0358505

>  <r_i_glide_emodel>  (267) 
-31.1594

>  <r_i_glide_energy>  (267) 
-30.0983

>  <r_i_glide_einternal>  (267) 
5.44818

>  <r_i_glide_intrahb_reward>  (267) 
-0

>  <i_i_glide_confnum>  (267) 
4

>  <i_i_glide_posenum>  (267) 
1

>  <r_i_glide_eff_state_penalty>  (267) 
0

>  <ligand_id>  (267) 
90

>  <original_smiles>  (267) 
C=C(C)C12OC(C)(C)C3CC(=O)C1(C)C(OC(C)=O)C(O)C1C(C)CC4OC5OCCC45C1(O)C32

>  <smiles>  (267) 
[H]OC1([H])C([H])(OC(=O)C([H])([H])[H])C2(C([H])([H])[H])C(=O)C([H])([H])C3([H])C([H])(C2(C(=C([H])[H])C([H])([H])[H])OC3(C([H])([H])[H])C([H])([H])[H])C2(O[H])C1([H])C([H])(C([H])([H])[H])C([H])([H])C1([H])OC3([H])OC([H])([H])C([H])([H])C312

$$$$
91:0:0
     RDKit          3D

 89 93  0  0  1  0  0  0  0  0999 V2000
    2.3462    2.3274    3.5484 C   0  0  0  0  0  0  0  0  0  0  0  0
    2.2704    0.9846    3.6126 C   0  0  0  0  0  0  0  0  0  0  0  0
    2.2336    0.2526    2.2608 C   0  0  0  0  0  0  0  0  0  0  0  0
    2.2797    0.2273    4.9898 C   0  0  2  0  0  0  0  0  0  0  0  0
    3.6173   -0.4731    5.2962 C   0  0  0  0  0  0  0  0  0  0  0  0
    3.6378   -1.9169    4.7817 C   0  0  1  0  0  0  0  0  0  0  0  0
    4.9653   -2.3709    4.7797 O   0  0  0  0  0  0  0  0  0  0  0  0
    2.5342   -2.8604    5.3622 C   0  0  1  0  0  0  0  0  0  0  0  0
    2.8032   -3.8000    6.6222 C   0  0  2  0  0  0  0  0  0  0  0  0
    2.9007   -2.9636    7.9389 C   0  0  0  0  0  0  0  0  0  0  0  0
    4.1212   -4.6491    6.5293 C   0  0  1  0  0  0  0  0  0  0  0  0
    4.4466   -5.2912    7.7461 O   0  0  0  0  0  0  0  0  0  0  0  0
    4.0752   -5.7370    5.4479 C   0  0  0  0  0  0  0  0  0  0  0  0
    2.9564   -6.7815    5.7178 C   0  0  2  0  0  0  0  0  0  0  0  0
    3.0757   -8.1545    4.9268 C   0  0  2  0  0  0  0  0  0  0  0  0
    4.2418   -8.9006    5.6305 C   0  0  0  0  0  0  0  0  0  0  0  0
    3.3972   -7.9705    3.4039 C   0  0  0  0  0  0  0  0  0  0  0  0
    2.3206   -8.3534    2.3586 C   0  0  0  0  0  0  0  0  0  0  0  0
    2.0638   -9.8489    2.1024 C   0  0  0  0  0  0  0  0  0  0  0  0
    2.3657  -10.8252    3.2433 C   0  0  1  0  0  0  0  0  0  0  0  0
    3.7521  -11.1094    3.2478 O   0  0  0  0  0  0  0  0  0  0  0  0
    1.8022  -10.4746    4.6431 C   0  0  0  0  0  0  0  0  0  0  0  0
    1.7976   -9.0112    5.1132 C   0  0  0  0  0  0  0  0  0  0  0  0
    0.7101   -8.5445    5.7660 C   0  0  0  0  0  0  0  0  0  0  0  0
    0.5505   -7.1637    6.3715 C   0  0  1  0  0  0  0  0  0  0  0  0
    0.5942   -7.3022    7.7779 O   0  0  0  0  0  0  0  0  0  0  0  0
    1.5543   -6.1082    5.7982 C   0  0  2  0  0  0  0  0  0  0  0  0
    1.0237   -5.7625    4.3792 C   0  0  0  0  0  0  0  0  0  0  0  0
    1.6350   -4.8402    6.7721 C   0  0  2  0  0  0  0  0  0  0  0  0
    0.2912   -4.1067    6.9286 C   0  0  0  0  0  0  0  0  0  0  0  0
   -0.5001   -4.4095    7.8033 O   0  0  0  0  0  0  0  0  0  0  0  0
   -0.0405   -2.9575    5.9724 C   0  0  0  0  0  0  0  0  0  0  0  0
    1.0931   -2.1813    5.2149 C   0  0  2  0  0  0  0  0  0  0  0  0
    0.7334   -2.3401    3.6978 C   0  0  0  0  0  0  0  0  0  0  0  0
    1.0104   -0.5788    5.5339 C   0  0  1  0  0  0  0  0  0  0  0  0
    1.0649   -0.3222    7.0851 C   0  0  0  0  0  0  0  0  0  0  0  0
   -0.3154    0.1148    4.9856 C   0  0  0  0  0  0  0  0  0  0  0  0
   -1.6386   -0.2258    5.6626 C   0  0  0  0  0  0  0  0  0  0  0  0
   -2.2249   -1.2752    5.2976 O   0  0  0  0  0  0  0  0  0  0  0  0
   -2.0547    0.5434    6.5663 O   0  0  0  0  0  0  0  0  0  0  0  0
    2.3589    2.8135    2.5835 H   0  0  0  0  0  0  0  0  0  0  0  0
    2.3909    2.9640    4.4145 H   0  0  0  0  0  0  0  0  0  0  0  0
    2.9979   -0.5196    2.1909 H   0  0  0  0  0  0  0  0  0  0  0  0
    2.5170    0.9494    1.4357 H   0  0  0  0  0  0  0  0  0  0  0  0
    1.2647   -0.1600    2.0975 H   0  0  0  0  0  0  0  0  0  0  0  0
    2.3328    1.0894    5.6593 H   0  0  0  0  0  0  0  0  0  0  0  0
    4.4260    0.0951    4.8515 H   0  0  0  0  0  0  0  0  0  0  0  0
    3.8497   -0.4675    6.3632 H   0  0  0  0  0  0  0  0  0  0  0  0
    3.4401   -1.8704    3.7089 H   0  0  0  0  0  0  0  0  0  0  0  0
    4.9931   -3.1887    4.2878 H   0  0  0  0  0  0  0  0  0  0  0  0
    2.5566   -3.6218    4.5924 H   0  0  0  0  0  0  0  0  0  0  0  0
    3.1517   -3.5783    8.8037 H   0  0  0  0  0  0  0  0  0  0  0  0
    1.9603   -2.5150    8.2293 H   0  0  0  0  0  0  0  0  0  0  0  0
    3.6592   -2.1849    7.8755 H   0  0  0  0  0  0  0  0  0  0  0  0
    4.9824   -4.0064    6.3847 H   0  0  0  0  0  0  0  0  0  0  0  0
    5.2816   -5.7289    7.6139 H   0  0  0  0  0  0  0  0  0  0  0  0
    3.9550   -5.2618    4.4859 H   0  0  0  0  0  0  0  0  0  0  0  0
    5.0575   -6.2256    5.4124 H   0  0  0  0  0  0  0  0  0  0  0  0
    3.0972   -7.0747    6.7530 H   0  0  0  0  0  0  0  0  0  0  0  0
    5.1895   -8.3639    5.5549 H   0  0  0  0  0  0  0  0  0  0  0  0
    4.4305   -9.8861    5.2278 H   0  0  0  0  0  0  0  0  0  0  0  0
    4.0445   -9.0515    6.6889 H   0  0  0  0  0  0  0  0  0  0  0  0
    3.6445   -6.9388    3.2001 H   0  0  0  0  0  0  0  0  0  0  0  0
    4.3209   -8.5089    3.1569 H   0  0  0  0  0  0  0  0  0  0  0  0
    1.3674   -7.8915    2.5830 H   0  0  0  0  0  0  0  0  0  0  0  0
    2.6062   -7.9130    1.4053 H   0  0  0  0  0  0  0  0  0  0  0  0
    1.0176   -9.9609    1.8185 H   0  0  0  0  0  0  0  0  0  0  0  0
    2.6258  -10.1542    1.2227 H   0  0  0  0  0  0  0  0  0  0  0  0
    1.9172  -11.7782    2.9618 H   0  0  0  0  0  0  0  0  0  0  0  0
    3.9791  -11.4680    2.3879 H   0  0  0  0  0  0  0  0  0  0  0  0
    0.7701  -10.8128    4.6521 H   0  0  0  0  0  0  0  0  0  0  0  0
    2.2995  -11.0846    5.4007 H   0  0  0  0  0  0  0  0  0  0  0  0
   -0.1336   -9.2044    5.9234 H   0  0  0  0  0  0  0  0  0  0  0  0
   -0.4608   -6.8396    6.1345 H   0  0  0  0  0  0  0  0  0  0  0  0
    1.4428   -7.6719    8.0215 H   0  0  0  0  0  0  0  0  0  0  0  0
    0.2205   -5.0361    4.3841 H   0  0  0  0  0  0  0  0  0  0  0  0
    0.5405   -6.6186    3.9243 H   0  0  0  0  0  0  0  0  0  0  0  0
    1.8004   -5.4335    3.6932 H   0  0  0  0  0  0  0  0  0  0  0  0
    1.7986   -5.2505    7.7762 H   0  0  0  0  0  0  0  0  0  0  0  0
   -0.7676   -3.3612    5.2820 H   0  0  0  0  0  0  0  0  0  0  0  0
   -0.6227   -2.2916    6.6050 H   0  0  0  0  0  0  0  0  0  0  0  0
   -0.3444   -2.1906    3.5737 H   0  0  0  0  0  0  0  0  0  0  0  0
    0.8962   -3.3665    3.3202 H   0  0  0  0  0  0  0  0  0  0  0  0
    1.2839   -1.7180    3.1179 H   0  0  0  0  0  0  0  0  0  0  0  0
    0.3513   -0.8884    7.6864 H   0  0  0  0  0  0  0  0  0  0  0  0
    0.8862    0.7331    7.3358 H   0  0  0  0  0  0  0  0  0  0  0  0
    2.0391   -0.5318    7.5057 H   0  0  0  0  0  0  0  0  0  0  0  0
   -0.2206    1.1955    5.0671 H   0  0  0  0  0  0  0  0  0  0  0  0
   -0.4437   -0.0658    3.9132 H   0  0  0  0  0  0  0  0  0  0  0  0
  1  2  2  0
  1 41  1  0
  1 42  1  0
  2  3  1  0
  2  4  1  0
  3 43  1  0
  3 44  1  0
  3 45  1  0
  4 35  1  0
  4  5  1  0
  4 46  1  1
  5  6  1  0
  5 47  1  0
  5 48  1  0
  6  7  1  0
  6  8  1  0
  6 49  1  6
  7 50  1  0
  8 33  1  0
  8  9  1  0
  8 51  1  6
  9 29  1  0
  9 10  1  1
  9 11  1  0
 10 52  1  0
 10 53  1  0
 10 54  1  0
 11 12  1  0
 11 13  1  0
 11 55  1  6
 12 56  1  0
 13 14  1  0
 13 57  1  0
 13 58  1  0
 14 27  1  0
 14 15  1  0
 14 59  1  1
 15 23  1  0
 15 16  1  1
 15 17  1  0
 16 60  1  0
 16 61  1  0
 16 62  1  0
 17 18  1  0
 17 63  1  0
 17 64  1  0
 18 19  1  0
 18 65  1  0
 18 66  1  0
 19 20  1  0
 19 67  1  0
 19 68  1  0
 20 21  1  0
 20 22  1  0
 20 69  1  6
 21 70  1  0
 22 23  1  0
 22 71  1  0
 22 72  1  0
 23 24  2  0
 24 25  1  0
 24 73  1  0
 25 26  1  0
 25 27  1  0
 25 74  1  1
 26 75  1  0
 27 28  1  6
 27 29  1  0
 28 76  1  0
 28 77  1  0
 28 78  1  0
 29 30  1  0
 29 79  1  1
 30 31  2  0
 30 32  1  0
 32 33  1  0
 32 80  1  0
 32 81  1  0
 33 34  1  6
 33 35  1  0
 34 82  1  0
 34 83  1  0
 34 84  1  0
 35 36  1  1
 35 37  1  0
 36 85  1  0
 36 86  1  0
 36 87  1  0
 37 38  1  0
 37 88  1  0
 37 89  1  0
 38 39  2  0
 38 40  1  0
M  CHG  1  40  -1
M  END
>  <i_m_ct_stereo_status>  (268) 
1

>  <s_m_source_file>  (268) 
/var/tmp/pbs.5076255.sched01/tmprh8juyh8/78tr4t3sa2.sdf

>  <i_m_source_file_index>  (268) 
37

>  <i_lp_mmshare_version>  (268) 
48012

>  <i_f3d_flags>  (268) 
0

>  <s_epik_input>  (268) 
W09IXVtDQEBIXTFbQ0gyXVtDQEBIXShDKD1bQ0gyXSlbQ0gzXSlbQ0BAXShbQ0gzXSkoW0NIMl1DKD1PKVtPSF0pW0NAQF0oW0NIM10pKFtDQEBIXTFbQ0BdMjNbQ0gzXSlbQ0gyXUMoPU8pW0NASF0zW0NAQF00KFtDSDNdKVtDQEhdKFtDSDJdW0NAQEhdMltPSF0pW0NAQF01KFtDSDNdKUMoPVtDSF1bQ0BIXTRbT0hdKVtDSDJdW0NASF0oW09IXSlbQ0gyXVtDSDJdW0NIMl01

>  <s_epik_cmdline>  (268) 
J2VwaWtfcHl0aG9uJywgJy1waHQnLCAnMi4wJywgJy1waCcsICc3LjAnLCAnLXRuJywgJzgnLCAnLW1hJywgJzIwMCcsICctaW1hZScsICc8aW5maWxlLm1hZT4nLCAnLW9tYWUnLCAnPG91dGZpbGUubWFlPic=

>  <r_lp_tautomer_probability>  (268) 
1

>  <r_epik_Ionization_Penalty>  (268) 
0.00381447

>  <r_epik_Ionization_Penalty_Charging>  (268) 
0.00381244

>  <r_epik_Ionization_Penalty_Neutral>  (268) 
2.0322e-06

>  <r_epik_State_Penalty>  (268) 
0.00272077

>  <r_epik_Charging_Adjusted_Penalty>  (268) 
0.00653321

>  <i_epik_Tot_Q>  (268) 
-1

>  <i_epik_Tot_abs_Q>  (268) 
1

>  <s_lp_Force_Field>  (268) 
OPLS3e

>  <r_lp_Energy>  (268) 
106.504

>  <b_lp_Chiralities_Consistent>  (268) 
1

>  <s_lp_Variant>  (268) 
91:0-1

>  <s_i_glide_gridfile>  (268) 
pfpi4k_grid

>  <i_i_glide_lignum>  (268) 
37

>  <i_i_glide_rotatable_bonds>  (268) 
7

>  <r_i_docking_score>  (268) 
-3.1505

>  <r_i_glide_ligand_efficiency>  (268) 
-0.0787626

>  <r_i_glide_ligand_efficiency_sa>  (268) 
-0.269364

>  <r_i_glide_ligand_efficiency_ln>  (268) 
-0.67191

>  <r_i_glide_gscore>  (268) 
-3.1505

>  <r_i_glide_lipo>  (268) 
-0.14969

>  <r_i_glide_hbond>  (268) 
-0.300373

>  <r_i_glide_metal>  (268) 
-0

>  <r_i_glide_rewards>  (268) 
0

>  <r_i_glide_evdw>  (268) 
-27.6093

>  <r_i_glide_ecoul>  (268) 
-8.63363

>  <r_i_glide_erotb>  (268) 
0.0564499

>  <r_i_glide_esite>  (268) 
-0.0813818

>  <r_i_glide_emodel>  (268) 
-42.2165

>  <r_i_glide_energy>  (268) 
-36.2429

>  <r_i_glide_einternal>  (268) 
6.01332

>  <r_i_glide_intrahb_reward>  (268) 
-0

>  <i_i_glide_confnum>  (268) 
4

>  <i_i_glide_posenum>  (268) 
36

>  <r_i_glide_eff_state_penalty>  (268) 
0

>  <ligand_id>  (268) 
91

>  <original_smiles>  (268) 
C=C(C)C1CC(O)C2C3(C)C(O)CC4C5(C)CCCC(O)CC5=CC(O)C4(C)C3C(=O)CC2(C)C1(C)CC(=O)O

>  <smiles>  (268) 
[H]OC1([H])C([H])=C2C([H])([H])C([H])(O[H])C([H])([H])C([H])([H])C([H])([H])C2(C([H])([H])[H])C2([H])C([H])([H])C([H])(O[H])C3(C([H])([H])[H])C([H])(C(=O)C([H])([H])C4(C([H])([H])[H])C3([H])C([H])(O[H])C([H])([H])C([H])(C(=C([H])[H])C([H])([H])[H])C4(C([H])([H])[H])C([H])([H])C(=O)[O-])C12C([H])([H])[H]

$$$$
91:0:1
     RDKit          3D

 89 93  0  0  1  0  0  0  0  0999 V2000
    2.7745    0.4131    2.2993 C   0  0  0  0  0  0  0  0  0  0  0  0
    2.2453    0.9650    3.4151 C   0  0  0  0  0  0  0  0  0  0  0  0
    1.5435    2.3187    3.2367 C   0  0  0  0  0  0  0  0  0  0  0  0
    2.3626    0.3652    4.8544 C   0  0  2  0  0  0  0  0  0  0  0  0
    3.6748   -0.4075    5.1130 C   0  0  0  0  0  0  0  0  0  0  0  0
    3.6195   -1.8883    4.6931 C   0  0  1  0  0  0  0  0  0  0  0  0
    4.9449   -2.3893    4.6401 O   0  0  0  0  0  0  0  0  0  0  0  0
    2.5282   -2.7459    5.3949 C   0  0  1  0  0  0  0  0  0  0  0  0
    2.8484   -3.6243    6.6791 C   0  0  2  0  0  0  0  0  0  0  0  0
    3.0782   -2.7288    7.9275 C   0  0  0  0  0  0  0  0  0  0  0  0
    4.1085   -4.5354    6.5384 C   0  0  1  0  0  0  0  0  0  0  0  0
    4.4967   -5.1430    7.7640 O   0  0  0  0  0  0  0  0  0  0  0  0
    3.9578   -5.6825    5.5259 C   0  0  0  0  0  0  0  0  0  0  0  0
    2.8093   -6.6523    5.9244 C   0  0  2  0  0  0  0  0  0  0  0  0
    2.8112   -8.0676    5.2083 C   0  0  2  0  0  0  0  0  0  0  0  0
    3.9991   -8.8262    5.8625 C   0  0  0  0  0  0  0  0  0  0  0  0
    3.0462   -7.9859    3.6570 C   0  0  0  0  0  0  0  0  0  0  0  0
    1.8727   -8.3661    2.7165 C   0  0  0  0  0  0  0  0  0  0  0  0
    1.5272   -9.8551    2.5579 C   0  0  0  0  0  0  0  0  0  0  0  0
    1.8631  -10.7850    3.7259 C   0  0  1  0  0  0  0  0  0  0  0  0
    3.2343  -11.1312    3.6788 O   0  0  0  0  0  0  0  0  0  0  0  0
    1.4227  -10.3348    5.1380 C   0  0  0  0  0  0  0  0  0  0  0  0
    1.5161   -8.8472    5.5225 C   0  0  0  0  0  0  0  0  0  0  0  0
    0.5020   -8.3001    6.2250 C   0  0  0  0  0  0  0  0  0  0  0  0
    0.4440   -6.8842    6.7612 C   0  0  1  0  0  0  0  0  0  0  0  0
    0.5879   -6.9679    8.1682 O   0  0  0  0  0  0  0  0  0  0  0  0
    1.4495   -5.9104    6.0668 C   0  0  2  0  0  0  0  0  0  0  0  0
    0.8380   -5.6115    4.6699 C   0  0  0  0  0  0  0  0  0  0  0  0
    1.6510   -4.6007    6.9650 C   0  0  2  0  0  0  0  0  0  0  0  0
    0.3709   -3.7972    7.1331 C   0  0  0  0  0  0  0  0  0  0  0  0
   -0.3967   -3.9995    8.0937 O   0  0  0  0  0  0  0  0  0  0  0  0
    0.0193   -2.7135    6.1343 C   0  0  0  0  0  0  0  0  0  0  0  0
    1.1232   -1.9883    5.2774 C   0  0  2  0  0  0  0  0  0  0  0  0
    0.6573   -2.1841    3.8018 C   0  0  0  0  0  0  0  0  0  0  0  0
    1.1132   -0.3824    5.5469 C   0  0  1  0  0  0  0  0  0  0  0  0
    1.2742   -0.0429    7.0644 C   0  0  0  0  0  0  0  0  0  0  0  0
   -0.2288    0.3495    5.0879 C   0  0  0  0  0  0  0  0  0  0  0  0
   -1.5582   -0.0331    5.7549 C   0  0  0  0  0  0  0  0  0  0  0  0
   -1.8711    0.5523    6.8011 O   0  0  0  0  0  0  0  0  0  0  0  0
   -2.2613   -0.9388    5.2263 O   0  0  0  0  0  0  0  0  0  0  0  0
    2.6386    0.9409    1.3555 H   0  0  0  0  0  0  0  0  0  0  0  0
    3.3728   -0.4832    2.2624 H   0  0  0  0  0  0  0  0  0  0  0  0
    0.5026    2.4024    3.5643 H   0  0  0  0  0  0  0  0  0  0  0  0
    1.5387    2.5836    2.1731 H   0  0  0  0  0  0  0  0  0  0  0  0
    2.1443    3.0707    3.7264 H   0  0  0  0  0  0  0  0  0  0  0  0
    2.4956    1.2783    5.4150 H   0  0  0  0  0  0  0  0  0  0  0  0
    4.4712    0.0954    4.5697 H   0  0  0  0  0  0  0  0  0  0  0  0
    4.0027   -0.3205    6.1457 H   0  0  0  0  0  0  0  0  0  0  0  0
    3.3410   -1.9611    3.6398 H   0  0  0  0  0  0  0  0  0  0  0  0
    5.4117   -1.8912    3.9929 H   0  0  0  0  0  0  0  0  0  0  0  0
    2.4631   -3.5515    4.6770 H   0  0  0  0  0  0  0  0  0  0  0  0
    3.3643   -3.3051    8.8118 H   0  0  0  0  0  0  0  0  0  0  0  0
    2.1803   -2.2125    8.2568 H   0  0  0  0  0  0  0  0  0  0  0  0
    3.8638   -1.9931    7.7629 H   0  0  0  0  0  0  0  0  0  0  0  0
    4.9872   -3.9521    6.3002 H   0  0  0  0  0  0  0  0  0  0  0  0
    5.3081   -5.5882    7.6049 H   0  0  0  0  0  0  0  0  0  0  0  0
    3.7835   -5.2415    4.5484 H   0  0  0  0  0  0  0  0  0  0  0  0
    4.9069   -6.2086    5.4397 H   0  0  0  0  0  0  0  0  0  0  0  0
    3.0125   -6.9062    6.9645 H   0  0  0  0  0  0  0  0  0  0  0  0
    4.9515   -8.3370    5.6892 H   0  0  0  0  0  0  0  0  0  0  0  0
    4.1120   -9.8384    5.5019 H   0  0  0  0  0  0  0  0  0  0  0  0
    3.8634   -8.9106    6.9427 H   0  0  0  0  0  0  0  0  0  0  0  0
    3.3234   -6.9770    3.3837 H   0  0  0  0  0  0  0  0  0  0  0  0
    3.9146   -8.5802    3.3853 H   0  0  0  0  0  0  0  0  0  0  0  0
    0.9627   -7.8458    2.9832 H   0  0  0  0  0  0  0  0  0  0  0  0
    2.1127   -7.9919    1.7204 H   0  0  0  0  0  0  0  0  0  0  0  0
    0.4627   -9.9411    2.3392 H   0  0  0  0  0  0  0  0  0  0  0  0
    2.0322  -10.2386    1.6710 H   0  0  0  0  0  0  0  0  0  0  0  0
    1.3593  -11.7285    3.5202 H   0  0  0  0  0  0  0  0  0  0  0  0
    3.3633  -11.8889    4.2219 H   0  0  0  0  0  0  0  0  0  0  0  0
    0.3822  -10.6279    5.2423 H   0  0  0  0  0  0  0  0  0  0  0  0
    1.9619  -10.9134    5.8881 H   0  0  0  0  0  0  0  0  0  0  0  0
   -0.3542   -8.9056    6.4763 H   0  0  0  0  0  0  0  0  0  0  0  0
   -0.5603   -6.5170    6.5736 H   0  0  0  0  0  0  0  0  0  0  0  0
    1.4401   -7.3105    8.3691 H   0  0  0  0  0  0  0  0  0  0  0  0
    0.0732   -4.8456    4.6786 H   0  0  0  0  0  0  0  0  0  0  0  0
    0.2912   -6.4677    4.3041 H   0  0  0  0  0  0  0  0  0  0  0  0
    1.5766   -5.3553    3.9147 H   0  0  0  0  0  0  0  0  0  0  0  0
    1.8653   -4.9657    7.9757 H   0  0  0  0  0  0  0  0  0  0  0  0
   -0.7799   -3.0982    5.4981 H   0  0  0  0  0  0  0  0  0  0  0  0
   -0.4519   -2.0112    6.8056 H   0  0  0  0  0  0  0  0  0  0  0  0
   -0.4113   -2.0083    3.7016 H   0  0  0  0  0  0  0  0  0  0  0  0
    0.8164   -3.1820    3.4068 H   0  0  0  0  0  0  0  0  0  0  0  0
    1.1434   -1.5106    3.1113 H   0  0  0  0  0  0  0  0  0  0  0  0
    0.5823   -0.5448    7.7353 H   0  0  0  0  0  0  0  0  0  0  0  0
    1.1407    1.0255    7.2370 H   0  0  0  0  0  0  0  0  0  0  0  0
    2.2696   -0.2627    7.4237 H   0  0  0  0  0  0  0  0  0  0  0  0
   -0.1395    1.4033    5.3604 H   0  0  0  0  0  0  0  0  0  0  0  0
   -0.3593    0.3151    4.0023 H   0  0  0  0  0  0  0  0  0  0  0  0
  1  2  2  0
  1 41  1  0
  1 42  1  0
  2  3  1  0
  2  4  1  0
  3 43  1  0
  3 44  1  0
  3 45  1  0
  4 35  1  0
  4  5  1  0
  4 46  1  1
  5  6  1  0
  5 47  1  0
  5 48  1  0
  6  7  1  0
  6  8  1  0
  6 49  1  6
  7 50  1  0
  8 33  1  0
  8  9  1  0
  8 51  1  6
  9 29  1  0
  9 10  1  1
  9 11  1  0
 10 52  1  0
 10 53  1  0
 10 54  1  0
 11 12  1  0
 11 13  1  0
 11 55  1  6
 12 56  1  0
 13 14  1  0
 13 57  1  0
 13 58  1  0
 14 27  1  0
 14 15  1  0
 14 59  1  1
 15 23  1  0
 15 16  1  1
 15 17  1  0
 16 60  1  0
 16 61  1  0
 16 62  1  0
 17 18  1  0
 17 63  1  0
 17 64  1  0
 18 19  1  0
 18 65  1  0
 18 66  1  0
 19 20  1  0
 19 67  1  0
 19 68  1  0
 20 21  1  0
 20 22  1  0
 20 69  1  6
 21 70  1  0
 22 23  1  0
 22 71  1  0
 22 72  1  0
 23 24  2  0
 24 25  1  0
 24 73  1  0
 25 26  1  0
 25 27  1  0
 25 74  1  1
 26 75  1  0
 27 28  1  6
 27 29  1  0
 28 76  1  0
 28 77  1  0
 28 78  1  0
 29 30  1  0
 29 79  1  1
 30 31  2  0
 30 32  1  0
 32 33  1  0
 32 80  1  0
 32 81  1  0
 33 34  1  6
 33 35  1  0
 34 82  1  0
 34 83  1  0
 34 84  1  0
 35 36  1  1
 35 37  1  0
 36 85  1  0
 36 86  1  0
 36 87  1  0
 37 38  1  0
 37 88  1  0
 37 89  1  0
 38 39  2  0
 38 40  1  0
M  CHG  1  40  -1
M  END
>  <i_m_ct_stereo_status>  (269) 
1

>  <s_m_source_file>  (269) 
/var/tmp/pbs.5076255.sched01/tmprh8juyh8/78tr4t3sa2.sdf

>  <i_m_source_file_index>  (269) 
37

>  <i_lp_mmshare_version>  (269) 
48012

>  <i_f3d_flags>  (269) 
0

>  <s_epik_input>  (269) 
W09IXVtDQEBIXTFbQ0gyXVtDQEBIXShDKD1bQ0gyXSlbQ0gzXSlbQ0BAXShbQ0gzXSkoW0NIMl1DKD1PKVtPSF0pW0NAQF0oW0NIM10pKFtDQEBIXTFbQ0BdMjNbQ0gzXSlbQ0gyXUMoPU8pW0NASF0zW0NAQF00KFtDSDNdKVtDQEhdKFtDSDJdW0NAQEhdMltPSF0pW0NAQF01KFtDSDNdKUMoPVtDSF1bQ0BIXTRbT0hdKVtDSDJdW0NASF0oW09IXSlbQ0gyXVtDSDJdW0NIMl01

>  <s_epik_cmdline>  (269) 
J2VwaWtfcHl0aG9uJywgJy1waHQnLCAnMi4wJywgJy1waCcsICc3LjAnLCAnLXRuJywgJzgnLCAnLW1hJywgJzIwMCcsICctaW1hZScsICc8aW5maWxlLm1hZT4nLCAnLW9tYWUnLCAnPG91dGZpbGUubWFlPic=

>  <r_lp_tautomer_probability>  (269) 
1

>  <r_epik_Ionization_Penalty>  (269) 
0.00381447

>  <r_epik_Ionization_Penalty_Charging>  (269) 
0.00381244

>  <r_epik_Ionization_Penalty_Neutral>  (269) 
2.0322e-06

>  <r_epik_State_Penalty>  (269) 
0.00272077

>  <r_epik_Charging_Adjusted_Penalty>  (269) 
0.00653321

>  <i_epik_Tot_Q>  (269) 
-1

>  <i_epik_Tot_abs_Q>  (269) 
1

>  <s_lp_Force_Field>  (269) 
OPLS3e

>  <r_lp_Energy>  (269) 
106.504

>  <b_lp_Chiralities_Consistent>  (269) 
1

>  <s_lp_Variant>  (269) 
91:0-1

>  <s_i_glide_gridfile>  (269) 
pfpi4k_grid

>  <i_i_glide_lignum>  (269) 
37

>  <i_i_glide_rotatable_bonds>  (269) 
7

>  <r_i_docking_score>  (269) 
-2.88939

>  <r_i_glide_ligand_efficiency>  (269) 
-0.0722346

>  <r_i_glide_ligand_efficiency_sa>  (269) 
-0.247039

>  <r_i_glide_ligand_efficiency_ln>  (269) 
-0.616221

>  <r_i_glide_gscore>  (269) 
-2.88939

>  <r_i_glide_lipo>  (269) 
-0.207434

>  <r_i_glide_hbond>  (269) 
-0.2

>  <r_i_glide_metal>  (269) 
-0

>  <r_i_glide_rewards>  (269) 
0

>  <r_i_glide_evdw>  (269) 
-27.498

>  <r_i_glide_ecoul>  (269) 
-7.21118

>  <r_i_glide_erotb>  (269) 
0.0564499

>  <r_i_glide_esite>  (269) 
-0.081826

>  <r_i_glide_emodel>  (269) 
-40.1736

>  <r_i_glide_energy>  (269) 
-34.7091

>  <r_i_glide_einternal>  (269) 
7.41026

>  <r_i_glide_intrahb_reward>  (269) 
-0

>  <i_i_glide_confnum>  (269) 
5

>  <i_i_glide_posenum>  (269) 
10

>  <r_i_glide_eff_state_penalty>  (269) 
0

>  <ligand_id>  (269) 
91

>  <original_smiles>  (269) 
C=C(C)C1CC(O)C2C3(C)C(O)CC4C5(C)CCCC(O)CC5=CC(O)C4(C)C3C(=O)CC2(C)C1(C)CC(=O)O

>  <smiles>  (269) 
[H]OC1([H])C([H])=C2C([H])([H])C([H])(O[H])C([H])([H])C([H])([H])C([H])([H])C2(C([H])([H])[H])C2([H])C([H])([H])C([H])(O[H])C3(C([H])([H])[H])C([H])(C(=O)C([H])([H])C4(C([H])([H])[H])C3([H])C([H])(O[H])C([H])([H])C([H])(C(=C([H])[H])C([H])([H])[H])C4(C([H])([H])[H])C([H])([H])C(=O)[O-])C12C([H])([H])[H]

$$$$
91:0:2
     RDKit          3D

 89 93  0  0  1  0  0  0  0  0999 V2000
   -1.6977    1.3253    1.7883 C   0  0  0  0  0  0  0  0  0  0  0  0
   -1.3113    2.1128    2.8279 C   0  0  0  0  0  0  0  0  0  0  0  0
   -2.2460    3.2717    3.1685 C   0  0  0  0  0  0  0  0  0  0  0  0
    0.0142    1.8993    3.6335 C   0  0  2  0  0  0  0  0  0  0  0  0
    1.1451    1.2362    2.7921 C   0  0  0  0  0  0  0  0  0  0  0  0
    1.0767   -0.3068    2.7557 C   0  0  1  0  0  0  0  0  0  0  0  0
    1.8660   -0.8141    1.7000 O   0  0  0  0  0  0  0  0  0  0  0  0
    1.1572   -1.0057    4.1431 C   0  0  1  0  0  0  0  0  0  0  0  0
    2.5418   -1.5632    4.7171 C   0  0  2  0  0  0  0  0  0  0  0  0
    3.4840   -0.4065    5.1605 C   0  0  0  0  0  0  0  0  0  0  0  0
    3.3679   -2.4348    3.7036 C   0  0  1  0  0  0  0  0  0  0  0  0
    4.6856   -2.7142    4.1437 O   0  0  0  0  0  0  0  0  0  0  0  0
    2.7235   -3.7891    3.3697 C   0  0  0  0  0  0  0  0  0  0  0  0
    2.5776   -4.6884    4.6293 C   0  0  2  0  0  0  0  0  0  0  0  0
    2.3172   -6.2362    4.3520 C   0  0  2  0  0  0  0  0  0  0  0  0
    3.6860   -6.7729    3.8462 C   0  0  0  0  0  0  0  0  0  0  0  0
    1.2125   -6.5009    3.2684 C   0  0  0  0  0  0  0  0  0  0  0  0
   -0.1300   -7.1456    3.7137 C   0  0  0  0  0  0  0  0  0  0  0  0
   -0.1408   -8.6486    4.0507 C   0  0  0  0  0  0  0  0  0  0  0  0
    1.1716   -9.2667    4.5441 C   0  0  1  0  0  0  0  0  0  0  0  0
    1.9969   -9.5496    3.4306 O   0  0  0  0  0  0  0  0  0  0  0  0
    1.9353   -8.5186    5.6662 C   0  0  0  0  0  0  0  0  0  0  0  0
    1.9759   -6.9803    5.6623 C   0  0  0  0  0  0  0  0  0  0  0  0
    1.8105   -6.3272    6.8337 C   0  0  0  0  0  0  0  0  0  0  0  0
    1.8979   -4.8261    7.0526 C   0  0  1  0  0  0  0  0  0  0  0  0
    3.1248   -4.5792    7.7174 O   0  0  0  0  0  0  0  0  0  0  0  0
    1.7318   -3.9881    5.7423 C   0  0  2  0  0  0  0  0  0  0  0  0
    0.2196   -4.0515    5.4053 C   0  0  0  0  0  0  0  0  0  0  0  0
    2.2573   -2.4846    5.9585 C   0  0  2  0  0  0  0  0  0  0  0  0
    1.4774   -1.6933    7.0242 C   0  0  0  0  0  0  0  0  0  0  0  0
    1.8092   -1.7294    8.2049 O   0  0  0  0  0  0  0  0  0  0  0  0
    0.2568   -0.8623    6.6228 C   0  0  0  0  0  0  0  0  0  0  0  0
    0.0996   -0.3229    5.1489 C   0  0  2  0  0  0  0  0  0  0  0  0
   -1.3090   -0.8744    4.7277 C   0  0  0  0  0  0  0  0  0  0  0  0
    0.0137    1.3086    5.1284 C   0  0  1  0  0  0  0  0  0  0  0  0
    1.2679    1.9131    5.8318 C   0  0  0  0  0  0  0  0  0  0  0  0
   -1.2489    1.7763    5.9666 C   0  0  0  0  0  0  0  0  0  0  0  0
   -1.5200    3.2616    6.2723 C   0  0  0  0  0  0  0  0  0  0  0  0
   -0.7856    4.1762    5.8221 O   0  0  0  0  0  0  0  0  0  0  0  0
   -2.5140    3.4412    6.9995 O   0  0  0  0  0  0  0  0  0  0  0  0
   -2.6450    1.5258    1.3113 H   0  0  0  0  0  0  0  0  0  0  0  0
   -1.1167    0.5050    1.3910 H   0  0  0  0  0  0  0  0  0  0  0  0
   -2.6843    3.2526    4.1738 H   0  0  0  0  0  0  0  0  0  0  0  0
   -3.0932    3.2924    2.4625 H   0  0  0  0  0  0  0  0  0  0  0  0
   -1.6963    4.1979    3.0036 H   0  0  0  0  0  0  0  0  0  0  0  0
    0.3523    2.9413    3.7264 H   0  0  0  0  0  0  0  0  0  0  0  0
    1.0981    1.6293    1.7822 H   0  0  0  0  0  0  0  0  0  0  0  0
    2.1344    1.5491    3.1302 H   0  0  0  0  0  0  0  0  0  0  0  0
    0.0830   -0.6031    2.4142 H   0  0  0  0  0  0  0  0  0  0  0  0
    1.4448   -0.6548    0.8587 H   0  0  0  0  0  0  0  0  0  0  0  0
    0.7097   -1.9609    3.8808 H   0  0  0  0  0  0  0  0  0  0  0  0
    4.4594   -0.7561    5.4914 H   0  0  0  0  0  0  0  0  0  0  0  0
    3.1219    0.1300    6.0305 H   0  0  0  0  0  0  0  0  0  0  0  0
    3.6586    0.3048    4.3546 H   0  0  0  0  0  0  0  0  0  0  0  0
    3.5621   -1.8838    2.7944 H   0  0  0  0  0  0  0  0  0  0  0  0
    5.1329   -3.1480    3.4319 H   0  0  0  0  0  0  0  0  0  0  0  0
    1.7698   -3.5988    2.9027 H   0  0  0  0  0  0  0  0  0  0  0  0
    3.3290   -4.2855    2.6040 H   0  0  0  0  0  0  0  0  0  0  0  0
    3.5671   -4.6831    5.0885 H   0  0  0  0  0  0  0  0  0  0  0  0
    4.0074   -6.2973    2.9203 H   0  0  0  0  0  0  0  0  0  0  0  0
    3.6969   -7.8399    3.6523 H   0  0  0  0  0  0  0  0  0  0  0  0
    4.4727   -6.6090    4.5785 H   0  0  0  0  0  0  0  0  0  0  0  0
    0.9455   -5.5677    2.7912 H   0  0  0  0  0  0  0  0  0  0  0  0
    1.6316   -7.0952    2.4486 H   0  0  0  0  0  0  0  0  0  0  0  0
   -0.5599   -6.6155    4.5503 H   0  0  0  0  0  0  0  0  0  0  0  0
   -0.8490   -7.0006    2.9097 H   0  0  0  0  0  0  0  0  0  0  0  0
   -0.9081   -8.8190    4.8054 H   0  0  0  0  0  0  0  0  0  0  0  0
   -0.4812   -9.2047    3.1834 H   0  0  0  0  0  0  0  0  0  0  0  0
    0.9194  -10.2509    4.9353 H   0  0  0  0  0  0  0  0  0  0  0  0
    2.2408   -8.7304    3.0237 H   0  0  0  0  0  0  0  0  0  0  0  0
    1.4654   -8.8235    6.5996 H   0  0  0  0  0  0  0  0  0  0  0  0
    2.9521   -8.8944    5.7304 H   0  0  0  0  0  0  0  0  0  0  0  0
    1.6424   -6.9009    7.7368 H   0  0  0  0  0  0  0  0  0  0  0  0
    1.1034   -4.5710    7.7488 H   0  0  0  0  0  0  0  0  0  0  0  0
    3.1521   -5.1090    8.5034 H   0  0  0  0  0  0  0  0  0  0  0  0
   -0.3741   -3.3246    5.9487 H   0  0  0  0  0  0  0  0  0  0  0  0
   -0.2022   -4.9954    5.7212 H   0  0  0  0  0  0  0  0  0  0  0  0
    0.0193   -3.9450    4.3431 H   0  0  0  0  0  0  0  0  0  0  0  0
    3.2480   -2.6036    6.3983 H   0  0  0  0  0  0  0  0  0  0  0  0
   -0.6008   -1.4602    6.9116 H   0  0  0  0  0  0  0  0  0  0  0  0
    0.2328   -0.0441    7.3362 H   0  0  0  0  0  0  0  0  0  0  0  0
   -2.0579   -0.7639    5.5121 H   0  0  0  0  0  0  0  0  0  0  0  0
   -1.3079   -1.9317    4.4882 H   0  0  0  0  0  0  0  0  0  0  0  0
   -1.7046   -0.3752    3.8507 H   0  0  0  0  0  0  0  0  0  0  0  0
    1.4358    1.5257    6.8374 H   0  0  0  0  0  0  0  0  0  0  0  0
    1.2129    2.9932    5.9434 H   0  0  0  0  0  0  0  0  0  0  0  0
    2.1597    1.7877    5.2448 H   0  0  0  0  0  0  0  0  0  0  0  0
   -2.1471    1.4834    5.4542 H   0  0  0  0  0  0  0  0  0  0  0  0
   -1.2832    1.2540    6.9375 H   0  0  0  0  0  0  0  0  0  0  0  0
  1  2  2  0
  1 41  1  0
  1 42  1  0
  2  3  1  0
  2  4  1  0
  3 43  1  0
  3 44  1  0
  3 45  1  0
  4 35  1  0
  4  5  1  0
  4 46  1  1
  5  6  1  0
  5 47  1  0
  5 48  1  0
  6  7  1  0
  6  8  1  0
  6 49  1  6
  7 50  1  0
  8 33  1  0
  8  9  1  0
  8 51  1  6
  9 29  1  0
  9 10  1  1
  9 11  1  0
 10 52  1  0
 10 53  1  0
 10 54  1  0
 11 12  1  0
 11 13  1  0
 11 55  1  6
 12 56  1  0
 13 14  1  0
 13 57  1  0
 13 58  1  0
 14 27  1  0
 14 15  1  0
 14 59  1  1
 15 23  1  0
 15 16  1  6
 15 17  1  0
 16 60  1  0
 16 61  1  0
 16 62  1  0
 17 18  1  0
 17 63  1  0
 17 64  1  0
 18 19  1  0
 18 65  1  0
 18 66  1  0
 19 20  1  0
 19 67  1  0
 19 68  1  0
 20 21  1  0
 20 22  1  0
 20 69  1  1
 21 70  1  0
 22 23  1  0
 22 71  1  0
 22 72  1  0
 23 24  2  0
 24 25  1  0
 24 73  1  0
 25 26  1  0
 25 27  1  0
 25 74  1  1
 26 75  1  0
 27 28  1  6
 27 29  1  0
 28 76  1  0
 28 77  1  0
 28 78  1  0
 29 30  1  0
 29 79  1  1
 30 31  2  0
 30 32  1  0
 32 33  1  0
 32 80  1  0
 32 81  1  0
 33 34  1  6
 33 35  1  0
 34 82  1  0
 34 83  1  0
 34 84  1  0
 35 36  1  1
 35 37  1  0
 36 85  1  0
 36 86  1  0
 36 87  1  0
 37 38  1  0
 37 88  1  0
 37 89  1  0
 38 39  2  0
 38 40  1  0
M  CHG  1  40  -1
M  END
>  <i_m_ct_stereo_status>  (270) 
1

>  <s_m_source_file>  (270) 
/var/tmp/pbs.5076255.sched01/tmprh8juyh8/78tr4t3sa2.sdf

>  <i_m_source_file_index>  (270) 
37

>  <i_lp_mmshare_version>  (270) 
48012

>  <i_f3d_flags>  (270) 
0

>  <s_epik_input>  (270) 
W09IXVtDQEBIXTFbQ0gyXVtDQEBIXShDKD1bQ0gyXSlbQ0gzXSlbQ0BAXShbQ0gzXSkoW0NIMl1DKD1PKVtPSF0pW0NAQF0oW0NIM10pKFtDQEBIXTFbQ0BdMjNbQ0gzXSlbQ0gyXUMoPU8pW0NASF0zW0NAQF00KFtDSDNdKVtDQEhdKFtDSDJdW0NAQEhdMltPSF0pW0NAQF01KFtDSDNdKUMoPVtDSF1bQ0BIXTRbT0hdKVtDSDJdW0NASF0oW09IXSlbQ0gyXVtDSDJdW0NIMl01

>  <s_epik_cmdline>  (270) 
J2VwaWtfcHl0aG9uJywgJy1waHQnLCAnMi4wJywgJy1waCcsICc3LjAnLCAnLXRuJywgJzgnLCAnLW1hJywgJzIwMCcsICctaW1hZScsICc8aW5maWxlLm1hZT4nLCAnLW9tYWUnLCAnPG91dGZpbGUubWFlPic=

>  <r_lp_tautomer_probability>  (270) 
1

>  <r_epik_Ionization_Penalty>  (270) 
0.00381447

>  <r_epik_Ionization_Penalty_Charging>  (270) 
0.00381244

>  <r_epik_Ionization_Penalty_Neutral>  (270) 
2.0322e-06

>  <r_epik_State_Penalty>  (270) 
0.00272077

>  <r_epik_Charging_Adjusted_Penalty>  (270) 
0.00653321

>  <i_epik_Tot_Q>  (270) 
-1

>  <i_epik_Tot_abs_Q>  (270) 
1

>  <s_lp_Force_Field>  (270) 
OPLS3e

>  <r_lp_Energy>  (270) 
106.504

>  <b_lp_Chiralities_Consistent>  (270) 
1

>  <s_lp_Variant>  (270) 
91:0-1

>  <s_i_glide_gridfile>  (270) 
pfpi4k_grid

>  <i_i_glide_lignum>  (270) 
37

>  <i_i_glide_rotatable_bonds>  (270) 
7

>  <r_i_docking_score>  (270) 
-2.19288

>  <r_i_glide_ligand_efficiency>  (270) 
-0.0548219

>  <r_i_glide_ligand_efficiency_sa>  (270) 
-0.187488

>  <r_i_glide_ligand_efficiency_ln>  (270) 
-0.467676

>  <r_i_glide_gscore>  (270) 
-2.19288

>  <r_i_glide_lipo>  (270) 
-0.000821776

>  <r_i_glide_hbond>  (270) 
-0.16

>  <r_i_glide_metal>  (270) 
-0

>  <r_i_glide_rewards>  (270) 
-0.050109

>  <r_i_glide_evdw>  (270) 
-30.6654

>  <r_i_glide_ecoul>  (270) 
-3.34558

>  <r_i_glide_erotb>  (270) 
0.0564499

>  <r_i_glide_esite>  (270) 
-0.00328931

>  <r_i_glide_emodel>  (270) 
-39.0746

>  <r_i_glide_energy>  (270) 
-34.011

>  <r_i_glide_einternal>  (270) 
2.6484

>  <r_i_glide_intrahb_reward>  (270) 
-0

>  <i_i_glide_confnum>  (270) 
1

>  <i_i_glide_posenum>  (270) 
31

>  <r_i_glide_eff_state_penalty>  (270) 
0

>  <ligand_id>  (270) 
91

>  <original_smiles>  (270) 
C=C(C)C1CC(O)C2C3(C)C(O)CC4C5(C)CCCC(O)CC5=CC(O)C4(C)C3C(=O)CC2(C)C1(C)CC(=O)O

>  <smiles>  (270) 
[H]OC1([H])C([H])=C2C([H])([H])C([H])(O[H])C([H])([H])C([H])([H])C([H])([H])C2(C([H])([H])[H])C2([H])C([H])([H])C([H])(O[H])C3(C([H])([H])[H])C([H])(C(=O)C([H])([H])C4(C([H])([H])[H])C3([H])C([H])(O[H])C([H])([H])C([H])(C(=C([H])[H])C([H])([H])[H])C4(C([H])([H])[H])C([H])([H])C(=O)[O-])C12C([H])([H])[H]

$$$$
93:0:0
     RDKit          3D

 55 59  0  0  1  0  0  0  0  0999 V2000
    6.2659   -1.3333    1.0883 C   0  0  0  0  0  0  0  0  0  0  0  0
    5.0859   -1.9146    0.2676 C   0  0  2  0  0  0  0  0  0  0  0  0
    3.8187   -1.0657    0.5427 C   0  0  0  0  0  0  0  0  0  0  0  0
    2.7351   -1.7710    1.3626 C   0  0  0  0  0  0  0  0  0  0  0  0
    3.3236   -2.6227    2.5222 C   0  0  1  0  0  0  0  0  0  0  0  0
    2.2911   -3.0069    3.6748 C   0  0  2  0  0  0  0  0  0  0  0  0
    1.0514   -2.0700    3.6819 C   0  0  0  0  0  0  0  0  0  0  0  0
    2.9796   -2.8350    5.0649 C   0  0  0  0  0  0  0  0  0  0  0  0
    2.1522   -3.3284    6.2746 C   0  0  0  0  0  0  0  0  0  0  0  0
    1.5688   -4.7167    6.0316 C   0  0  0  0  0  0  0  0  0  0  0  0
    1.6202   -5.5931    6.8937 O   0  0  0  0  0  0  0  0  0  0  0  0
    0.8827   -4.9455    4.6909 C   0  0  0  0  0  0  0  0  0  0  0  0
    1.7928   -4.4660    3.5632 C   0  0  0  0  0  0  0  0  0  0  0  0
    2.1582   -5.3174    2.5871 C   0  0  0  0  0  0  0  0  0  0  0  0
    3.1248   -4.9384    1.5540 C   0  0  0  0  0  0  0  0  0  0  0  0
    3.1387   -5.5134    0.4674 O   0  0  0  0  0  0  0  0  0  0  0  0
    4.1400   -3.8215    1.9061 C   0  0  2  0  0  0  0  0  0  0  0  0
    5.1573   -4.4109    2.9048 C   0  0  0  0  0  0  0  0  0  0  0  0
    4.9398   -3.3793    0.6544 C   0  0  0  0  0  0  0  0  0  0  0  0
    5.6179   -4.1532   -0.2035 C   0  0  0  0  0  0  0  0  0  0  0  0
    6.2541   -3.3749   -1.3258 C   0  0  0  0  0  0  0  0  0  0  0  0
    5.5358   -2.0133   -1.2305 C   0  0  1  0  0  0  0  0  0  0  0  0
    4.4132   -1.9426   -2.2515 C   0  0  0  0  0  0  0  0  0  0  0  0
    3.4342   -2.9457   -2.5127 C   0  0  0  0  0  0  0  0  0  0  0  0
    2.6370   -2.4741   -3.5121 C   0  0  0  0  0  0  0  0  0  0  0  0
    3.0419   -1.2355   -3.9008 O   0  0  0  0  0  0  0  0  0  0  0  0
    4.1106   -0.9269   -3.1196 C   0  0  0  0  0  0  0  0  0  0  0  0
    6.5033   -0.3144    0.7780 H   0  0  0  0  0  0  0  0  0  0  0  0
    7.1724   -1.9298    0.9625 H   0  0  0  0  0  0  0  0  0  0  0  0
    6.0523   -1.3148    2.1595 H   0  0  0  0  0  0  0  0  0  0  0  0
    4.1183   -0.1719    1.0902 H   0  0  0  0  0  0  0  0  0  0  0  0
    3.3640   -0.6684   -0.3604 H   0  0  0  0  0  0  0  0  0  0  0  0
    2.0891   -0.9676    1.7107 H   0  0  0  0  0  0  0  0  0  0  0  0
    2.1310   -2.3906    0.7016 H   0  0  0  0  0  0  0  0  0  0  0  0
    4.0475   -1.9648    3.0023 H   0  0  0  0  0  0  0  0  0  0  0  0
    1.3390   -1.0207    3.7761 H   0  0  0  0  0  0  0  0  0  0  0  0
    0.3612   -2.2690    4.5012 H   0  0  0  0  0  0  0  0  0  0  0  0
    0.4742   -2.1863    2.7672 H   0  0  0  0  0  0  0  0  0  0  0  0
    3.9296   -3.3620    5.0896 H   0  0  0  0  0  0  0  0  0  0  0  0
    3.2357   -1.7845    5.2233 H   0  0  0  0  0  0  0  0  0  0  0  0
    2.7684   -3.3413    7.1762 H   0  0  0  0  0  0  0  0  0  0  0  0
    1.3247   -2.6492    6.4791 H   0  0  0  0  0  0  0  0  0  0  0  0
    0.6607   -6.0065    4.5763 H   0  0  0  0  0  0  0  0  0  0  0  0
   -0.0660   -4.4118    4.6788 H   0  0  0  0  0  0  0  0  0  0  0  0
    1.7747   -6.3319    2.5713 H   0  0  0  0  0  0  0  0  0  0  0  0
    5.7920   -5.1632    2.4275 H   0  0  0  0  0  0  0  0  0  0  0  0
    4.6830   -4.9082    3.7506 H   0  0  0  0  0  0  0  0  0  0  0  0
    5.8138   -3.6309    3.2935 H   0  0  0  0  0  0  0  0  0  0  0  0
    5.7186   -5.2242   -0.1466 H   0  0  0  0  0  0  0  0  0  0  0  0
    7.3177   -3.2655   -1.1064 H   0  0  0  0  0  0  0  0  0  0  0  0
    6.1608   -3.8487   -2.3050 H   0  0  0  0  0  0  0  0  0  0  0  0
    6.2139   -1.1984   -1.4756 H   0  0  0  0  0  0  0  0  0  0  0  0
    3.3251   -3.8995   -2.0211 H   0  0  0  0  0  0  0  0  0  0  0  0
    1.7701   -2.8702   -4.0224 H   0  0  0  0  0  0  0  0  0  0  0  0
    4.5253    0.0526   -3.2995 H   0  0  0  0  0  0  0  0  0  0  0  0
  2  1  1  1
  1 28  1  0
  1 29  1  0
  1 30  1  0
  2 19  1  0
  2 22  1  0
  2  3  1  0
  3  4  1  0
  3 31  1  0
  3 32  1  0
  4  5  1  0
  4 33  1  0
  4 34  1  0
  5 17  1  0
  5  6  1  0
  5 35  1  1
  6 13  1  0
  6  7  1  1
  6  8  1  0
  7 36  1  0
  7 37  1  0
  7 38  1  0
  8  9  1  0
  8 39  1  0
  8 40  1  0
  9 10  1  0
  9 41  1  0
  9 42  1  0
 10 11  2  0
 10 12  1  0
 12 13  1  0
 12 43  1  0
 12 44  1  0
 13 14  2  0
 14 15  1  0
 14 45  1  0
 15 16  2  0
 15 17  1  0
 17 18  1  1
 17 19  1  0
 18 46  1  0
 18 47  1  0
 18 48  1  0
 19 20  2  0
 20 21  1  0
 20 49  1  0
 21 22  1  0
 21 50  1  0
 21 51  1  0
 22 23  1  0
 22 52  1  6
 23 27  2  0
 23 24  1  0
 24 25  2  0
 24 53  1  0
 25 26  1  0
 25 54  1  0
 26 27  1  0
 27 55  1  0
M  END
>  <i_m_ct_stereo_status>  (271) 
1

>  <s_m_source_file>  (271) 
/var/tmp/pbs.5076255.sched01/tmprh8juyh8/78tr4t3sa2.sdf

>  <i_m_source_file_index>  (271) 
39

>  <i_lp_mmshare_version>  (271) 
48012

>  <i_f3d_flags>  (271) 
0

>  <s_epik_input>  (271) 
W2NIXTFvW2NIXVtjSF1jMVtDQEBIXTJbQ0gyXVtDSF09QyhbQ0BAXTIzW0NIM10pW0NAQF00KFtDSDNdKVtDQEBIXShbQ0gyXVtDSDJdMylbQ0BAXTUoW0NIM10pQyg9W0NIXUM0PU8pW0NIMl1DKD1PKVtDSDJdW0NIMl01

>  <s_epik_cmdline>  (271) 
J2VwaWtfcHl0aG9uJywgJy1waHQnLCAnMi4wJywgJy1waCcsICc3LjAnLCAnLXRuJywgJzgnLCAnLW1hJywgJzIwMCcsICctaW1hZScsICc8aW5maWxlLm1hZT4nLCAnLW9tYWUnLCAnPG91dGZpbGUubWFlPic=

>  <r_lp_tautomer_probability>  (271) 
1

>  <r_epik_Ionization_Penalty>  (271) 
3.60299e-12

>  <r_epik_Ionization_Penalty_Charging>  (271) 
0

>  <r_epik_Ionization_Penalty_Neutral>  (271) 
3.60299e-12

>  <r_epik_State_Penalty>  (271) 
-0

>  <r_epik_Charging_Adjusted_Penalty>  (271) 
0

>  <i_epik_Tot_Q>  (271) 
0

>  <i_epik_Tot_abs_Q>  (271) 
0

>  <s_lp_Force_Field>  (271) 
OPLS3e

>  <r_lp_Energy>  (271) 
52.6899

>  <b_lp_Chiralities_Consistent>  (271) 
1

>  <s_lp_Variant>  (271) 
93:0-1

>  <s_i_glide_gridfile>  (271) 
pfpi4k_grid

>  <i_i_glide_lignum>  (271) 
39

>  <i_i_glide_rotatable_bonds>  (271) 
1

>  <r_i_docking_score>  (271) 
-3.26264

>  <r_i_glide_ligand_efficiency>  (271) 
-0.120838

>  <r_i_glide_ligand_efficiency_sa>  (271) 
-0.362515

>  <r_i_glide_ligand_efficiency_ln>  (271) 
-0.759488

>  <r_i_glide_gscore>  (271) 
-3.26264

>  <r_i_glide_lipo>  (271) 
-0.828683

>  <r_i_glide_hbond>  (271) 
0

>  <r_i_glide_metal>  (271) 
-0

>  <r_i_glide_rewards>  (271) 
-0.926441

>  <r_i_glide_evdw>  (271) 
-31.0906

>  <r_i_glide_ecoul>  (271) 
-0.651353

>  <r_i_glide_erotb>  (271) 
0.144721

>  <r_i_glide_esite>  (271) 
0

>  <r_i_glide_emodel>  (271) 
-37.3191

>  <r_i_glide_energy>  (271) 
-31.742

>  <r_i_glide_einternal>  (271) 
0.122702

>  <r_i_glide_intrahb_reward>  (271) 
-0

>  <i_i_glide_confnum>  (271) 
2

>  <i_i_glide_posenum>  (271) 
36

>  <r_i_glide_eff_state_penalty>  (271) 
0

>  <ligand_id>  (271) 
93

>  <original_smiles>  (271) 
CC12CCC3C4(C)CCC(=O)CC4=CC(=O)C3(C)C1=CCC2c1ccoc1

>  <smiles>  (271) 
[H]C1=C2C([H])([H])C(=O)C([H])([H])C([H])([H])C2(C([H])([H])[H])C2([H])C([H])([H])C([H])([H])C3(C([H])([H])[H])C(=C([H])C([H])([H])C3([H])c3c([H])oc([H])c3[H])C2(C([H])([H])[H])C1=O

$$$$
93:0:1
     RDKit          3D

 55 59  0  0  1  0  0  0  0  0999 V2000
    6.5485   -1.3960    0.8691 C   0  0  0  0  0  0  0  0  0  0  0  0
    5.2601   -1.8251    0.1238 C   0  0  2  0  0  0  0  0  0  0  0  0
    4.1495   -0.7937    0.4255 C   0  0  0  0  0  0  0  0  0  0  0  0
    3.0035   -1.3123    1.2934 C   0  0  0  0  0  0  0  0  0  0  0  0
    3.5090   -2.2049    2.4584 C   0  0  1  0  0  0  0  0  0  0  0  0
    2.4781   -2.4031    3.6558 C   0  0  2  0  0  0  0  0  0  0  0  0
    1.3786   -1.3031    3.6650 C   0  0  0  0  0  0  0  0  0  0  0  0
    3.2400   -2.2870    5.0131 C   0  0  0  0  0  0  0  0  0  0  0  0
    2.4032   -2.6241    6.2695 C   0  0  0  0  0  0  0  0  0  0  0  0
    1.6208   -3.9217    6.0959 C   0  0  0  0  0  0  0  0  0  0  0  0
    1.5816   -4.7721    6.9850 O   0  0  0  0  0  0  0  0  0  0  0  0
    0.8559   -4.0900    4.7904 C   0  0  0  0  0  0  0  0  0  0  0  0
    1.7813   -3.7804    3.6176 C   0  0  0  0  0  0  0  0  0  0  0  0
    1.9867   -4.7080    2.6646 C   0  0  0  0  0  0  0  0  0  0  0  0
    2.9471   -4.4990    1.5761 C   0  0  0  0  0  0  0  0  0  0  0  0
    2.8270   -5.0937    0.5046 O   0  0  0  0  0  0  0  0  0  0  0  0
    4.1209   -3.5264    1.8539 C   0  0  2  0  0  0  0  0  0  0  0  0
    5.0806   -4.2239    2.8362 C   0  0  0  0  0  0  0  0  0  0  0  0
    4.9263   -3.2416    0.5621 C   0  0  0  0  0  0  0  0  0  0  0  0
    5.4555   -4.1256   -0.2957 C   0  0  0  0  0  0  0  0  0  0  0  0
    6.1491   -3.4660   -1.4593 C   0  0  0  0  0  0  0  0  0  0  0  0
    5.6118   -2.0363   -1.3879 C   0  0  1  0  0  0  0  0  0  0  0  0
    4.4762   -1.8334   -2.3754 C   0  0  0  0  0  0  0  0  0  0  0  0
    4.1319   -0.6440   -3.0777 C   0  0  0  0  0  0  0  0  0  0  0  0
    3.0432   -0.9419   -3.8439 C   0  0  0  0  0  0  0  0  0  0  0  0
    2.6856   -2.2418   -3.6907 O   0  0  0  0  0  0  0  0  0  0  0  0
    3.5567   -2.7630   -2.7924 C   0  0  0  0  0  0  0  0  0  0  0  0
    6.9086   -0.4336    0.5003 H   0  0  0  0  0  0  0  0  0  0  0  0
    7.3581   -2.1182    0.7374 H   0  0  0  0  0  0  0  0  0  0  0  0
    6.3835   -1.3028    1.9450 H   0  0  0  0  0  0  0  0  0  0  0  0
    4.5950    0.0650    0.9302 H   0  0  0  0  0  0  0  0  0  0  0  0
    3.7302   -0.3637   -0.4736 H   0  0  0  0  0  0  0  0  0  0  0  0
    2.4897   -0.4145    1.6322 H   0  0  0  0  0  0  0  0  0  0  0  0
    2.2910   -1.8629    0.6790 H   0  0  0  0  0  0  0  0  0  0  0  0
    4.3374   -1.6426    2.8889 H   0  0  0  0  0  0  0  0  0  0  0  0
    1.8145   -0.3027    3.7138 H   0  0  0  0  0  0  0  0  0  0  0  0
    0.7056   -1.3745    4.5192 H   0  0  0  0  0  0  0  0  0  0  0  0
    0.7462   -1.3605    2.7764 H   0  0  0  0  0  0  0  0  0  0  0  0
    4.1072   -2.9417    5.0221 H   0  0  0  0  0  0  0  0  0  0  0  0
    3.6482   -1.2797    5.1257 H   0  0  0  0  0  0  0  0  0  0  0  0
    3.0482   -2.6974    7.1477 H   0  0  0  0  0  0  0  0  0  0  0  0
    1.6886   -1.8285    6.4795 H   0  0  0  0  0  0  0  0  0  0  0  0
    0.4826   -5.1111    4.7201 H   0  0  0  0  0  0  0  0  0  0  0  0
   -0.0078   -3.4285    4.7899 H   0  0  0  0  0  0  0  0  0  0  0  0
    1.4655   -5.6574    2.6978 H   0  0  0  0  0  0  0  0  0  0  0  0
    5.5924   -5.0668    2.3616 H   0  0  0  0  0  0  0  0  0  0  0  0
    4.5749   -4.6267    3.7133 H   0  0  0  0  0  0  0  0  0  0  0  0
    5.8406   -3.5223    3.1756 H   0  0  0  0  0  0  0  0  0  0  0  0
    5.4070   -5.1987   -0.2096 H   0  0  0  0  0  0  0  0  0  0  0  0
    7.2252   -3.4804   -1.2789 H   0  0  0  0  0  0  0  0  0  0  0  0
    5.9686   -3.9489   -2.4215 H   0  0  0  0  0  0  0  0  0  0  0  0
    6.3863   -1.3477   -1.7090 H   0  0  0  0  0  0  0  0  0  0  0  0
    4.5956    0.3265   -3.0035 H   0  0  0  0  0  0  0  0  0  0  0  0
    2.4154   -0.3728   -4.5100 H   0  0  0  0  0  0  0  0  0  0  0  0
    3.3900   -3.8062   -2.5566 H   0  0  0  0  0  0  0  0  0  0  0  0
  2  1  1  1
  1 28  1  0
  1 29  1  0
  1 30  1  0
  2 19  1  0
  2 22  1  0
  2  3  1  0
  3  4  1  0
  3 31  1  0
  3 32  1  0
  4  5  1  0
  4 33  1  0
  4 34  1  0
  5 17  1  0
  5  6  1  0
  5 35  1  1
  6 13  1  0
  6  7  1  1
  6  8  1  0
  7 36  1  0
  7 37  1  0
  7 38  1  0
  8  9  1  0
  8 39  1  0
  8 40  1  0
  9 10  1  0
  9 41  1  0
  9 42  1  0
 10 11  2  0
 10 12  1  0
 12 13  1  0
 12 43  1  0
 12 44  1  0
 13 14  2  0
 14 15  1  0
 14 45  1  0
 15 16  2  0
 15 17  1  0
 17 18  1  1
 17 19  1  0
 18 46  1  0
 18 47  1  0
 18 48  1  0
 19 20  2  0
 20 21  1  0
 20 49  1  0
 21 22  1  0
 21 50  1  0
 21 51  1  0
 22 23  1  0
 22 52  1  6
 23 27  2  0
 23 24  1  0
 24 25  2  0
 24 53  1  0
 25 26  1  0
 25 54  1  0
 26 27  1  0
 27 55  1  0
M  END
>  <i_m_ct_stereo_status>  (272) 
1

>  <s_m_source_file>  (272) 
/var/tmp/pbs.5076255.sched01/tmprh8juyh8/78tr4t3sa2.sdf

>  <i_m_source_file_index>  (272) 
39

>  <i_lp_mmshare_version>  (272) 
48012

>  <i_f3d_flags>  (272) 
0

>  <s_epik_input>  (272) 
W2NIXTFvW2NIXVtjSF1jMVtDQEBIXTJbQ0gyXVtDSF09QyhbQ0BAXTIzW0NIM10pW0NAQF00KFtDSDNdKVtDQEBIXShbQ0gyXVtDSDJdMylbQ0BAXTUoW0NIM10pQyg9W0NIXUM0PU8pW0NIMl1DKD1PKVtDSDJdW0NIMl01

>  <s_epik_cmdline>  (272) 
J2VwaWtfcHl0aG9uJywgJy1waHQnLCAnMi4wJywgJy1waCcsICc3LjAnLCAnLXRuJywgJzgnLCAnLW1hJywgJzIwMCcsICctaW1hZScsICc8aW5maWxlLm1hZT4nLCAnLW9tYWUnLCAnPG91dGZpbGUubWFlPic=

>  <r_lp_tautomer_probability>  (272) 
1

>  <r_epik_Ionization_Penalty>  (272) 
3.60299e-12

>  <r_epik_Ionization_Penalty_Charging>  (272) 
0

>  <r_epik_Ionization_Penalty_Neutral>  (272) 
3.60299e-12

>  <r_epik_State_Penalty>  (272) 
-0

>  <r_epik_Charging_Adjusted_Penalty>  (272) 
0

>  <i_epik_Tot_Q>  (272) 
0

>  <i_epik_Tot_abs_Q>  (272) 
0

>  <s_lp_Force_Field>  (272) 
OPLS3e

>  <r_lp_Energy>  (272) 
52.6899

>  <b_lp_Chiralities_Consistent>  (272) 
1

>  <s_lp_Variant>  (272) 
93:0-1

>  <s_i_glide_gridfile>  (272) 
pfpi4k_grid

>  <i_i_glide_lignum>  (272) 
39

>  <i_i_glide_rotatable_bonds>  (272) 
1

>  <r_i_docking_score>  (272) 
-3.11957

>  <r_i_glide_ligand_efficiency>  (272) 
-0.11554

>  <r_i_glide_ligand_efficiency_sa>  (272) 
-0.346619

>  <r_i_glide_ligand_efficiency_ln>  (272) 
-0.726185

>  <r_i_glide_gscore>  (272) 
-3.11957

>  <r_i_glide_lipo>  (272) 
-0.741344

>  <r_i_glide_hbond>  (272) 
0

>  <r_i_glide_metal>  (272) 
-0

>  <r_i_glide_rewards>  (272) 
-0.924018

>  <r_i_glide_evdw>  (272) 
-30.2664

>  <r_i_glide_ecoul>  (272) 
-0.537385

>  <r_i_glide_erotb>  (272) 
0.144721

>  <r_i_glide_esite>  (272) 
-0.00500458

>  <r_i_glide_emodel>  (272) 
-35.8712

>  <r_i_glide_energy>  (272) 
-30.8037

>  <r_i_glide_einternal>  (272) 
0.461741

>  <r_i_glide_intrahb_reward>  (272) 
-0

>  <i_i_glide_confnum>  (272) 
2

>  <i_i_glide_posenum>  (272) 
2

>  <r_i_glide_eff_state_penalty>  (272) 
0

>  <ligand_id>  (272) 
93

>  <original_smiles>  (272) 
CC12CCC3C4(C)CCC(=O)CC4=CC(=O)C3(C)C1=CCC2c1ccoc1

>  <smiles>  (272) 
[H]C1=C2C([H])([H])C(=O)C([H])([H])C([H])([H])C2(C([H])([H])[H])C2([H])C([H])([H])C([H])([H])C3(C([H])([H])[H])C(=C([H])C([H])([H])C3([H])c3c([H])oc([H])c3[H])C2(C([H])([H])[H])C1=O

$$$$
93:0:2
     RDKit          3D

 55 59  0  0  1  0  0  0  0  0999 V2000
    4.1039   -8.3655    3.0875 C   0  0  0  0  0  0  0  0  0  0  0  0
    2.7074   -7.6895    3.0965 C   0  0  2  0  0  0  0  0  0  0  0  0
    2.2547   -7.4689    1.6315 C   0  0  0  0  0  0  0  0  0  0  0  0
    2.2282   -6.0105    1.1689 C   0  0  0  0  0  0  0  0  0  0  0  0
    3.4442   -5.2018    1.6988 C   0  0  1  0  0  0  0  0  0  0  0  0
    3.7364   -3.8418    0.9236 C   0  0  2  0  0  0  0  0  0  0  0  0
    3.0914   -3.8120   -0.4881 C   0  0  0  0  0  0  0  0  0  0  0  0
    5.2782   -3.7042    0.7024 C   0  0  0  0  0  0  0  0  0  0  0  0
    5.7298   -2.3581    0.0964 C   0  0  0  0  0  0  0  0  0  0  0  0
    5.0827   -1.1873    0.8210 C   0  0  0  0  0  0  0  0  0  0  0  0
    5.7637   -0.2387    1.1938 O   0  0  0  0  0  0  0  0  0  0  0  0
    3.5805   -1.2517    1.0596 C   0  0  0  0  0  0  0  0  0  0  0  0
    3.2391   -2.5975    1.6909 C   0  0  0  0  0  0  0  0  0  0  0  0
    2.5973   -2.6434    2.8761 C   0  0  0  0  0  0  0  0  0  0  0  0
    2.3564   -3.9137    3.5696 C   0  0  0  0  0  0  0  0  0  0  0  0
    1.4266   -4.0319    4.3707 O   0  0  0  0  0  0  0  0  0  0  0  0
    3.3305   -5.0823    3.2667 C   0  0  2  0  0  0  0  0  0  0  0  0
    4.6882   -4.7609    3.9273 C   0  0  0  0  0  0  0  0  0  0  0  0
    2.8224   -6.4018    3.8980 C   0  0  0  0  0  0  0  0  0  0  0  0
    2.4634   -6.6123    5.1745 C   0  0  0  0  0  0  0  0  0  0  0  0
    1.9877   -8.0179    5.4258 C   0  0  0  0  0  0  0  0  0  0  0  0
    1.7480   -8.5428    3.9947 C   0  0  1  0  0  0  0  0  0  0  0  0
    0.2776   -8.4487    3.6267 C   0  0  0  0  0  0  0  0  0  0  0  0
   -0.4919   -9.3779    2.8701 C   0  0  0  0  0  0  0  0  0  0  0  0
   -1.7572   -8.8680    2.7953 C   0  0  0  0  0  0  0  0  0  0  0  0
   -1.8427   -7.6841    3.4563 O   0  0  0  0  0  0  0  0  0  0  0  0
   -0.6035   -7.4551    3.9636 C   0  0  0  0  0  0  0  0  0  0  0  0
    4.0677   -9.3517    2.6222 H   0  0  0  0  0  0  0  0  0  0  0  0
    4.4833   -8.4967    4.1029 H   0  0  0  0  0  0  0  0  0  0  0  0
    4.8421   -7.7680    2.5497 H   0  0  0  0  0  0  0  0  0  0  0  0
    2.9542   -8.0016    0.9880 H   0  0  0  0  0  0  0  0  0  0  0  0
    1.2992   -7.9261    1.3966 H   0  0  0  0  0  0  0  0  0  0  0  0
    2.2050   -6.0603    0.0837 H   0  0  0  0  0  0  0  0  0  0  0  0
    1.2957   -5.5474    1.4875 H   0  0  0  0  0  0  0  0  0  0  0  0
    4.3093   -5.8315    1.4900 H   0  0  0  0  0  0  0  0  0  0  0  0
    3.4376   -4.6552   -1.0847 H   0  0  0  0  0  0  0  0  0  0  0  0
    3.3393   -2.9175   -1.0610 H   0  0  0  0  0  0  0  0  0  0  0  0
    2.0030   -3.8363   -0.4302 H   0  0  0  0  0  0  0  0  0  0  0  0
    5.8169   -3.8309    1.6399 H   0  0  0  0  0  0  0  0  0  0  0  0
    5.6391   -4.5098    0.0575 H   0  0  0  0  0  0  0  0  0  0  0  0
    6.8145   -2.2633    0.1613 H   0  0  0  0  0  0  0  0  0  0  0  0
    5.4713   -2.2916   -0.9605 H   0  0  0  0  0  0  0  0  0  0  0  0
    3.2854   -0.4369    1.7177 H   0  0  0  0  0  0  0  0  0  0  0  0
    3.0509   -1.1063    0.1196 H   0  0  0  0  0  0  0  0  0  0  0  0
    2.2765   -1.7303    3.3603 H   0  0  0  0  0  0  0  0  0  0  0  0
    4.6098   -4.7976    5.0166 H   0  0  0  0  0  0  0  0  0  0  0  0
    5.0544   -3.7641    3.6834 H   0  0  0  0  0  0  0  0  0  0  0  0
    5.4476   -5.4878    3.6366 H   0  0  0  0  0  0  0  0  0  0  0  0
    2.4919   -5.8836    5.9655 H   0  0  0  0  0  0  0  0  0  0  0  0
    2.7965   -8.5764    5.8997 H   0  0  0  0  0  0  0  0  0  0  0  0
    1.1104   -8.0918    6.0705 H   0  0  0  0  0  0  0  0  0  0  0  0
    2.0018   -9.6010    3.9277 H   0  0  0  0  0  0  0  0  0  0  0  0
   -0.1694  -10.3032    2.4172 H   0  0  0  0  0  0  0  0  0  0  0  0
   -2.6650   -9.2148    2.3346 H   0  0  0  0  0  0  0  0  0  0  0  0
   -0.5113   -6.5435    4.5358 H   0  0  0  0  0  0  0  0  0  0  0  0
  2  1  1  6
  1 28  1  0
  1 29  1  0
  1 30  1  0
  2 19  1  0
  2 22  1  0
  2  3  1  0
  3  4  1  0
  3 31  1  0
  3 32  1  0
  4  5  1  0
  4 33  1  0
  4 34  1  0
  5 17  1  0
  5  6  1  0
  5 35  1  1
  6 13  1  0
  6  7  1  6
  6  8  1  0
  7 36  1  0
  7 37  1  0
  7 38  1  0
  8  9  1  0
  8 39  1  0
  8 40  1  0
  9 10  1  0
  9 41  1  0
  9 42  1  0
 10 11  2  0
 10 12  1  0
 12 13  1  0
 12 43  1  0
 12 44  1  0
 13 14  2  0
 14 15  1  0
 14 45  1  0
 15 16  2  0
 15 17  1  0
 17 18  1  1
 17 19  1  0
 18 46  1  0
 18 47  1  0
 18 48  1  0
 19 20  2  0
 20 21  1  0
 20 49  1  0
 21 22  1  0
 21 50  1  0
 21 51  1  0
 22 23  1  0
 22 52  1  1
 23 27  2  0
 23 24  1  0
 24 25  2  0
 24 53  1  0
 25 26  1  0
 25 54  1  0
 26 27  1  0
 27 55  1  0
M  END
>  <i_m_ct_stereo_status>  (273) 
1

>  <s_m_source_file>  (273) 
/var/tmp/pbs.5076255.sched01/tmprh8juyh8/78tr4t3sa2.sdf

>  <i_m_source_file_index>  (273) 
39

>  <i_lp_mmshare_version>  (273) 
48012

>  <i_f3d_flags>  (273) 
0

>  <s_epik_input>  (273) 
W2NIXTFvW2NIXVtjSF1jMVtDQEBIXTJbQ0gyXVtDSF09QyhbQ0BAXTIzW0NIM10pW0NAQF00KFtDSDNdKVtDQEBIXShbQ0gyXVtDSDJdMylbQ0BAXTUoW0NIM10pQyg9W0NIXUM0PU8pW0NIMl1DKD1PKVtDSDJdW0NIMl01

>  <s_epik_cmdline>  (273) 
J2VwaWtfcHl0aG9uJywgJy1waHQnLCAnMi4wJywgJy1waCcsICc3LjAnLCAnLXRuJywgJzgnLCAnLW1hJywgJzIwMCcsICctaW1hZScsICc8aW5maWxlLm1hZT4nLCAnLW9tYWUnLCAnPG91dGZpbGUubWFlPic=

>  <r_lp_tautomer_probability>  (273) 
1

>  <r_epik_Ionization_Penalty>  (273) 
3.60299e-12

>  <r_epik_Ionization_Penalty_Charging>  (273) 
0

>  <r_epik_Ionization_Penalty_Neutral>  (273) 
3.60299e-12

>  <r_epik_State_Penalty>  (273) 
-0

>  <r_epik_Charging_Adjusted_Penalty>  (273) 
0

>  <i_epik_Tot_Q>  (273) 
0

>  <i_epik_Tot_abs_Q>  (273) 
0

>  <s_lp_Force_Field>  (273) 
OPLS3e

>  <r_lp_Energy>  (273) 
52.6899

>  <b_lp_Chiralities_Consistent>  (273) 
1

>  <s_lp_Variant>  (273) 
93:0-1

>  <s_i_glide_gridfile>  (273) 
pfpi4k_grid

>  <i_i_glide_lignum>  (273) 
39

>  <i_i_glide_rotatable_bonds>  (273) 
1

>  <r_i_docking_score>  (273) 
-2.68157

>  <r_i_glide_ligand_efficiency>  (273) 
-0.0993174

>  <r_i_glide_ligand_efficiency_sa>  (273) 
-0.297952

>  <r_i_glide_ligand_efficiency_ln>  (273) 
-0.624225

>  <r_i_glide_gscore>  (273) 
-2.68157

>  <r_i_glide_lipo>  (273) 
-0.0834801

>  <r_i_glide_hbond>  (273) 
-0.229384

>  <r_i_glide_metal>  (273) 
-0

>  <r_i_glide_rewards>  (273) 
-1.04899

>  <r_i_glide_evdw>  (273) 
-28.1883

>  <r_i_glide_ecoul>  (273) 
-0.366787

>  <r_i_glide_erotb>  (273) 
0.144721

>  <r_i_glide_esite>  (273) 
0

>  <r_i_glide_emodel>  (273) 
-32.9941

>  <r_i_glide_energy>  (273) 
-28.5551

>  <r_i_glide_einternal>  (273) 
0.229088

>  <r_i_glide_intrahb_reward>  (273) 
-0

>  <i_i_glide_confnum>  (273) 
1

>  <i_i_glide_posenum>  (273) 
3

>  <r_i_glide_eff_state_penalty>  (273) 
0

>  <ligand_id>  (273) 
93

>  <original_smiles>  (273) 
CC12CCC3C4(C)CCC(=O)CC4=CC(=O)C3(C)C1=CCC2c1ccoc1

>  <smiles>  (273) 
[H]C1=C2C([H])([H])C(=O)C([H])([H])C([H])([H])C2(C([H])([H])[H])C2([H])C([H])([H])C([H])([H])C3(C([H])([H])[H])C(=C([H])C([H])([H])C3([H])c3c([H])oc([H])c3[H])C2(C([H])([H])[H])C1=O

$$$$
94:0:0
     RDKit          3D

 35 39  0  0  1  0  0  0  0  0999 V2000
    2.2648   -3.1063   -2.2549 C   0  0  0  0  0  0  0  0  0  0  0  0
    3.1494   -2.7929   -1.3923 C   0  0  0  0  0  0  0  0  0  0  0  0
    3.3086   -2.0791   -2.6111 N   0  0  0  0  0  0  0  0  0  0  0  0
    4.6229   -2.3090   -3.1473 C   0  0  0  0  0  0  0  0  0  0  0  0
    5.7007   -2.9125   -2.1904 C   0  0  0  0  0  0  0  0  0  0  0  0
    5.4598   -2.6494   -0.6784 C   0  0  0  0  0  0  0  0  0  0  0  0
    4.0589   -3.1493   -0.2343 C   0  0  2  0  0  0  0  0  0  0  0  0
    4.0807   -4.6445    0.2428 C   0  0  0  0  0  0  0  0  0  0  0  0
    3.3024   -4.7361    1.5778 C   0  0  0  0  0  0  0  0  0  0  0  0
    3.0872   -3.2996    1.9721 C   0  0  0  0  0  0  0  0  0  0  0  0
    2.5152   -2.8132    3.1629 C   0  0  0  0  0  0  0  0  0  0  0  0
    2.3688   -1.4139    3.3434 C   0  0  0  0  0  0  0  0  0  0  0  0
    1.8250   -0.9217    4.4847 N   0  0  0  0  0  0  0  0  0  0  0  0
    1.7058    0.4208    4.6320 C   0  0  0  0  0  0  0  0  0  0  0  0
    2.1082    1.3401    3.6479 C   0  0  0  0  0  0  0  0  0  0  0  0
    2.6618    0.8472    2.4593 C   0  0  0  0  0  0  0  0  0  0  0  0
    2.8022   -0.5415    2.3005 C   0  0  0  0  0  0  0  0  0  0  0  0
    3.3723   -1.0466    1.1210 C   0  0  0  0  0  0  0  0  0  0  0  0
    3.5335   -2.4296    0.9870 C   0  0  0  0  0  0  0  0  0  0  0  0
    1.5110   -3.5107   -2.8688 H   0  0  0  0  0  0  0  0  0  0  0  0
    4.5545   -2.8951   -4.0561 H   0  0  0  0  0  0  0  0  0  0  0  0
    4.9539   -1.3159   -3.4507 H   0  0  0  0  0  0  0  0  0  0  0  0
    5.7365   -3.9837   -2.3530 H   0  0  0  0  0  0  0  0  0  0  0  0
    6.6903   -2.5536   -2.4543 H   0  0  0  0  0  0  0  0  0  0  0  0
    6.2588   -3.0703   -0.0528 H   0  0  0  0  0  0  0  0  0  0  0  0
    5.5036   -1.5670   -0.5294 H   0  0  0  0  0  0  0  0  0  0  0  0
    3.7667   -5.3761   -0.4941 H   0  0  0  0  0  0  0  0  0  0  0  0
    5.1071   -4.9128    0.4941 H   0  0  0  0  0  0  0  0  0  0  0  0
    2.3380   -5.2286    1.4405 H   0  0  0  0  0  0  0  0  0  0  0  0
    3.8483   -5.2689    2.3645 H   0  0  0  0  0  0  0  0  0  0  0  0
    2.1943   -3.4871    3.9410 H   0  0  0  0  0  0  0  0  0  0  0  0
    1.2720    0.7614    5.5603 H   0  0  0  0  0  0  0  0  0  0  0  0
    1.9914    2.4041    3.8018 H   0  0  0  0  0  0  0  0  0  0  0  0
    2.9848    1.5294    1.6815 H   0  0  0  0  0  0  0  0  0  0  0  0
    3.6706   -0.3877    0.3173 H   0  0  0  0  0  0  0  0  0  0  0  0
  1  3  1  0
  1  2  2  0
  1 20  1  0
  2  7  1  0
  2  3  1  0
  3  4  1  0
  4  5  1  0
  4 21  1  0
  4 22  1  0
  5  6  1  0
  5 23  1  0
  5 24  1  0
  7  6  1  6
  6 25  1  0
  6 26  1  0
  7 19  1  0
  7  8  1  0
  8  9  1  0
  8 27  1  0
  8 28  1  0
  9 10  1  0
  9 29  1  0
  9 30  1  0
 10 19  2  0
 10 11  1  0
 11 12  2  0
 11 31  1  0
 12 17  1  0
 12 13  1  0
 13 14  2  0
 14 15  1  0
 14 32  1  0
 15 16  2  0
 15 33  1  0
 16 17  1  0
 16 34  1  0
 17 18  2  0
 18 19  1  0
 18 35  1  0
M  END
>  <i_m_ct_stereo_status>  (274) 
1

>  <s_m_source_file>  (274) 
/var/tmp/pbs.5076255.sched01/tmporjl5eer/117expd_qi0.sdf

>  <i_m_source_file_index>  (274) 
1

>  <i_lp_mmshare_version>  (274) 
48012

>  <i_f3d_flags>  (274) 
0

>  <s_epik_input>  (274) 
W0NIMl0xW0NIMl1bQ0gyXU4oW0NIXT0yKUMyW0NAXTEzYzRjKFtDSDJdW0NIMl0zKVtjSF1jNWMoW2NIXTQpW2NIXVtjSF1bY0hdbjU=

>  <s_epik_cmdline>  (274) 
J2VwaWtfcHl0aG9uJywgJy1waHQnLCAnMi4wJywgJy1waCcsICc3LjAnLCAnLXRuJywgJzgnLCAnLW1hJywgJzIwMCcsICctaW1hZScsICc8aW5maWxlLm1hZT4nLCAnLW9tYWUnLCAnPG91dGZpbGUubWFlPic=

>  <r_epik_Ionization_Penalty>  (274) 
0.0415939

>  <r_epik_Ionization_Penalty_Charging>  (274) 
0.0164906

>  <r_epik_Ionization_Penalty_Neutral>  (274) 
0.0251033

>  <r_epik_State_Penalty>  (274) 
0.0324717

>  <r_epik_Charging_Adjusted_Penalty>  (274) 
0.0489624

>  <i_epik_Tot_Q>  (274) 
0

>  <i_epik_Tot_abs_Q>  (274) 
0

>  <s_epik_Chemistry_Notes>  (274) 
This compound has an imine and may undergo hydrolysis.

>  <s_lp_Force_Field>  (274) 
OPLS3e

>  <r_lp_Energy>  (274) 
56.3939

>  <b_lp_Chiralities_Consistent>  (274) 
1

>  <s_lp_Variant>  (274) 
94:0-1

>  <s_i_glide_gridfile>  (274) 
pfpi4k_grid

>  <i_i_glide_lignum>  (274) 
1

>  <i_i_glide_rotatable_bonds>  (274) 
0

>  <r_i_docking_score>  (274) 
-3.19849

>  <r_i_glide_ligand_efficiency>  (274) 
-0.168341

>  <r_i_glide_ligand_efficiency_sa>  (274) 
-0.449202

>  <r_i_glide_ligand_efficiency_ln>  (274) 
-0.810885

>  <r_i_glide_gscore>  (274) 
-3.19849

>  <r_i_glide_lipo>  (274) 
-0.349003

>  <r_i_glide_hbond>  (274) 
0

>  <r_i_glide_metal>  (274) 
-0

>  <r_i_glide_rewards>  (274) 
-1.71598

>  <r_i_glide_evdw>  (274) 
-22.1967

>  <r_i_glide_ecoul>  (274) 
0.0904873

>  <r_i_glide_erotb>  (274) 
0

>  <r_i_glide_esite>  (274) 
-0.0372368

>  <r_i_glide_emodel>  (274) 
-25.2684

>  <r_i_glide_energy>  (274) 
-22.1062

>  <r_i_glide_einternal>  (274) 
0

>  <r_i_glide_intrahb_reward>  (274) 
-0

>  <i_i_glide_confnum>  (274) 
2

>  <i_i_glide_posenum>  (274) 
4

>  <r_i_glide_eff_state_penalty>  (274) 
0

>  <ligand_id>  (274) 
94

>  <original_smiles>  (274) 
C1=C2N1CCCC21CCc2cc3ncccc3cc21

>  <smiles>  (274) 
[H]C1=C2N1C([H])([H])C([H])([H])C([H])([H])C21c2c(c([H])c3nc([H])c([H])c([H])c3c2[H])C([H])([H])C1([H])[H]

$$$$
94:0:1
     RDKit          3D

 35 39  0  0  1  0  0  0  0  0999 V2000
    1.9281   -4.7089    2.8221 C   0  0  0  0  0  0  0  0  0  0  0  0
    2.7369   -4.9688    1.8877 C   0  0  0  0  0  0  0  0  0  0  0  0
    1.6238   -5.8414    1.9189 N   0  0  0  0  0  0  0  0  0  0  0  0
    2.1154   -7.2056    1.9884 C   0  0  0  0  0  0  0  0  0  0  0  0
    3.6327   -7.4695    1.7014 C   0  0  0  0  0  0  0  0  0  0  0  0
    4.3128   -6.4244    0.7803 C   0  0  0  0  0  0  0  0  0  0  0  0
    4.1502   -4.9845    1.3360 C   0  0  2  0  0  0  0  0  0  0  0  0
    5.3175   -4.5782    2.2988 C   0  0  0  0  0  0  0  0  0  0  0  0
    5.8057   -3.1605    1.8945 C   0  0  0  0  0  0  0  0  0  0  0  0
    5.1191   -2.8973    0.5836 C   0  0  0  0  0  0  0  0  0  0  0  0
    5.2929   -1.7960   -0.2723 C   0  0  0  0  0  0  0  0  0  0  0  0
    4.5281   -1.7027   -1.4680 C   0  0  0  0  0  0  0  0  0  0  0  0
    4.6901   -0.6659   -2.3117 N   0  0  0  0  0  0  0  0  0  0  0  0
    3.9442   -0.6045   -3.4351 C   0  0  0  0  0  0  0  0  0  0  0  0
    3.0272   -1.6107   -3.8008 C   0  0  0  0  0  0  0  0  0  0  0  0
    2.8373   -2.6923   -2.9324 C   0  0  0  0  0  0  0  0  0  0  0  0
    3.5937   -2.7552   -1.7425 C   0  0  0  0  0  0  0  0  0  0  0  0
    3.4297   -3.8339   -0.8670 C   0  0  0  0  0  0  0  0  0  0  0  0
    4.2243   -3.9151    0.2801 C   0  0  0  0  0  0  0  0  0  0  0  0
    1.3524   -4.4144    3.6632 H   0  0  0  0  0  0  0  0  0  0  0  0
    1.8454   -7.6298    2.9472 H   0  0  0  0  0  0  0  0  0  0  0  0
    1.5505   -7.7811    1.2577 H   0  0  0  0  0  0  0  0  0  0  0  0
    4.1628   -7.4937    2.6504 H   0  0  0  0  0  0  0  0  0  0  0  0
    3.7769   -8.4615    1.2733 H   0  0  0  0  0  0  0  0  0  0  0  0
    5.3603   -6.6610    0.5857 H   0  0  0  0  0  0  0  0  0  0  0  0
    3.8132   -6.4754   -0.1841 H   0  0  0  0  0  0  0  0  0  0  0  0
    5.1049   -4.6745    3.3632 H   0  0  0  0  0  0  0  0  0  0  0  0
    6.1669   -5.2365    2.1089 H   0  0  0  0  0  0  0  0  0  0  0  0
    5.4951   -2.4145    2.6295 H   0  0  0  0  0  0  0  0  0  0  0  0
    6.8908   -3.0950    1.7670 H   0  0  0  0  0  0  0  0  0  0  0  0
    5.9951   -1.0119   -0.0249 H   0  0  0  0  0  0  0  0  0  0  0  0
    4.1001    0.2472   -4.0743 H   0  0  0  0  0  0  0  0  0  0  0  0
    2.4370   -1.5085   -4.7030 H   0  0  0  0  0  0  0  0  0  0  0  0
    2.1128   -3.4701   -3.1645 H   0  0  0  0  0  0  0  0  0  0  0  0
    2.7161   -4.6143   -1.0914 H   0  0  0  0  0  0  0  0  0  0  0  0
  1  3  1  0
  1  2  2  0
  1 20  1  0
  2  7  1  0
  2  3  1  0
  3  4  1  0
  4  5  1  0
  4 21  1  0
  4 22  1  0
  5  6  1  0
  5 23  1  0
  5 24  1  0
  7  6  1  6
  6 25  1  0
  6 26  1  0
  7 19  1  0
  7  8  1  0
  8  9  1  0
  8 27  1  0
  8 28  1  0
  9 10  1  0
  9 29  1  0
  9 30  1  0
 10 19  2  0
 10 11  1  0
 11 12  2  0
 11 31  1  0
 12 17  1  0
 12 13  1  0
 13 14  2  0
 14 15  1  0
 14 32  1  0
 15 16  2  0
 15 33  1  0
 16 17  1  0
 16 34  1  0
 17 18  2  0
 18 19  1  0
 18 35  1  0
M  END
>  <i_m_ct_stereo_status>  (275) 
1

>  <s_m_source_file>  (275) 
/var/tmp/pbs.5076255.sched01/tmporjl5eer/117expd_qi0.sdf

>  <i_m_source_file_index>  (275) 
1

>  <i_lp_mmshare_version>  (275) 
48012

>  <i_f3d_flags>  (275) 
0

>  <s_epik_input>  (275) 
W0NIMl0xW0NIMl1bQ0gyXU4oW0NIXT0yKUMyW0NAXTEzYzRjKFtDSDJdW0NIMl0zKVtjSF1jNWMoW2NIXTQpW2NIXVtjSF1bY0hdbjU=

>  <s_epik_cmdline>  (275) 
J2VwaWtfcHl0aG9uJywgJy1waHQnLCAnMi4wJywgJy1waCcsICc3LjAnLCAnLXRuJywgJzgnLCAnLW1hJywgJzIwMCcsICctaW1hZScsICc8aW5maWxlLm1hZT4nLCAnLW9tYWUnLCAnPG91dGZpbGUubWFlPic=

>  <r_epik_Ionization_Penalty>  (275) 
0.0415939

>  <r_epik_Ionization_Penalty_Charging>  (275) 
0.0164906

>  <r_epik_Ionization_Penalty_Neutral>  (275) 
0.0251033

>  <r_epik_State_Penalty>  (275) 
0.0324717

>  <r_epik_Charging_Adjusted_Penalty>  (275) 
0.0489624

>  <i_epik_Tot_Q>  (275) 
0

>  <i_epik_Tot_abs_Q>  (275) 
0

>  <s_epik_Chemistry_Notes>  (275) 
This compound has an imine and may undergo hydrolysis.

>  <s_lp_Force_Field>  (275) 
OPLS3e

>  <r_lp_Energy>  (275) 
56.3939

>  <b_lp_Chiralities_Consistent>  (275) 
1

>  <s_lp_Variant>  (275) 
94:0-1

>  <s_i_glide_gridfile>  (275) 
pfpi4k_grid

>  <i_i_glide_lignum>  (275) 
1

>  <i_i_glide_rotatable_bonds>  (275) 
0

>  <r_i_docking_score>  (275) 
-3.13657

>  <r_i_glide_ligand_efficiency>  (275) 
-0.165083

>  <r_i_glide_ligand_efficiency_sa>  (275) 
-0.440507

>  <r_i_glide_ligand_efficiency_ln>  (275) 
-0.795189

>  <r_i_glide_gscore>  (275) 
-3.13657

>  <r_i_glide_lipo>  (275) 
-0.689808

>  <r_i_glide_hbond>  (275) 
0

>  <r_i_glide_metal>  (275) 
-0

>  <r_i_glide_rewards>  (275) 
-1.71598

>  <r_i_glide_evdw>  (275) 
-23.5938

>  <r_i_glide_ecoul>  (275) 
-2.79365

>  <r_i_glide_erotb>  (275) 
0

>  <r_i_glide_esite>  (275) 
-0.0531252

>  <r_i_glide_emodel>  (275) 
-25.6054

>  <r_i_glide_energy>  (275) 
-26.3874

>  <r_i_glide_einternal>  (275) 
0

>  <r_i_glide_intrahb_reward>  (275) 
-0

>  <i_i_glide_confnum>  (275) 
1

>  <i_i_glide_posenum>  (275) 
8

>  <r_i_glide_eff_state_penalty>  (275) 
0

>  <ligand_id>  (275) 
94

>  <original_smiles>  (275) 
C1=C2N1CCCC21CCc2cc3ncccc3cc21

>  <smiles>  (275) 
[H]C1=C2N1C([H])([H])C([H])([H])C([H])([H])C21c2c(c([H])c3nc([H])c([H])c([H])c3c2[H])C([H])([H])C1([H])[H]

$$$$
94:0:2
     RDKit          3D

 35 39  0  0  1  0  0  0  0  0999 V2000
    5.1700   -3.5732    3.4323 C   0  0  0  0  0  0  0  0  0  0  0  0
    5.1940   -4.2976    2.3887 C   0  0  0  0  0  0  0  0  0  0  0  0
    4.2392   -4.7410    3.3465 N   0  0  0  0  0  0  0  0  0  0  0  0
    4.5033   -6.1158    3.6818 C   0  0  0  0  0  0  0  0  0  0  0  0
    5.4588   -6.9330    2.7521 C   0  0  0  0  0  0  0  0  0  0  0  0
    5.5331   -6.4202    1.2898 C   0  0  0  0  0  0  0  0  0  0  0  0
    5.9328   -4.9230    1.2281 C   0  0  2  0  0  0  0  0  0  0  0  0
    7.4849   -4.7254    1.1422 C   0  0  0  0  0  0  0  0  0  0  0  0
    7.7903   -3.6856    0.0418 C   0  0  0  0  0  0  0  0  0  0  0  0
    6.4707   -3.5082   -0.6603 C   0  0  0  0  0  0  0  0  0  0  0  0
    6.2070   -2.7769   -1.8278 C   0  0  0  0  0  0  0  0  0  0  0  0
    4.8866   -2.7219   -2.3401 C   0  0  0  0  0  0  0  0  0  0  0  0
    4.6194   -2.0222   -3.4670 N   0  0  0  0  0  0  0  0  0  0  0  0
    3.3343   -1.9802   -3.9154 C   0  0  0  0  0  0  0  0  0  0  0  0
    2.2794   -2.6587   -3.2964 C   0  0  0  0  0  0  0  0  0  0  0  0
    2.5442   -3.3729   -2.1216 C   0  0  0  0  0  0  0  0  0  0  0  0
    3.8579   -3.4162   -1.6286 C   0  0  0  0  0  0  0  0  0  0  0  0
    4.1426   -4.1532   -0.4750 C   0  0  0  0  0  0  0  0  0  0  0  0
    5.4615   -4.2192   -0.0153 C   0  0  0  0  0  0  0  0  0  0  0  0
    5.3027   -2.9177    4.2475 H   0  0  0  0  0  0  0  0  0  0  0  0
    4.8385   -6.1858    4.7103 H   0  0  0  0  0  0  0  0  0  0  0  0
    3.5338   -6.6173    3.6656 H   0  0  0  0  0  0  0  0  0  0  0  0
    6.4565   -6.9102    3.1795 H   0  0  0  0  0  0  0  0  0  0  0  0
    5.1773   -7.9819    2.7416 H   0  0  0  0  0  0  0  0  0  0  0  0
    6.1938   -7.0408    0.6792 H   0  0  0  0  0  0  0  0  0  0  0  0
    4.5369   -6.5333    0.8581 H   0  0  0  0  0  0  0  0  0  0  0  0
    7.9832   -4.5017    2.0682 H   0  0  0  0  0  0  0  0  0  0  0  0
    7.9421   -5.6549    0.8100 H   0  0  0  0  0  0  0  0  0  0  0  0
    8.1045   -2.7287    0.4658 H   0  0  0  0  0  0  0  0  0  0  0  0
    8.5603   -4.0176   -0.6647 H   0  0  0  0  0  0  0  0  0  0  0  0
    7.0056   -2.2729   -2.3505 H   0  0  0  0  0  0  0  0  0  0  0  0
    3.1681   -1.4031   -4.8174 H   0  0  0  0  0  0  0  0  0  0  0  0
    1.2847   -2.6398   -3.7126 H   0  0  0  0  0  0  0  0  0  0  0  0
    1.7461   -3.9119   -1.6280 H   0  0  0  0  0  0  0  0  0  0  0  0
    3.3581   -4.6836    0.0508 H   0  0  0  0  0  0  0  0  0  0  0  0
  1  3  1  0
  1  2  2  0
  1 20  1  0
  2  7  1  0
  2  3  1  0
  3  4  1  0
  4  5  1  0
  4 21  1  0
  4 22  1  0
  5  6  1  0
  5 23  1  0
  5 24  1  0
  7  6  1  6
  6 25  1  0
  6 26  1  0
  7 19  1  0
  7  8  1  0
  8  9  1  0
  8 27  1  0
  8 28  1  0
  9 10  1  0
  9 29  1  0
  9 30  1  0
 10 19  2  0
 10 11  1  0
 11 12  2  0
 11 31  1  0
 12 17  1  0
 12 13  1  0
 13 14  2  0
 14 15  1  0
 14 32  1  0
 15 16  2  0
 15 33  1  0
 16 17  1  0
 16 34  1  0
 17 18  2  0
 18 19  1  0
 18 35  1  0
M  END
>  <i_m_ct_stereo_status>  (276) 
1

>  <s_m_source_file>  (276) 
/var/tmp/pbs.5076255.sched01/tmporjl5eer/117expd_qi0.sdf

>  <i_m_source_file_index>  (276) 
1

>  <i_lp_mmshare_version>  (276) 
48012

>  <i_f3d_flags>  (276) 
0

>  <s_epik_input>  (276) 
W0NIMl0xW0NIMl1bQ0gyXU4oW0NIXT0yKUMyW0NAXTEzYzRjKFtDSDJdW0NIMl0zKVtjSF1jNWMoW2NIXTQpW2NIXVtjSF1bY0hdbjU=

>  <s_epik_cmdline>  (276) 
J2VwaWtfcHl0aG9uJywgJy1waHQnLCAnMi4wJywgJy1waCcsICc3LjAnLCAnLXRuJywgJzgnLCAnLW1hJywgJzIwMCcsICctaW1hZScsICc8aW5maWxlLm1hZT4nLCAnLW9tYWUnLCAnPG91dGZpbGUubWFlPic=

>  <r_epik_Ionization_Penalty>  (276) 
0.0415939

>  <r_epik_Ionization_Penalty_Charging>  (276) 
0.0164906

>  <r_epik_Ionization_Penalty_Neutral>  (276) 
0.0251033

>  <r_epik_State_Penalty>  (276) 
0.0324717

>  <r_epik_Charging_Adjusted_Penalty>  (276) 
0.0489624

>  <i_epik_Tot_Q>  (276) 
0

>  <i_epik_Tot_abs_Q>  (276) 
0

>  <s_epik_Chemistry_Notes>  (276) 
This compound has an imine and may undergo hydrolysis.

>  <s_lp_Force_Field>  (276) 
OPLS3e

>  <r_lp_Energy>  (276) 
56.3939

>  <b_lp_Chiralities_Consistent>  (276) 
1

>  <s_lp_Variant>  (276) 
94:0-1

>  <s_i_glide_gridfile>  (276) 
pfpi4k_grid

>  <i_i_glide_lignum>  (276) 
1

>  <i_i_glide_rotatable_bonds>  (276) 
0

>  <r_i_docking_score>  (276) 
-3.05744

>  <r_i_glide_ligand_efficiency>  (276) 
-0.160918

>  <r_i_glide_ligand_efficiency_sa>  (276) 
-0.429393

>  <r_i_glide_ligand_efficiency_ln>  (276) 
-0.775126

>  <r_i_glide_gscore>  (276) 
-3.05744

>  <r_i_glide_lipo>  (276) 
-1.20672

>  <r_i_glide_hbond>  (276) 
0

>  <r_i_glide_metal>  (276) 
-0

>  <r_i_glide_rewards>  (276) 
-1.71733

>  <r_i_glide_evdw>  (276) 
-21.9734

>  <r_i_glide_ecoul>  (276) 
-0.528978

>  <r_i_glide_erotb>  (276) 
0

>  <r_i_glide_esite>  (276) 
0

>  <r_i_glide_emodel>  (276) 
-21.3017

>  <r_i_glide_energy>  (276) 
-22.5024

>  <r_i_glide_einternal>  (276) 
0

>  <r_i_glide_intrahb_reward>  (276) 
-0

>  <i_i_glide_confnum>  (276) 
2

>  <i_i_glide_posenum>  (276) 
40

>  <r_i_glide_eff_state_penalty>  (276) 
0

>  <ligand_id>  (276) 
94

>  <original_smiles>  (276) 
C1=C2N1CCCC21CCc2cc3ncccc3cc21

>  <smiles>  (276) 
[H]C1=C2N1C([H])([H])C([H])([H])C([H])([H])C21c2c(c([H])c3nc([H])c([H])c([H])c3c2[H])C([H])([H])C1([H])[H]

$$$$
94:1:0
     RDKit          3D

 36 40  0  0  1  0  0  0  0  0999 V2000
    1.9681   -5.1367    2.9509 C   0  0  0  0  0  0  0  0  0  0  0  0
    3.1480   -4.9560    2.0623 C   0  0  0  0  0  0  0  0  0  0  0  0
    3.0907   -6.0595    2.9882 N   0  0  0  0  0  0  0  0  0  0  0  0
    3.1351   -7.3981    2.3903 C   0  0  0  0  0  0  0  0  0  0  0  0
    4.4317   -7.5192    1.5690 C   0  0  0  0  0  0  0  0  0  0  0  0
    4.6080   -6.3455    0.5834 C   0  0  0  0  0  0  0  0  0  0  0  0
    4.4227   -4.9530    1.2476 C   0  0  2  0  0  0  0  0  0  0  0  0
    5.6543   -4.5245    2.1021 C   0  0  0  0  0  0  0  0  0  0  0  0
    6.0543   -3.0952    1.6789 C   0  0  0  0  0  0  0  0  0  0  0  0
    5.2611   -2.8530    0.4301 C   0  0  0  0  0  0  0  0  0  0  0  0
    5.3624   -1.7541   -0.4457 C   0  0  0  0  0  0  0  0  0  0  0  0
    4.5238   -1.6975   -1.5860 C   0  0  0  0  0  0  0  0  0  0  0  0
    4.6186   -0.6575   -2.4450 N   0  0  0  0  0  0  0  0  0  0  0  0
    3.8178   -0.6293   -3.5275 C   0  0  0  0  0  0  0  0  0  0  0  0
    2.9012   -1.6460   -3.8369 C   0  0  0  0  0  0  0  0  0  0  0  0
    2.7806   -2.7354   -2.9535 C   0  0  0  0  0  0  0  0  0  0  0  0
    3.6050   -2.7632   -1.8105 C   0  0  0  0  0  0  0  0  0  0  0  0
    3.5019   -3.8446   -0.9132 C   0  0  0  0  0  0  0  0  0  0  0  0
    4.3517   -3.8727    0.2033 C   0  0  0  0  0  0  0  0  0  0  0  0
    1.0937   -5.6021    2.5053 H   0  0  0  0  0  0  0  0  0  0  0  0
    3.1164   -8.1203    3.2055 H   0  0  0  0  0  0  0  0  0  0  0  0
    2.2424   -7.5188    1.7744 H   0  0  0  0  0  0  0  0  0  0  0  0
    5.2883   -7.5390    2.2430 H   0  0  0  0  0  0  0  0  0  0  0  0
    4.4520   -8.4639    1.0266 H   0  0  0  0  0  0  0  0  0  0  0  0
    5.5767   -6.3964    0.0881 H   0  0  0  0  0  0  0  0  0  0  0  0
    3.8656   -6.4892   -0.2018 H   0  0  0  0  0  0  0  0  0  0  0  0
    5.5013   -4.6248    3.1757 H   0  0  0  0  0  0  0  0  0  0  0  0
    6.4937   -5.1741    1.8564 H   0  0  0  0  0  0  0  0  0  0  0  0
    5.7684   -2.3667    2.4320 H   0  0  0  0  0  0  0  0  0  0  0  0
    7.1225   -3.0115    1.4907 H   0  0  0  0  0  0  0  0  0  0  0  0
    6.0581   -0.9529   -0.2448 H   0  0  0  0  0  0  0  0  0  0  0  0
    3.9029    0.2386   -4.1672 H   0  0  0  0  0  0  0  0  0  0  0  0
    2.2542   -1.5611   -4.6983 H   0  0  0  0  0  0  0  0  0  0  0  0
    2.0626   -3.5216   -3.1380 H   0  0  0  0  0  0  0  0  0  0  0  0
    2.8045   -4.6448   -1.0957 H   0  0  0  0  0  0  0  0  0  0  0  0
    1.9669   -4.5460    3.8641 H   0  0  0  0  0  0  0  0  0  0  0  0
  1  3  1  0
  1  2  1  0
  1 20  1  0
  1 36  1  0
  2  7  1  0
  2  3  2  0
  3  4  1  0
  4  5  1  0
  4 21  1  0
  4 22  1  0
  5  6  1  0
  5 23  1  0
  5 24  1  0
  7  6  1  6
  6 25  1  0
  6 26  1  0
  7 19  1  0
  7  8  1  0
  8  9  1  0
  8 27  1  0
  8 28  1  0
  9 10  1  0
  9 29  1  0
  9 30  1  0
 10 19  2  0
 10 11  1  0
 11 12  2  0
 11 31  1  0
 12 17  1  0
 12 13  1  0
 13 14  2  0
 14 15  1  0
 14 32  1  0
 15 16  2  0
 15 33  1  0
 16 17  1  0
 16 34  1  0
 17 18  2  0
 18 19  1  0
 18 35  1  0
M  CHG  1   3   1
M  END
>  <i_m_ct_stereo_status>  (277) 
1

>  <s_m_source_file>  (277) 
/var/tmp/pbs.5076255.sched01/tmporjl5eer/117expd_qi0.sdf

>  <i_m_source_file_index>  (277) 
2

>  <i_lp_mmshare_version>  (277) 
48012

>  <i_f3d_flags>  (277) 
0

>  <s_epik_input>  (277) 
W0NIMl0xW0NIMl1bQ0gyXU4oW0NIXT0yKUMyW0NAXTEzYzRjKFtDSDJdW0NIMl0zKVtjSF1jNWMoW2NIXTQpW2NIXVtjSF1bY0hdbjU=

>  <s_epik_cmdline>  (277) 
J2VwaWtfcHl0aG9uJywgJy1waHQnLCAnMi4wJywgJy1waCcsICc3LjAnLCAnLXRuJywgJzgnLCAnLW1hJywgJzIwMCcsICctaW1hZScsICc8aW5maWxlLm1hZT4nLCAnLW9tYWUnLCAnPG91dGZpbGUubWFlPic=

>  <r_epik_Ionization_Penalty>  (277) 
2.13919

>  <r_epik_Ionization_Penalty_Charging>  (277) 
0

>  <r_epik_Ionization_Penalty_Neutral>  (277) 
2.13919

>  <r_epik_State_Penalty>  (277) 
2.12293

>  <r_epik_Charging_Adjusted_Penalty>  (277) 
2.12293

>  <i_epik_Tot_Q>  (277) 
1

>  <i_epik_Tot_abs_Q>  (277) 
1

>  <s_epik_Chemistry_Notes>  (277) 
This compound has an imine and may undergo hydrolysis.

>  <s_lp_Force_Field>  (277) 
OPLS3e

>  <r_lp_Energy>  (277) 
52.1944

>  <b_lp_Chiralities_Consistent>  (277) 
1

>  <s_lp_Variant>  (277) 
94:0-2

>  <s_i_glide_gridfile>  (277) 
pfpi4k_grid

>  <i_i_glide_lignum>  (277) 
2

>  <i_i_glide_rotatable_bonds>  (277) 
0

>  <r_i_docking_score>  (277) 
-4.09825

>  <r_i_glide_ligand_efficiency>  (277) 
-0.215697

>  <r_i_glide_ligand_efficiency_sa>  (277) 
-0.575567

>  <r_i_glide_ligand_efficiency_ln>  (277) 
-1.03899

>  <r_i_glide_gscore>  (277) 
-4.09825

>  <r_i_glide_lipo>  (277) 
-0.769198

>  <r_i_glide_hbond>  (277) 
0

>  <r_i_glide_metal>  (277) 
-0

>  <r_i_glide_rewards>  (277) 
-1.71026

>  <r_i_glide_evdw>  (277) 
-22.1668

>  <r_i_glide_ecoul>  (277) 
-3.40208

>  <r_i_glide_erotb>  (277) 
0

>  <r_i_glide_esite>  (277) 
-0.000136112

>  <r_i_glide_emodel>  (277) 
-32.9166

>  <r_i_glide_energy>  (277) 
-25.5689

>  <r_i_glide_einternal>  (277) 
0

>  <r_i_glide_intrahb_reward>  (277) 
-0

>  <i_i_glide_confnum>  (277) 
2

>  <i_i_glide_posenum>  (277) 
22

>  <r_i_glide_eff_state_penalty>  (277) 
0

>  <ligand_id>  (277) 
94

>  <original_smiles>  (277) 
C1=C2N1CCCC21CCc2cc3ncccc3cc21

>  <smiles>  (277) 
[H]c1nc2c([H])c3c(c([H])c2c([H])c1[H])C1(C2=[N+](C2([H])[H])C([H])([H])C([H])([H])C1([H])[H])C([H])([H])C3([H])[H]

$$$$
94:1:1
     RDKit          3D

 36 40  0  0  1  0  0  0  0  0999 V2000
    4.3454   -6.8223    4.4425 C   0  0  0  0  0  0  0  0  0  0  0  0
    4.9021   -6.7799    3.0642 C   0  0  0  0  0  0  0  0  0  0  0  0
    4.6967   -8.0418    3.7343 N   0  0  0  0  0  0  0  0  0  0  0  0
    3.7602   -8.9655    3.0845 C   0  0  0  0  0  0  0  0  0  0  0  0
    4.2744   -9.2467    1.6603 C   0  0  0  0  0  0  0  0  0  0  0  0
    4.5735   -7.9492    0.8858 C   0  0  0  0  0  0  0  0  0  0  0  0
    5.4669   -6.9491    1.6707 C   0  0  2  0  0  0  0  0  0  0  0  0
    6.9688   -7.3752    1.7045 C   0  0  0  0  0  0  0  0  0  0  0  0
    7.8189   -6.1554    1.2835 C   0  0  0  0  0  0  0  0  0  0  0  0
    6.8130   -5.1725    0.7550 C   0  0  0  0  0  0  0  0  0  0  0  0
    7.0682   -3.9540    0.0957 C   0  0  0  0  0  0  0  0  0  0  0  0
    5.9850   -3.1609   -0.3552 C   0  0  0  0  0  0  0  0  0  0  0  0
    6.2110   -1.9822   -0.9910 N   0  0  0  0  0  0  0  0  0  0  0  0
    5.1522   -1.2510   -1.3981 C   0  0  0  0  0  0  0  0  0  0  0  0
    3.8179   -1.6469   -1.2063 C   0  0  0  0  0  0  0  0  0  0  0  0
    3.5653   -2.8631   -0.5565 C   0  0  0  0  0  0  0  0  0  0  0  0
    4.6579   -3.6344   -0.1186 C   0  0  0  0  0  0  0  0  0  0  0  0
    4.4159   -4.8531    0.5442 C   0  0  0  0  0  0  0  0  0  0  0  0
    5.5135   -5.6129    0.9738 C   0  0  0  0  0  0  0  0  0  0  0  0
    3.2666   -6.7157    4.5322 H   0  0  0  0  0  0  0  0  0  0  0  0
    3.7307   -9.8775    3.6782 H   0  0  0  0  0  0  0  0  0  0  0  0
    2.7741   -8.4949    3.0816 H   0  0  0  0  0  0  0  0  0  0  0  0
    5.1849   -9.8425    1.7111 H   0  0  0  0  0  0  0  0  0  0  0  0
    3.5546   -9.8489    1.1091 H   0  0  0  0  0  0  0  0  0  0  0  0
    5.0122   -8.1794   -0.0834 H   0  0  0  0  0  0  0  0  0  0  0  0
    3.6096   -7.4911    0.6723 H   0  0  0  0  0  0  0  0  0  0  0  0
    7.2844   -7.8106    2.6536 H   0  0  0  0  0  0  0  0  0  0  0  0
    7.1314   -8.1513    0.9560 H   0  0  0  0  0  0  0  0  0  0  0  0
    8.3286   -5.7223    2.1407 H   0  0  0  0  0  0  0  0  0  0  0  0
    8.5608   -6.4228    0.5336 H   0  0  0  0  0  0  0  0  0  0  0  0
    8.0839   -3.6246   -0.0764 H   0  0  0  0  0  0  0  0  0  0  0  0
    5.3726   -0.3154   -1.8904 H   0  0  0  0  0  0  0  0  0  0  0  0
    2.9945   -1.0348   -1.5370 H   0  0  0  0  0  0  0  0  0  0  0  0
    2.5485   -3.1873   -0.3916 H   0  0  0  0  0  0  0  0  0  0  0  0
    3.4102   -5.2021    0.7093 H   0  0  0  0  0  0  0  0  0  0  0  0
    5.0565   -6.6664    5.2521 H   0  0  0  0  0  0  0  0  0  0  0  0
  1  3  1  0
  1  2  1  0
  1 20  1  0
  1 36  1  0
  2  7  1  0
  2  3  2  0
  3  4  1  0
  4  5  1  0
  4 21  1  0
  4 22  1  0
  5  6  1  0
  5 23  1  0
  5 24  1  0
  7  6  1  6
  6 25  1  0
  6 26  1  0
  7 19  1  0
  7  8  1  0
  8  9  1  0
  8 27  1  0
  8 28  1  0
  9 10  1  0
  9 29  1  0
  9 30  1  0
 10 19  2  0
 10 11  1  0
 11 12  2  0
 11 31  1  0
 12 17  1  0
 12 13  1  0
 13 14  2  0
 14 15  1  0
 14 32  1  0
 15 16  2  0
 15 33  1  0
 16 17  1  0
 16 34  1  0
 17 18  2  0
 18 19  1  0
 18 35  1  0
M  CHG  1   3   1
M  END
>  <i_m_ct_stereo_status>  (278) 
1

>  <s_m_source_file>  (278) 
/var/tmp/pbs.5076255.sched01/tmporjl5eer/117expd_qi0.sdf

>  <i_m_source_file_index>  (278) 
2

>  <i_lp_mmshare_version>  (278) 
48012

>  <i_f3d_flags>  (278) 
0

>  <s_epik_input>  (278) 
W0NIMl0xW0NIMl1bQ0gyXU4oW0NIXT0yKUMyW0NAXTEzYzRjKFtDSDJdW0NIMl0zKVtjSF1jNWMoW2NIXTQpW2NIXVtjSF1bY0hdbjU=

>  <s_epik_cmdline>  (278) 
J2VwaWtfcHl0aG9uJywgJy1waHQnLCAnMi4wJywgJy1waCcsICc3LjAnLCAnLXRuJywgJzgnLCAnLW1hJywgJzIwMCcsICctaW1hZScsICc8aW5maWxlLm1hZT4nLCAnLW9tYWUnLCAnPG91dGZpbGUubWFlPic=

>  <r_epik_Ionization_Penalty>  (278) 
2.13919

>  <r_epik_Ionization_Penalty_Charging>  (278) 
0

>  <r_epik_Ionization_Penalty_Neutral>  (278) 
2.13919

>  <r_epik_State_Penalty>  (278) 
2.12293

>  <r_epik_Charging_Adjusted_Penalty>  (278) 
2.12293

>  <i_epik_Tot_Q>  (278) 
1

>  <i_epik_Tot_abs_Q>  (278) 
1

>  <s_epik_Chemistry_Notes>  (278) 
This compound has an imine and may undergo hydrolysis.

>  <s_lp_Force_Field>  (278) 
OPLS3e

>  <r_lp_Energy>  (278) 
52.1944

>  <b_lp_Chiralities_Consistent>  (278) 
1

>  <s_lp_Variant>  (278) 
94:0-2

>  <s_i_glide_gridfile>  (278) 
pfpi4k_grid

>  <i_i_glide_lignum>  (278) 
2

>  <i_i_glide_rotatable_bonds>  (278) 
0

>  <r_i_docking_score>  (278) 
-4.07263

>  <r_i_glide_ligand_efficiency>  (278) 
-0.214349

>  <r_i_glide_ligand_efficiency_sa>  (278) 
-0.571968

>  <r_i_glide_ligand_efficiency_ln>  (278) 
-1.0325

>  <r_i_glide_gscore>  (278) 
-4.07263

>  <r_i_glide_lipo>  (278) 
-0.615385

>  <r_i_glide_hbond>  (278) 
-0.0975504

>  <r_i_glide_metal>  (278) 
-0

>  <r_i_glide_rewards>  (278) 
-1.70911

>  <r_i_glide_evdw>  (278) 
-20.8633

>  <r_i_glide_ecoul>  (278) 
-4.04942

>  <r_i_glide_erotb>  (278) 
0

>  <r_i_glide_esite>  (278) 
0

>  <r_i_glide_emodel>  (278) 
-32.1836

>  <r_i_glide_energy>  (278) 
-24.9127

>  <r_i_glide_einternal>  (278) 
0

>  <r_i_glide_intrahb_reward>  (278) 
-0

>  <i_i_glide_confnum>  (278) 
1

>  <i_i_glide_posenum>  (278) 
1

>  <r_i_glide_eff_state_penalty>  (278) 
0

>  <ligand_id>  (278) 
94

>  <original_smiles>  (278) 
C1=C2N1CCCC21CCc2cc3ncccc3cc21

>  <smiles>  (278) 
[H]c1nc2c([H])c3c(c([H])c2c([H])c1[H])C1(C2=[N+](C2([H])[H])C([H])([H])C([H])([H])C1([H])[H])C([H])([H])C3([H])[H]

$$$$
94:1:2
     RDKit          3D

 36 40  0  0  1  0  0  0  0  0999 V2000
    2.6932   -3.4185   -0.7574 C   0  0  0  0  0  0  0  0  0  0  0  0
    3.0210   -2.6581    0.4817 C   0  0  0  0  0  0  0  0  0  0  0  0
    4.0676   -3.1123   -0.3982 N   0  0  0  0  0  0  0  0  0  0  0  0
    4.9042   -2.0606   -0.9841 C   0  0  0  0  0  0  0  0  0  0  0  0
    5.5532   -1.2580    0.1641 C   0  0  0  0  0  0  0  0  0  0  0  0
    4.5105   -0.7721    1.1876 C   0  0  0  0  0  0  0  0  0  0  0  0
    3.5602   -1.8998    1.6792 C   0  0  2  0  0  0  0  0  0  0  0  0
    4.2447   -2.8589    2.7024 C   0  0  0  0  0  0  0  0  0  0  0  0
    3.3092   -2.9955    3.9263 C   0  0  0  0  0  0  0  0  0  0  0  0
    2.2837   -1.9191    3.7174 C   0  0  0  0  0  0  0  0  0  0  0  0
    1.2791   -1.5088    4.6170 C   0  0  0  0  0  0  0  0  0  0  0  0
    0.3976   -0.4631    4.2468 C   0  0  0  0  0  0  0  0  0  0  0  0
   -0.5813   -0.0640    5.0944 N   0  0  0  0  0  0  0  0  0  0  0  0
   -1.3980    0.9418    4.7180 C   0  0  0  0  0  0  0  0  0  0  0  0
   -1.3038    1.5939    3.4759 C   0  0  0  0  0  0  0  0  0  0  0  0
   -0.3025    1.1867    2.5774 C   0  0  0  0  0  0  0  0  0  0  0  0
    0.5622    0.1430    2.9664 C   0  0  0  0  0  0  0  0  0  0  0  0
    1.5641   -0.2821    2.0771 C   0  0  0  0  0  0  0  0  0  0  0  0
    2.4199   -1.3213    2.4747 C   0  0  0  0  0  0  0  0  0  0  0  0
    2.3677   -2.8240   -1.6103 H   0  0  0  0  0  0  0  0  0  0  0  0
    5.6623   -2.5515   -1.5942 H   0  0  0  0  0  0  0  0  0  0  0  0
    4.2691   -1.4383   -1.6184 H   0  0  0  0  0  0  0  0  0  0  0  0
    6.2840   -1.8808    0.6794 H   0  0  0  0  0  0  0  0  0  0  0  0
    6.1018   -0.4035   -0.2264 H   0  0  0  0  0  0  0  0  0  0  0  0
    4.9933   -0.2808    2.0350 H   0  0  0  0  0  0  0  0  0  0  0  0
    3.9360    0.0085    0.6894 H   0  0  0  0  0  0  0  0  0  0  0  0
    4.5411   -3.8207    2.2815 H   0  0  0  0  0  0  0  0  0  0  0  0
    5.1658   -2.3939    3.0585 H   0  0  0  0  0  0  0  0  0  0  0  0
    2.8188   -3.9666    3.9354 H   0  0  0  0  0  0  0  0  0  0  0  0
    3.8448   -2.8658    4.8649 H   0  0  0  0  0  0  0  0  0  0  0  0
    1.1852   -1.9825    5.5824 H   0  0  0  0  0  0  0  0  0  0  0  0
   -2.1601    1.2288    5.4268 H   0  0  0  0  0  0  0  0  0  0  0  0
   -1.9927    2.3783    3.2011 H   0  0  0  0  0  0  0  0  0  0  0  0
   -0.2076    1.6557    1.6077 H   0  0  0  0  0  0  0  0  0  0  0  0
    1.6693    0.1721    1.1012 H   0  0  0  0  0  0  0  0  0  0  0  0
    2.5285   -4.4880   -0.6432 H   0  0  0  0  0  0  0  0  0  0  0  0
  1  3  1  0
  1  2  1  0
  1 20  1  0
  1 36  1  0
  2  7  1  0
  2  3  2  0
  3  4  1  0
  4  5  1  0
  4 21  1  0
  4 22  1  0
  5  6  1  0
  5 23  1  0
  5 24  1  0
  7  6  1  6
  6 25  1  0
  6 26  1  0
  7 19  1  0
  7  8  1  0
  8  9  1  0
  8 27  1  0
  8 28  1  0
  9 10  1  0
  9 29  1  0
  9 30  1  0
 10 19  2  0
 10 11  1  0
 11 12  2  0
 11 31  1  0
 12 17  1  0
 12 13  1  0
 13 14  2  0
 14 15  1  0
 14 32  1  0
 15 16  2  0
 15 33  1  0
 16 17  1  0
 16 34  1  0
 17 18  2  0
 18 19  1  0
 18 35  1  0
M  CHG  1   3   1
M  END
>  <i_m_ct_stereo_status>  (279) 
1

>  <s_m_source_file>  (279) 
/var/tmp/pbs.5076255.sched01/tmporjl5eer/117expd_qi0.sdf

>  <i_m_source_file_index>  (279) 
2

>  <i_lp_mmshare_version>  (279) 
48012

>  <i_f3d_flags>  (279) 
0

>  <s_epik_input>  (279) 
W0NIMl0xW0NIMl1bQ0gyXU4oW0NIXT0yKUMyW0NAXTEzYzRjKFtDSDJdW0NIMl0zKVtjSF1jNWMoW2NIXTQpW2NIXVtjSF1bY0hdbjU=

>  <s_epik_cmdline>  (279) 
J2VwaWtfcHl0aG9uJywgJy1waHQnLCAnMi4wJywgJy1waCcsICc3LjAnLCAnLXRuJywgJzgnLCAnLW1hJywgJzIwMCcsICctaW1hZScsICc8aW5maWxlLm1hZT4nLCAnLW9tYWUnLCAnPG91dGZpbGUubWFlPic=

>  <r_epik_Ionization_Penalty>  (279) 
2.13919

>  <r_epik_Ionization_Penalty_Charging>  (279) 
0

>  <r_epik_Ionization_Penalty_Neutral>  (279) 
2.13919

>  <r_epik_State_Penalty>  (279) 
2.12293

>  <r_epik_Charging_Adjusted_Penalty>  (279) 
2.12293

>  <i_epik_Tot_Q>  (279) 
1

>  <i_epik_Tot_abs_Q>  (279) 
1

>  <s_epik_Chemistry_Notes>  (279) 
This compound has an imine and may undergo hydrolysis.

>  <s_lp_Force_Field>  (279) 
OPLS3e

>  <r_lp_Energy>  (279) 
52.1944

>  <b_lp_Chiralities_Consistent>  (279) 
1

>  <s_lp_Variant>  (279) 
94:0-2

>  <s_i_glide_gridfile>  (279) 
pfpi4k_grid

>  <i_i_glide_lignum>  (279) 
2

>  <i_i_glide_rotatable_bonds>  (279) 
0

>  <r_i_docking_score>  (279) 
-3.33548

>  <r_i_glide_ligand_efficiency>  (279) 
-0.175552

>  <r_i_glide_ligand_efficiency_sa>  (279) 
-0.468442

>  <r_i_glide_ligand_efficiency_ln>  (279) 
-0.845616

>  <r_i_glide_gscore>  (279) 
-3.33548

>  <r_i_glide_lipo>  (279) 
-0.132478

>  <r_i_glide_hbond>  (279) 
0

>  <r_i_glide_metal>  (279) 
-0

>  <r_i_glide_rewards>  (279) 
-1.73134

>  <r_i_glide_evdw>  (279) 
-20.5312

>  <r_i_glide_ecoul>  (279) 
-2.69697

>  <r_i_glide_erotb>  (279) 
0

>  <r_i_glide_esite>  (279) 
-0.0405549

>  <r_i_glide_emodel>  (279) 
-29.2026

>  <r_i_glide_energy>  (279) 
-23.2282

>  <r_i_glide_einternal>  (279) 
0

>  <r_i_glide_intrahb_reward>  (279) 
-0

>  <i_i_glide_confnum>  (279) 
1

>  <i_i_glide_posenum>  (279) 
4

>  <r_i_glide_eff_state_penalty>  (279) 
0

>  <ligand_id>  (279) 
94

>  <original_smiles>  (279) 
C1=C2N1CCCC21CCc2cc3ncccc3cc21

>  <smiles>  (279) 
[H]c1nc2c([H])c3c(c([H])c2c([H])c1[H])C1(C2=[N+](C2([H])[H])C([H])([H])C([H])([H])C1([H])[H])C([H])([H])C3([H])[H]

$$$$
94:2:0
     RDKit          3D

 36 40  0  0  1  0  0  0  0  0999 V2000
  -10.0444  -10.9823   -7.5433 C   0  0  0  0  0  0  0  0  0  0  0  0
   -9.2794  -10.0817   -7.8892 C   0  0  0  0  0  0  0  0  0  0  0  0
  -10.6267   -9.7588   -8.1587 N   0  0  0  0  0  0  0  0  0  0  0  0
  -10.6909   -9.4027   -9.5707 C   0  0  0  0  0  0  0  0  0  0  0  0
   -9.5008   -8.5675  -10.1099 C   0  0  0  0  0  0  0  0  0  0  0  0
   -8.1113   -9.1986   -9.8467 C   0  0  0  0  0  0  0  0  0  0  0  0
   -7.9052   -9.6267   -8.3764 C   0  0  2  0  0  0  0  0  0  0  0  0
   -6.7323  -10.6701   -8.2185 C   0  0  0  0  0  0  0  0  0  0  0  0
   -5.8693  -10.2320   -7.0067 C   0  0  0  0  0  0  0  0  0  0  0  0
   -6.3696   -8.8443   -6.6828 C   0  0  0  0  0  0  0  0  0  0  0  0
   -5.8694   -7.9724   -5.7133 C   0  0  0  0  0  0  0  0  0  0  0  0
   -6.5195   -6.7175   -5.5272 C   0  0  0  0  0  0  0  0  0  0  0  0
   -6.0716   -5.8517   -4.6125 N   0  0  0  0  0  0  0  0  0  0  0  0
   -6.6545   -4.6391   -4.3919 C   0  0  0  0  0  0  0  0  0  0  0  0
   -7.7916   -4.2603   -5.1325 C   0  0  0  0  0  0  0  0  0  0  0  0
   -8.3125   -5.1455   -6.1007 C   0  0  0  0  0  0  0  0  0  0  0  0
   -7.6596   -6.3810   -6.3064 C   0  0  0  0  0  0  0  0  0  0  0  0
   -8.1507   -7.2736   -7.2560 C   0  0  0  0  0  0  0  0  0  0  0  0
   -7.4702   -8.4998   -7.4664 C   0  0  0  0  0  0  0  0  0  0  0  0
  -10.5968  -11.8534   -7.2432 H   0  0  0  0  0  0  0  0  0  0  0  0
  -10.8384  -10.2942  -10.1464 H   0  0  0  0  0  0  0  0  0  0  0  0
  -11.5791   -8.8031   -9.6534 H   0  0  0  0  0  0  0  0  0  0  0  0
   -9.6199   -8.4233  -11.1831 H   0  0  0  0  0  0  0  0  0  0  0  0
   -9.5226   -7.5481   -9.7446 H   0  0  0  0  0  0  0  0  0  0  0  0
   -8.0698  -10.0944  -10.4728 H   0  0  0  0  0  0  0  0  0  0  0  0
   -7.2870   -8.5569  -10.1777 H   0  0  0  0  0  0  0  0  0  0  0  0
   -7.0016  -11.7249   -8.1880 H   0  0  0  0  0  0  0  0  0  0  0  0
   -6.0745  -10.5769   -9.0799 H   0  0  0  0  0  0  0  0  0  0  0  0
   -6.0168  -10.8923   -6.1512 H   0  0  0  0  0  0  0  0  0  0  0  0
   -4.7974  -10.1931   -7.2154 H   0  0  0  0  0  0  0  0  0  0  0  0
   -5.0167   -8.2440   -5.1223 H   0  0  0  0  0  0  0  0  0  0  0  0
   -6.2012   -4.0168   -3.6348 H   0  0  0  0  0  0  0  0  0  0  0  0
   -8.2708   -3.3115   -4.9622 H   0  0  0  0  0  0  0  0  0  0  0  0
   -9.1942   -4.8743   -6.6713 H   0  0  0  0  0  0  0  0  0  0  0  0
   -9.0742   -7.0564   -7.7668 H   0  0  0  0  0  0  0  0  0  0  0  0
   -5.2658   -6.1148   -4.0507 H   0  0  0  0  0  0  0  0  0  0  0  0
  1  3  1  0
  1  2  2  0
  1 20  1  0
  2  7  1  0
  2  3  1  0
  3  4  1  0
  4  5  1  0
  4 21  1  0
  4 22  1  0
  5  6  1  0
  5 23  1  0
  5 24  1  0
  7  6  1  6
  6 25  1  0
  6 26  1  0
  7 19  1  0
  7  8  1  0
  8  9  1  0
  8 27  1  0
  8 28  1  0
  9 10  1  0
  9 29  1  0
  9 30  1  0
 10 19  2  0
 10 11  1  0
 11 12  2  0
 11 31  1  0
 12 17  1  0
 12 13  1  0
 13 14  2  0
 13 36  1  0
 14 15  1  0
 14 32  1  0
 15 16  2  0
 15 33  1  0
 16 17  1  0
 16 34  1  0
 17 18  2  0
 18 19  1  0
 18 35  1  0
M  CHG  1  13   1
M  END
>  <i_m_ct_stereo_status>  (280) 
1

>  <s_m_source_file>  (280) 
/var/tmp/pbs.5076255.sched01/tmporjl5eer/117expd_qi0.sdf

>  <i_m_source_file_index>  (280) 
3

>  <i_lp_mmshare_version>  (280) 
48012

>  <i_f3d_flags>  (280) 
0

>  <s_epik_input>  (280) 
W0NIMl0xW0NIMl1bQ0gyXU4oW0NIXT0yKUMyW0NAXTEzYzRjKFtDSDJdW0NIMl0zKVtjSF1jNWMoW2NIXTQpW2NIXVtjSF1bY0hdbjU=

>  <s_epik_cmdline>  (280) 
J2VwaWtfcHl0aG9uJywgJy1waHQnLCAnMi4wJywgJy1waCcsICc3LjAnLCAnLXRuJywgJzgnLCAnLW1hJywgJzIwMCcsICctaW1hZScsICc8aW5maWxlLm1hZT4nLCAnLW9tYWUnLCAnPG91dGZpbGUubWFlPic=

>  <r_epik_Ionization_Penalty>  (280) 
1.90204

>  <r_epik_Ionization_Penalty_Charging>  (280) 
1.90204

>  <r_epik_Ionization_Penalty_Neutral>  (280) 
0

>  <r_epik_State_Penalty>  (280) 
2.18279

>  <r_epik_Charging_Adjusted_Penalty>  (280) 
4.08483

>  <i_epik_Tot_Q>  (280) 
1

>  <i_epik_Tot_abs_Q>  (280) 
1

>  <s_epik_Chemistry_Notes>  (280) 
This compound has an imine and may undergo hydrolysis.

>  <s_lp_Force_Field>  (280) 
OPLS3e

>  <r_lp_Energy>  (280) 
54.0669

>  <b_lp_Chiralities_Consistent>  (280) 
1

>  <s_lp_Variant>  (280) 
94:0-3

>  <s_i_glide_gridfile>  (280) 
pfpi4k_grid

>  <i_i_glide_lignum>  (280) 
3

>  <i_i_glide_rotatable_bonds>  (280) 
0

>  <r_i_docking_score>  (280) 
-6.08316

>  <r_i_glide_ligand_efficiency>  (280) 
-0.320167

>  <r_i_glide_ligand_efficiency_sa>  (280) 
-0.854333

>  <r_i_glide_ligand_efficiency_ln>  (280) 
-1.54221

>  <r_i_glide_gscore>  (280) 
-6.08316

>  <r_i_glide_lipo>  (280) 
-2.80356

>  <r_i_glide_hbond>  (280) 
0

>  <r_i_glide_metal>  (280) 
-0

>  <r_i_glide_rewards>  (280) 
-2.33411

>  <r_i_glide_evdw>  (280) 
-26.0628

>  <r_i_glide_ecoul>  (280) 
-0.152102

>  <r_i_glide_erotb>  (280) 
0

>  <r_i_glide_esite>  (280) 
-0.00457152

>  <r_i_glide_emodel>  (280) 
-30.5593

>  <r_i_glide_energy>  (280) 
-26.2149

>  <r_i_glide_einternal>  (280) 
0

>  <r_i_glide_intrahb_reward>  (280) 
-0

>  <i_i_glide_confnum>  (280) 
1

>  <i_i_glide_posenum>  (280) 
2

>  <r_i_glide_eff_state_penalty>  (280) 
0

>  <ligand_id>  (280) 
94

>  <original_smiles>  (280) 
C1=C2N1CCCC21CCc2cc3ncccc3cc21

>  <smiles>  (280) 
[H]C1=C2N1C([H])([H])C([H])([H])C([H])([H])C21c2c(c([H])c3c(c([H])c([H])c([H])[n+]3[H])c2[H])C([H])([H])C1([H])[H]

$$$$
94:2:1
     RDKit          3D

 36 40  0  0  1  0  0  0  0  0999 V2000
   -6.3266  -11.2022   -9.0436 C   0  0  0  0  0  0  0  0  0  0  0  0
   -7.1542  -10.4954   -8.4278 C   0  0  0  0  0  0  0  0  0  0  0  0
   -6.4634  -11.3639   -7.5656 N   0  0  0  0  0  0  0  0  0  0  0  0
   -7.3847  -12.2494   -6.8916 C   0  0  0  0  0  0  0  0  0  0  0  0
   -8.6400  -11.4894   -6.3997 C   0  0  0  0  0  0  0  0  0  0  0  0
   -9.4212  -10.7341   -7.5093 C   0  0  0  0  0  0  0  0  0  0  0  0
   -8.4956   -9.8095   -8.3716 C   0  0  2  0  0  0  0  0  0  0  0  0
   -9.1895   -9.4260   -9.7292 C   0  0  0  0  0  0  0  0  0  0  0  0
   -8.9887   -7.9058   -9.9366 C   0  0  0  0  0  0  0  0  0  0  0  0
   -8.4718   -7.4160   -8.6096 C   0  0  0  0  0  0  0  0  0  0  0  0
   -8.2020   -6.0896   -8.2379 C   0  0  0  0  0  0  0  0  0  0  0  0
   -7.6784   -5.8491   -6.9445 C   0  0  0  0  0  0  0  0  0  0  0  0
   -7.4347   -4.5938   -6.5110 N   0  0  0  0  0  0  0  0  0  0  0  0
   -6.8937   -4.3159   -5.3014 C   0  0  0  0  0  0  0  0  0  0  0  0
   -6.5893   -5.3427   -4.4117 C   0  0  0  0  0  0  0  0  0  0  0  0
   -6.7972   -6.6592   -4.8268 C   0  0  0  0  0  0  0  0  0  0  0  0
   -7.3449   -6.9247   -6.0968 C   0  0  0  0  0  0  0  0  0  0  0  0
   -7.5741   -8.2466   -6.4981 C   0  0  0  0  0  0  0  0  0  0  0  0
   -8.2173   -8.4632   -7.7368 C   0  0  0  0  0  0  0  0  0  0  0  0
   -5.7350  -11.7876   -9.7398 H   0  0  0  0  0  0  0  0  0  0  0  0
   -7.6172  -13.0896   -7.5429 H   0  0  0  0  0  0  0  0  0  0  0  0
   -6.8146  -12.6182   -6.0356 H   0  0  0  0  0  0  0  0  0  0  0  0
   -9.3135  -12.2106   -5.9830 H   0  0  0  0  0  0  0  0  0  0  0  0
   -8.4070  -10.8174   -5.5814 H   0  0  0  0  0  0  0  0  0  0  0  0
   -9.8440  -11.5065   -8.1708 H   0  0  0  0  0  0  0  0  0  0  0  0
  -10.2932  -10.1734   -7.1138 H   0  0  0  0  0  0  0  0  0  0  0  0
   -8.9244  -10.0114  -10.5958 H   0  0  0  0  0  0  0  0  0  0  0  0
  -10.2679   -9.5422   -9.6296 H   0  0  0  0  0  0  0  0  0  0  0  0
   -8.2539   -7.7001  -10.7179 H   0  0  0  0  0  0  0  0  0  0  0  0
   -9.9027   -7.3668  -10.1926 H   0  0  0  0  0  0  0  0  0  0  0  0
   -8.4040   -5.2830   -8.9099 H   0  0  0  0  0  0  0  0  0  0  0  0
   -6.7163   -3.2913   -5.0386 H   0  0  0  0  0  0  0  0  0  0  0  0
   -6.2275   -5.1226   -3.4177 H   0  0  0  0  0  0  0  0  0  0  0  0
   -6.5847   -7.4543   -4.1242 H   0  0  0  0  0  0  0  0  0  0  0  0
   -7.3144   -9.0678   -5.8458 H   0  0  0  0  0  0  0  0  0  0  0  0
   -7.6147   -3.8257   -7.1494 H   0  0  0  0  0  0  0  0  0  0  0  0
  1  3  1  0
  1  2  2  0
  1 20  1  0
  2  7  1  0
  2  3  1  0
  3  4  1  0
  4  5  1  0
  4 21  1  0
  4 22  1  0
  5  6  1  0
  5 23  1  0
  5 24  1  0
  7  6  1  1
  6 25  1  0
  6 26  1  0
  7 19  1  0
  7  8  1  0
  8  9  1  0
  8 27  1  0
  8 28  1  0
  9 10  1  0
  9 29  1  0
  9 30  1  0
 10 19  2  0
 10 11  1  0
 11 12  2  0
 11 31  1  0
 12 17  1  0
 12 13  1  0
 13 14  2  0
 13 36  1  0
 14 15  1  0
 14 32  1  0
 15 16  2  0
 15 33  1  0
 16 17  1  0
 16 34  1  0
 17 18  2  0
 18 19  1  0
 18 35  1  0
M  CHG  1  13   1
M  END
>  <i_m_ct_stereo_status>  (281) 
1

>  <s_m_source_file>  (281) 
/var/tmp/pbs.5076255.sched01/tmporjl5eer/117expd_qi0.sdf

>  <i_m_source_file_index>  (281) 
3

>  <i_lp_mmshare_version>  (281) 
48012

>  <i_f3d_flags>  (281) 
0

>  <s_epik_input>  (281) 
W0NIMl0xW0NIMl1bQ0gyXU4oW0NIXT0yKUMyW0NAXTEzYzRjKFtDSDJdW0NIMl0zKVtjSF1jNWMoW2NIXTQpW2NIXVtjSF1bY0hdbjU=

>  <s_epik_cmdline>  (281) 
J2VwaWtfcHl0aG9uJywgJy1waHQnLCAnMi4wJywgJy1waCcsICc3LjAnLCAnLXRuJywgJzgnLCAnLW1hJywgJzIwMCcsICctaW1hZScsICc8aW5maWxlLm1hZT4nLCAnLW9tYWUnLCAnPG91dGZpbGUubWFlPic=

>  <r_epik_Ionization_Penalty>  (281) 
1.90204

>  <r_epik_Ionization_Penalty_Charging>  (281) 
1.90204

>  <r_epik_Ionization_Penalty_Neutral>  (281) 
0

>  <r_epik_State_Penalty>  (281) 
2.18279

>  <r_epik_Charging_Adjusted_Penalty>  (281) 
4.08483

>  <i_epik_Tot_Q>  (281) 
1

>  <i_epik_Tot_abs_Q>  (281) 
1

>  <s_epik_Chemistry_Notes>  (281) 
This compound has an imine and may undergo hydrolysis.

>  <s_lp_Force_Field>  (281) 
OPLS3e

>  <r_lp_Energy>  (281) 
54.0669

>  <b_lp_Chiralities_Consistent>  (281) 
1

>  <s_lp_Variant>  (281) 
94:0-3

>  <s_i_glide_gridfile>  (281) 
pfpi4k_grid

>  <i_i_glide_lignum>  (281) 
3

>  <i_i_glide_rotatable_bonds>  (281) 
0

>  <r_i_docking_score>  (281) 
-3.86509

>  <r_i_glide_ligand_efficiency>  (281) 
-0.203426

>  <r_i_glide_ligand_efficiency_sa>  (281) 
-0.542822

>  <r_i_glide_ligand_efficiency_ln>  (281) 
-0.979883

>  <r_i_glide_gscore>  (281) 
-3.86509

>  <r_i_glide_lipo>  (281) 
-2.42154

>  <r_i_glide_hbond>  (281) 
0

>  <r_i_glide_metal>  (281) 
-0

>  <r_i_glide_rewards>  (281) 
-2.12903

>  <r_i_glide_evdw>  (281) 
-15.6176

>  <r_i_glide_ecoul>  (281) 
-0.032747

>  <r_i_glide_erotb>  (281) 
0

>  <r_i_glide_esite>  (281) 
0

>  <r_i_glide_emodel>  (281) 
-13.9202

>  <r_i_glide_energy>  (281) 
-15.6504

>  <r_i_glide_einternal>  (281) 
0

>  <r_i_glide_intrahb_reward>  (281) 
-0

>  <i_i_glide_confnum>  (281) 
1

>  <i_i_glide_posenum>  (281) 
1

>  <r_i_glide_eff_state_penalty>  (281) 
0

>  <ligand_id>  (281) 
94

>  <original_smiles>  (281) 
C1=C2N1CCCC21CCc2cc3ncccc3cc21

>  <smiles>  (281) 
[H]C1=C2N1C([H])([H])C([H])([H])C([H])([H])C21c2c(c([H])c3c(c([H])c([H])c([H])[n+]3[H])c2[H])C([H])([H])C1([H])[H]

$$$$
95:0:0
     RDKit          3D

 91 98  0  0  1  0  0  0  0  0999 V2000
   -2.2617    3.6955    3.2599 C   0  0  0  0  0  0  0  0  0  0  0  0
   -0.9737    3.0058    3.7155 C   0  0  2  0  0  0  0  0  0  0  0  0
    0.2675    3.9021    3.7669 C   0  0  0  0  0  0  0  0  0  0  0  0
    1.3879    3.0280    3.6434 O   0  0  0  0  0  0  0  0  0  0  0  0
    0.9895    1.7674    3.1733 C   0  0  1  0  0  0  0  0  0  0  0  0
   -0.4973    1.8872    2.8063 C   0  0  0  0  0  0  0  0  0  0  0  0
    1.7040    1.3788    2.0394 O   0  0  0  0  0  0  0  0  0  0  0  0
    2.9083    0.7246    2.4345 C   0  0  2  0  0  0  0  0  0  0  0  0
    3.0435   -0.6695    1.8144 C   0  0  0  0  0  0  0  0  0  0  0  0
    3.8328   -1.4994    2.8510 C   0  0  2  0  0  0  0  0  0  0  0  0
    3.7189   -3.0608    2.7430 C   0  0  2  0  0  0  0  0  0  0  0  0
    2.3660   -3.6360    2.2828 C   0  0  0  0  0  0  0  0  0  0  0  0
    2.3938   -5.1634    2.1534 C   0  0  0  0  0  0  0  0  0  0  0  0
    2.8458   -5.8978    3.4406 C   0  0  1  0  0  0  0  0  0  0  0  0
    2.8633   -7.4622    3.3017 C   0  0  2  0  0  0  0  0  0  0  0  0
    4.0396   -7.9407    2.3918 C   0  0  2  0  0  0  0  0  0  0  0  0
    4.1863   -9.4723    2.4120 C   0  0  0  0  0  0  0  0  0  0  0  0
    2.8742  -10.1812    2.0878 C   0  0  0  0  0  0  0  0  0  0  0  0
    1.7056   -9.7392    2.9862 C   0  0  1  0  0  0  0  0  0  0  0  0
    1.8178  -10.2750    4.4297 C   0  0  0  0  0  0  0  0  0  0  0  0
    2.7152  -11.0338    4.7916 O   0  0  0  0  0  0  0  0  0  0  0  0
    0.7284   -9.8229    5.4054 C   0  0  0  0  0  0  0  0  0  0  0  0
    0.4655   -8.3099    5.2940 C   0  0  0  0  0  0  0  0  0  0  0  0
    0.2572   -7.8758    3.8329 C   0  0  1  0  0  0  0  0  0  0  0  0
   -0.1558   -6.5243    3.7957 O   0  0  0  0  0  0  0  0  0  0  0  0
    1.5039   -8.1927    2.9411 C   0  0  1  0  0  0  0  0  0  0  0  0
    1.1234   -7.8918    1.6097 O   0  0  0  0  0  0  0  0  0  0  0  0
    5.3911   -7.3093    2.7855 C   0  0  0  0  0  0  0  0  0  0  0  0
    5.3239   -5.7842    2.9677 C   0  0  0  0  0  0  0  0  0  0  0  0
    4.2123   -5.3298    3.9537 C   0  0  2  0  0  0  0  0  0  0  0  0
    4.5644   -5.8773    5.3673 C   0  0  0  0  0  0  0  0  0  0  0  0
    4.1590   -3.7584    4.0544 C   0  0  2  0  0  0  0  0  0  0  0  0
    3.3389   -3.2328    5.2703 C   0  0  0  0  0  0  0  0  0  0  0  0
    2.6982   -1.8422    5.0972 C   0  0  0  0  0  0  0  0  0  0  0  0
    3.5390   -0.8671    4.2476 C   0  0  1  0  0  0  0  0  0  0  0  0
    4.8570   -0.5479    4.9962 C   0  0  0  0  0  0  0  0  0  0  0  0
    2.8364    0.5002    3.9454 C   0  0  2  0  0  0  0  0  0  0  0  0
    1.3448    0.6897    4.2218 C   0  0  1  0  0  0  0  0  0  0  0  0
    1.0162    1.1162    5.6695 C   0  0  0  0  0  0  0  0  0  0  0  0
   -2.1512    4.1523    2.2760 H   0  0  0  0  0  0  0  0  0  0  0  0
   -2.5528    4.4723    3.9653 H   0  0  0  0  0  0  0  0  0  0  0  0
   -3.0816    2.9794    3.2079 H   0  0  0  0  0  0  0  0  0  0  0  0
   -1.1704    2.6200    4.7118 H   0  0  0  0  0  0  0  0  0  0  0  0
    0.2861    4.6193    2.9446 H   0  0  0  0  0  0  0  0  0  0  0  0
    0.3240    4.4641    4.7014 H   0  0  0  0  0  0  0  0  0  0  0  0
   -1.0229    0.9416    2.9387 H   0  0  0  0  0  0  0  0  0  0  0  0
   -0.5754    2.1741    1.7574 H   0  0  0  0  0  0  0  0  0  0  0  0
    3.7728    1.3401    2.1869 H   0  0  0  0  0  0  0  0  0  0  0  0
    2.0414   -1.0710    1.6591 H   0  0  0  0  0  0  0  0  0  0  0  0
    3.5412   -0.6398    0.8423 H   0  0  0  0  0  0  0  0  0  0  0  0
    4.8823   -1.2760    2.6496 H   0  0  0  0  0  0  0  0  0  0  0  0
    4.4238   -3.3234    1.9546 H   0  0  0  0  0  0  0  0  0  0  0  0
    1.5540   -3.3486    2.9463 H   0  0  0  0  0  0  0  0  0  0  0  0
    2.1224   -3.2340    1.3013 H   0  0  0  0  0  0  0  0  0  0  0  0
    1.3911   -5.4707    1.8780 H   0  0  0  0  0  0  0  0  0  0  0  0
    3.0235   -5.4422    1.3113 H   0  0  0  0  0  0  0  0  0  0  0  0
    2.1263   -5.6609    4.2172 H   0  0  0  0  0  0  0  0  0  0  0  0
    3.1137   -7.8311    4.2938 H   0  0  0  0  0  0  0  0  0  0  0  0
    3.8248   -7.6526    1.3618 H   0  0  0  0  0  0  0  0  0  0  0  0
    4.9356   -9.7841    1.6827 H   0  0  0  0  0  0  0  0  0  0  0  0
    4.5608   -9.8065    3.3812 H   0  0  0  0  0  0  0  0  0  0  0  0
    2.6213  -10.0035    1.0414 H   0  0  0  0  0  0  0  0  0  0  0  0
    3.0174  -11.2573    2.1751 H   0  0  0  0  0  0  0  0  0  0  0  0
    0.8071  -10.2181    2.5949 H   0  0  0  0  0  0  0  0  0  0  0  0
   -0.1804  -10.3647    5.1592 H   0  0  0  0  0  0  0  0  0  0  0  0
    1.0018  -10.1019    6.4241 H   0  0  0  0  0  0  0  0  0  0  0  0
   -0.4236   -8.0703    5.8775 H   0  0  0  0  0  0  0  0  0  0  0  0
    1.2860   -7.7518    5.7518 H   0  0  0  0  0  0  0  0  0  0  0  0
   -0.5898   -8.4469    3.4465 H   0  0  0  0  0  0  0  0  0  0  0  0
    0.5491   -6.0030    4.1462 H   0  0  0  0  0  0  0  0  0  0  0  0
    0.6363   -8.6288    1.2529 H   0  0  0  0  0  0  0  0  0  0  0  0
    5.7770   -7.7824    3.6888 H   0  0  0  0  0  0  0  0  0  0  0  0
    6.1242   -7.5339    2.0096 H   0  0  0  0  0  0  0  0  0  0  0  0
    6.2963   -5.4132    3.2929 H   0  0  0  0  0  0  0  0  0  0  0  0
    5.1657   -5.3581    1.9791 H   0  0  0  0  0  0  0  0  0  0  0  0
    5.4552   -5.3856    5.7623 H   0  0  0  0  0  0  0  0  0  0  0  0
    4.7695   -6.9439    5.3864 H   0  0  0  0  0  0  0  0  0  0  0  0
    3.7578   -5.7267    6.0823 H   0  0  0  0  0  0  0  0  0  0  0  0
    5.1893   -3.4408    4.2265 H   0  0  0  0  0  0  0  0  0  0  0  0
    2.5441   -3.9271    5.5371 H   0  0  0  0  0  0  0  0  0  0  0  0
    3.9992   -3.2012    6.1350 H   0  0  0  0  0  0  0  0  0  0  0  0
    1.7255   -1.9786    4.6337 H   0  0  0  0  0  0  0  0  0  0  0  0
    2.5065   -1.4252    6.0841 H   0  0  0  0  0  0  0  0  0  0  0  0
    4.6542   -0.1111    5.9748 H   0  0  0  0  0  0  0  0  0  0  0  0
    5.4721    0.1623    4.4444 H   0  0  0  0  0  0  0  0  0  0  0  0
    5.4654   -1.4340    5.1629 H   0  0  0  0  0  0  0  0  0  0  0  0
    3.3704    1.3268    4.4182 H   0  0  0  0  0  0  0  0  0  0  0  0
    0.7907   -0.2021    3.9396 H   0  0  0  0  0  0  0  0  0  0  0  0
    1.5226    2.0399    5.9525 H   0  0  0  0  0  0  0  0  0  0  0  0
    1.3191    0.3615    6.3864 H   0  0  0  0  0  0  0  0  0  0  0  0
   -0.0501    1.2558    5.8183 H   0  0  0  0  0  0  0  0  0  0  0  0
  1  2  1  0
  1 40  1  0
  1 41  1  0
  1 42  1  0
  2  6  1  0
  2  3  1  0
  2 43  1  1
  3  4  1  0
  3 44  1  0
  3 45  1  0
  5  4  1  1
  5 38  1  0
  5  6  1  0
  5  7  1  0
  6 46  1  0
  6 47  1  0
  7  8  1  0
  8 37  1  0
  8  9  1  0
  8 48  1  1
  9 10  1  0
  9 49  1  0
  9 50  1  0
 10 35  1  0
 10 11  1  0
 10 51  1  6
 11 32  1  0
 11 12  1  0
 11 52  1  6
 12 13  1  0
 12 53  1  0
 12 54  1  0
 13 14  1  0
 13 55  1  0
 13 56  1  0
 14 30  1  0
 14 15  1  0
 14 57  1  1
 15 26  1  0
 15 16  1  0
 15 58  1  1
 16 17  1  0
 16 28  1  0
 16 59  1  6
 17 18  1  0
 17 60  1  0
 17 61  1  0
 18 19  1  0
 18 62  1  0
 18 63  1  0
 19 26  1  0
 19 20  1  0
 19 64  1  6
 20 21  2  0
 20 22  1  0
 22 23  1  0
 22 65  1  0
 22 66  1  0
 23 24  1  0
 23 67  1  0
 23 68  1  0
 24 25  1  0
 24 26  1  0
 24 69  1  6
 25 70  1  0
 26 27  1  6
 27 71  1  0
 28 29  1  0
 28 72  1  0
 28 73  1  0
 29 30  1  0
 29 74  1  0
 29 75  1  0
 30 31  1  1
 30 32  1  0
 31 76  1  0
 31 77  1  0
 31 78  1  0
 32 33  1  0
 32 79  1  1
 33 34  1  0
 33 80  1  0
 33 81  1  0
 34 35  1  0
 34 82  1  0
 34 83  1  0
 35 36  1  1
 35 37  1  0
 36 84  1  0
 36 85  1  0
 36 86  1  0
 37 38  1  0
 37 87  1  1
 38 39  1  0
 38 88  1  6
 39 89  1  0
 39 90  1  0
 39 91  1  0
M  END
>  <i_m_ct_stereo_status>  (282) 
1

>  <s_m_source_file>  (282) 
/var/tmp/pbs.5076255.sched01/tmporjl5eer/117expd_qi0.sdf

>  <i_m_source_file_index>  (282) 
4

>  <i_lp_mmshare_version>  (282) 
48012

>  <i_f3d_flags>  (282) 
0

>  <s_epik_input>  (282) 
W0NIM11bQ0BASF0oW0NIMl0xKVtDSDJdT1tDQF0xMk9bQ0BIXTNbQ0BASF0oW0NASF0yW0NIM10pW0NAXTQoW0NIM10pW0NASF0oW0NIMl0zKVtDQEhdNVtDQEBIXShbQ0gyXVtDSDJdNClbQ0BAXTYoW0NIM10pW0NAQEhdKFtDSDJdW0NIMl01KVtDQEBIXTdbQ0BASF0oW0NIMl1bQ0gyXTYpW0NIMl1bQ0gyXVtDQEBIXThbQ0BAXTcoW09IXSlbQ0BIXShbT0hdKVtDSDJdW0NIMl1DOD1P

>  <s_epik_cmdline>  (282) 
J2VwaWtfcHl0aG9uJywgJy1waHQnLCAnMi4wJywgJy1waCcsICc3LjAnLCAnLXRuJywgJzgnLCAnLW1hJywgJzIwMCcsICctaW1hZScsICc8aW5maWxlLm1hZT4nLCAnLW9tYWUnLCAnPG91dGZpbGUubWFlPic=

>  <r_lp_tautomer_probability>  (282) 
1

>  <r_epik_Ionization_Penalty>  (282) 
2.01399e-07

>  <r_epik_Ionization_Penalty_Charging>  (282) 
0

>  <r_epik_Ionization_Penalty_Neutral>  (282) 
2.01399e-07

>  <r_epik_State_Penalty>  (282) 
-0

>  <r_epik_Charging_Adjusted_Penalty>  (282) 
0

>  <i_epik_Tot_Q>  (282) 
0

>  <i_epik_Tot_abs_Q>  (282) 
0

>  <s_lp_Force_Field>  (282) 
OPLS3e

>  <r_lp_Energy>  (282) 
53.3928

>  <b_lp_Chiralities_Consistent>  (282) 
1

>  <s_lp_Variant>  (282) 
95:0-1

>  <s_i_glide_gridfile>  (282) 
pfpi4k_grid

>  <i_i_glide_lignum>  (282) 
4

>  <i_i_glide_rotatable_bonds>  (282) 
2

>  <r_i_docking_score>  (282) 
-2.50469

>  <r_i_glide_ligand_efficiency>  (282) 
-0.0642227

>  <r_i_glide_ligand_efficiency_sa>  (282) 
-0.217793

>  <r_i_glide_ligand_efficiency_ln>  (282) 
-0.537076

>  <r_i_glide_gscore>  (282) 
-2.50469

>  <r_i_glide_lipo>  (282) 
-0.147994

>  <r_i_glide_hbond>  (282) 
0

>  <r_i_glide_metal>  (282) 
-0

>  <r_i_glide_rewards>  (282) 
0

>  <r_i_glide_evdw>  (282) 
-34.2991

>  <r_i_glide_ecoul>  (282) 
-3.87797

>  <r_i_glide_erotb>  (282) 
0

>  <r_i_glide_esite>  (282) 
-0.0600427

>  <r_i_glide_emodel>  (282) 
-43.4141

>  <r_i_glide_energy>  (282) 
-38.1771

>  <r_i_glide_einternal>  (282) 
0.527839

>  <r_i_glide_intrahb_reward>  (282) 
-0

>  <i_i_glide_confnum>  (282) 
1

>  <i_i_glide_posenum>  (282) 
38

>  <r_i_glide_eff_state_penalty>  (282) 
0

>  <ligand_id>  (282) 
95

>  <original_smiles>  (282) 
CC1COC2(C1)OC1CC3C4CCC5C6C(CCC7C(=O)CCC(O)C76O)CCC5(C)C4CCC3(C)C1C2C

>  <smiles>  (282) 
[H]OC1([H])C([H])([H])C([H])([H])C(=O)C2([H])C([H])([H])C([H])([H])C3([H])C([H])([H])C([H])([H])C4(C([H])([H])[H])C5([H])C([H])([H])C([H])([H])C6(C([H])([H])[H])C([H])(C([H])([H])C7([H])OC8(OC([H])([H])C([H])(C([H])([H])[H])C8([H])[H])C([H])(C([H])([H])[H])C76[H])C5([H])C([H])([H])C([H])([H])C4([H])C3([H])C12O[H]

$$$$
95:0:1
     RDKit          3D

 91 98  0  0  1  0  0  0  0  0999 V2000
   -2.9581    3.4151    2.5727 C   0  0  0  0  0  0  0  0  0  0  0  0
   -2.1892    2.6159    3.6218 C   0  0  2  0  0  0  0  0  0  0  0  0
   -1.4834    3.4485    4.6951 C   0  0  0  0  0  0  0  0  0  0  0  0
   -0.4264    2.6321    5.1916 O   0  0  0  0  0  0  0  0  0  0  0  0
   -0.1722    1.5563    4.3265 C   0  0  1  0  0  0  0  0  0  0  0  0
   -1.0296    1.8005    3.0739 C   0  0  0  0  0  0  0  0  0  0  0  0
    1.1665    1.4908    3.9543 O   0  0  0  0  0  0  0  0  0  0  0  0
    1.9044    0.7377    4.9167 C   0  0  2  0  0  0  0  0  0  0  0  0
    2.6599   -0.4332    4.2833 C   0  0  0  0  0  0  0  0  0  0  0  0
    2.6931   -1.5312    5.3673 C   0  0  2  0  0  0  0  0  0  0  0  0
    2.9684   -2.9979    4.8802 C   0  0  2  0  0  0  0  0  0  0  0  0
    2.3929   -3.4049    3.5070 C   0  0  0  0  0  0  0  0  0  0  0  0
    2.7770   -4.8360    3.1139 C   0  0  0  0  0  0  0  0  0  0  0  0
    2.3936   -5.9077    4.1699 C   0  0  1  0  0  0  0  0  0  0  0  0
    2.7867   -7.3744    3.7569 C   0  0  2  0  0  0  0  0  0  0  0  0
    4.3312   -7.5958    3.8312 C   0  0  2  0  0  0  0  0  0  0  0  0
    4.7062   -9.0750    3.6168 C   0  0  0  0  0  0  0  0  0  0  0  0
    4.1006   -9.6528    2.3356 C   0  0  0  0  0  0  0  0  0  0  0  0
    2.5704   -9.4579    2.2567 C   0  0  1  0  0  0  0  0  0  0  0  0
    1.7831  -10.3697    3.2210 C   0  0  0  0  0  0  0  0  0  0  0  0
    2.3263  -11.2203    3.9262 O   0  0  0  0  0  0  0  0  0  0  0  0
    0.2657  -10.1851    3.2388 C   0  0  0  0  0  0  0  0  0  0  0  0
   -0.1310   -8.6986    3.3075 C   0  0  0  0  0  0  0  0  0  0  0  0
    0.6193   -7.8609    2.2550 C   0  0  1  0  0  0  0  0  0  0  0  0
    0.1273   -6.5379    2.2457 O   0  0  0  0  0  0  0  0  0  0  0  0
    2.1714   -7.9615    2.4220 C   0  0  1  0  0  0  0  0  0  0  0  0
    2.7384   -7.3200    1.2981 O   0  0  0  0  0  0  0  0  0  0  0  0
    4.9332   -7.1157    5.1672 C   0  0  0  0  0  0  0  0  0  0  0  0
    4.4864   -5.7012    5.5685 C   0  0  0  0  0  0  0  0  0  0  0  0
    2.9417   -5.5239    5.5860 C   0  0  2  0  0  0  0  0  0  0  0  0
    2.3602   -6.4476    6.6958 C   0  0  0  0  0  0  0  0  0  0  0  0
    2.5486   -4.0397    5.9485 C   0  0  2  0  0  0  0  0  0  0  0  0
    1.0509   -3.8679    6.3408 C   0  0  0  0  0  0  0  0  0  0  0  0
    0.4451   -2.4758    6.0755 C   0  0  0  0  0  0  0  0  0  0  0  0
    1.4408   -1.3095    6.2689 C   0  0  1  0  0  0  0  0  0  0  0  0
    1.8448   -1.2324    7.7622 C   0  0  0  0  0  0  0  0  0  0  0  0
    0.8932    0.1000    5.8653 C   0  0  2  0  0  0  0  0  0  0  0  0
   -0.4100    0.2243    5.0684 C   0  0  1  0  0  0  0  0  0  0  0  0
   -1.6833    0.2310    5.9381 C   0  0  0  0  0  0  0  0  0  0  0  0
   -2.3008    4.1373    2.0910 H   0  0  0  0  0  0  0  0  0  0  0  0
   -3.7926    3.9610    3.0004 H   0  0  0  0  0  0  0  0  0  0  0  0
   -3.3771    2.7512    1.8166 H   0  0  0  0  0  0  0  0  0  0  0  0
   -2.9220    1.9608    4.0867 H   0  0  0  0  0  0  0  0  0  0  0  0
   -1.0462    4.3566    4.2780 H   0  0  0  0  0  0  0  0  0  0  0  0
   -2.1630    3.7317    5.5001 H   0  0  0  0  0  0  0  0  0  0  0  0
   -1.3305    0.8652    2.6047 H   0  0  0  0  0  0  0  0  0  0  0  0
   -0.4506    2.3809    2.3532 H   0  0  0  0  0  0  0  0  0  0  0  0
    2.5789    1.3888    5.4723 H   0  0  0  0  0  0  0  0  0  0  0  0
    2.1038   -0.7654    3.4051 H   0  0  0  0  0  0  0  0  0  0  0  0
    3.6605   -0.1463    3.9539 H   0  0  0  0  0  0  0  0  0  0  0  0
    3.5500   -1.2815    5.9929 H   0  0  0  0  0  0  0  0  0  0  0  0
    4.0494   -3.0413    4.7608 H   0  0  0  0  0  0  0  0  0  0  0  0
    1.3095   -3.3070    3.4732 H   0  0  0  0  0  0  0  0  0  0  0  0
    2.7853   -2.7470    2.7338 H   0  0  0  0  0  0  0  0  0  0  0  0
    2.2846   -5.0275    2.1668 H   0  0  0  0  0  0  0  0  0  0  0  0
    3.8440   -4.8744    2.9067 H   0  0  0  0  0  0  0  0  0  0  0  0
    1.3152   -5.8887    4.2770 H   0  0  0  0  0  0  0  0  0  0  0  0
    2.3777   -8.0062    4.5440 H   0  0  0  0  0  0  0  0  0  0  0  0
    4.8058   -7.0292    3.0300 H   0  0  0  0  0  0  0  0  0  0  0  0
    5.7895   -9.1774    3.5659 H   0  0  0  0  0  0  0  0  0  0  0  0
    4.3904   -9.6736    4.4714 H   0  0  0  0  0  0  0  0  0  0  0  0
    4.5706   -9.1895    1.4685 H   0  0  0  0  0  0  0  0  0  0  0  0
    4.3519  -10.7097    2.2653 H   0  0  0  0  0  0  0  0  0  0  0  0
    2.2590   -9.7807    1.2625 H   0  0  0  0  0  0  0  0  0  0  0  0
   -0.1342  -10.6324    2.3283 H   0  0  0  0  0  0  0  0  0  0  0  0
   -0.1607  -10.7354    4.0803 H   0  0  0  0  0  0  0  0  0  0  0  0
   -1.2083   -8.6217    3.1594 H   0  0  0  0  0  0  0  0  0  0  0  0
    0.0629   -8.3189    4.3123 H   0  0  0  0  0  0  0  0  0  0  0  0
    0.3603   -8.2555    1.2743 H   0  0  0  0  0  0  0  0  0  0  0  0
    0.4455   -6.1285    3.0396 H   0  0  0  0  0  0  0  0  0  0  0  0
    2.6081   -6.3901    1.4027 H   0  0  0  0  0  0  0  0  0  0  0  0
    4.7031   -7.8303    5.9590 H   0  0  0  0  0  0  0  0  0  0  0  0
    6.0184   -7.1207    5.0801 H   0  0  0  0  0  0  0  0  0  0  0  0
    4.9075   -5.4481    6.5409 H   0  0  0  0  0  0  0  0  0  0  0  0
    4.9468   -5.0122    4.8633 H   0  0  0  0  0  0  0  0  0  0  0  0
    2.6560   -6.0951    7.6844 H   0  0  0  0  0  0  0  0  0  0  0  0
    2.6948   -7.4782    6.6231 H   0  0  0  0  0  0  0  0  0  0  0  0
    1.2738   -6.4938    6.6675 H   0  0  0  0  0  0  0  0  0  0  0  0
    3.1247   -3.7983    6.8423 H   0  0  0  0  0  0  0  0  0  0  0  0
    0.4254   -4.6033    5.8373 H   0  0  0  0  0  0  0  0  0  0  0  0
    0.9562   -4.0834    7.4028 H   0  0  0  0  0  0  0  0  0  0  0  0
    0.0713   -2.4622    5.0546 H   0  0  0  0  0  0  0  0  0  0  0  0
   -0.4225   -2.3502    6.7198 H   0  0  0  0  0  0  0  0  0  0  0  0
    0.9713   -1.0854    8.3983 H   0  0  0  0  0  0  0  0  0  0  0  0
    2.5260   -0.4036    7.9507 H   0  0  0  0  0  0  0  0  0  0  0  0
    2.3440   -2.1363    8.1078 H   0  0  0  0  0  0  0  0  0  0  0  0
    0.8060    0.7467    6.7406 H   0  0  0  0  0  0  0  0  0  0  0  0
   -0.4672   -0.5483    4.3058 H   0  0  0  0  0  0  0  0  0  0  0  0
   -1.6749    1.0317    6.6858 H   0  0  0  0  0  0  0  0  0  0  0  0
   -1.7812   -0.7086    6.4728 H   0  0  0  0  0  0  0  0  0  0  0  0
   -2.5735    0.3285    5.3290 H   0  0  0  0  0  0  0  0  0  0  0  0
  1  2  1  0
  1 40  1  0
  1 41  1  0
  1 42  1  0
  2  6  1  0
  2  3  1  0
  2 43  1  1
  3  4  1  0
  3 44  1  0
  3 45  1  0
  5  4  1  1
  5 38  1  0
  5  6  1  0
  5  7  1  0
  6 46  1  0
  6 47  1  0
  7  8  1  0
  8 37  1  0
  8  9  1  0
  8 48  1  1
  9 10  1  0
  9 49  1  0
  9 50  1  0
 10 35  1  0
 10 11  1  0
 10 51  1  1
 11 32  1  0
 11 12  1  0
 11 52  1  6
 12 13  1  0
 12 53  1  0
 12 54  1  0
 13 14  1  0
 13 55  1  0
 13 56  1  0
 14 30  1  0
 14 15  1  0
 14 57  1  1
 15 26  1  0
 15 16  1  0
 15 58  1  1
 16 17  1  0
 16 28  1  0
 16 59  1  6
 17 18  1  0
 17 60  1  0
 17 61  1  0
 18 19  1  0
 18 62  1  0
 18 63  1  0
 19 26  1  0
 19 20  1  0
 19 64  1  6
 20 21  2  0
 20 22  1  0
 22 23  1  0
 22 65  1  0
 22 66  1  0
 23 24  1  0
 23 67  1  0
 23 68  1  0
 24 25  1  0
 24 26  1  0
 24 69  1  6
 25 70  1  0
 26 27  1  6
 27 71  1  0
 28 29  1  0
 28 72  1  0
 28 73  1  0
 29 30  1  0
 29 74  1  0
 29 75  1  0
 30 31  1  1
 30 32  1  0
 31 76  1  0
 31 77  1  0
 31 78  1  0
 32 33  1  0
 32 79  1  1
 33 34  1  0
 33 80  1  0
 33 81  1  0
 34 35  1  0
 34 82  1  0
 34 83  1  0
 35 36  1  1
 35 37  1  0
 36 84  1  0
 36 85  1  0
 36 86  1  0
 37 38  1  0
 37 87  1  1
 38 39  1  0
 38 88  1  6
 39 89  1  0
 39 90  1  0
 39 91  1  0
M  END
>  <i_m_ct_stereo_status>  (283) 
1

>  <s_m_source_file>  (283) 
/var/tmp/pbs.5076255.sched01/tmporjl5eer/117expd_qi0.sdf

>  <i_m_source_file_index>  (283) 
4

>  <i_lp_mmshare_version>  (283) 
48012

>  <i_f3d_flags>  (283) 
0

>  <s_epik_input>  (283) 
W0NIM11bQ0BASF0oW0NIMl0xKVtDSDJdT1tDQF0xMk9bQ0BIXTNbQ0BASF0oW0NASF0yW0NIM10pW0NAXTQoW0NIM10pW0NASF0oW0NIMl0zKVtDQEhdNVtDQEBIXShbQ0gyXVtDSDJdNClbQ0BAXTYoW0NIM10pW0NAQEhdKFtDSDJdW0NIMl01KVtDQEBIXTdbQ0BASF0oW0NIMl1bQ0gyXTYpW0NIMl1bQ0gyXVtDQEBIXThbQ0BAXTcoW09IXSlbQ0BIXShbT0hdKVtDSDJdW0NIMl1DOD1P

>  <s_epik_cmdline>  (283) 
J2VwaWtfcHl0aG9uJywgJy1waHQnLCAnMi4wJywgJy1waCcsICc3LjAnLCAnLXRuJywgJzgnLCAnLW1hJywgJzIwMCcsICctaW1hZScsICc8aW5maWxlLm1hZT4nLCAnLW9tYWUnLCAnPG91dGZpbGUubWFlPic=

>  <r_lp_tautomer_probability>  (283) 
1

>  <r_epik_Ionization_Penalty>  (283) 
2.01399e-07

>  <r_epik_Ionization_Penalty_Charging>  (283) 
0

>  <r_epik_Ionization_Penalty_Neutral>  (283) 
2.01399e-07

>  <r_epik_State_Penalty>  (283) 
-0

>  <r_epik_Charging_Adjusted_Penalty>  (283) 
0

>  <i_epik_Tot_Q>  (283) 
0

>  <i_epik_Tot_abs_Q>  (283) 
0

>  <s_lp_Force_Field>  (283) 
OPLS3e

>  <r_lp_Energy>  (283) 
53.3928

>  <b_lp_Chiralities_Consistent>  (283) 
1

>  <s_lp_Variant>  (283) 
95:0-1

>  <s_i_glide_gridfile>  (283) 
pfpi4k_grid

>  <i_i_glide_lignum>  (283) 
4

>  <i_i_glide_rotatable_bonds>  (283) 
2

>  <r_i_docking_score>  (283) 
-2.20581

>  <r_i_glide_ligand_efficiency>  (283) 
-0.0565592

>  <r_i_glide_ligand_efficiency_sa>  (283) 
-0.191804

>  <r_i_glide_ligand_efficiency_ln>  (283) 
-0.472988

>  <r_i_glide_gscore>  (283) 
-2.20581

>  <r_i_glide_lipo>  (283) 
-0.00251042

>  <r_i_glide_hbond>  (283) 
0

>  <r_i_glide_metal>  (283) 
-0

>  <r_i_glide_rewards>  (283) 
-0.114898

>  <r_i_glide_evdw>  (283) 
-33.0839

>  <r_i_glide_ecoul>  (283) 
-2.79336

>  <r_i_glide_erotb>  (283) 
0

>  <r_i_glide_esite>  (283) 
-0.0152034

>  <r_i_glide_emodel>  (283) 
-40.4899

>  <r_i_glide_energy>  (283) 
-35.8772

>  <r_i_glide_einternal>  (283) 
0.150328

>  <r_i_glide_intrahb_reward>  (283) 
-0

>  <i_i_glide_confnum>  (283) 
4

>  <i_i_glide_posenum>  (283) 
18

>  <r_i_glide_eff_state_penalty>  (283) 
0

>  <ligand_id>  (283) 
95

>  <original_smiles>  (283) 
CC1COC2(C1)OC1CC3C4CCC5C6C(CCC7C(=O)CCC(O)C76O)CCC5(C)C4CCC3(C)C1C2C

>  <smiles>  (283) 
[H]OC1([H])C([H])([H])C([H])([H])C(=O)C2([H])C([H])([H])C([H])([H])C3([H])C([H])([H])C([H])([H])C4(C([H])([H])[H])C5([H])C([H])([H])C([H])([H])C6(C([H])([H])[H])C([H])(C([H])([H])C7([H])OC8(OC([H])([H])C([H])(C([H])([H])[H])C8([H])[H])C([H])(C([H])([H])[H])C76[H])C5([H])C([H])([H])C([H])([H])C4([H])C3([H])C12O[H]

$$$$
95:0:2
     RDKit          3D

 91 98  0  0  1  0  0  0  0  0999 V2000
   -3.3311    2.9595    9.9942 C   0  0  0  0  0  0  0  0  0  0  0  0
   -2.1508    3.1797    9.0453 C   0  0  2  0  0  0  0  0  0  0  0  0
   -2.0411    4.5934    8.4772 C   0  0  0  0  0  0  0  0  0  0  0  0
   -1.3187    4.4719    7.2518 O   0  0  0  0  0  0  0  0  0  0  0  0
   -1.2629    3.1354    6.8309 C   0  0  1  0  0  0  0  0  0  0  0  0
   -2.1901    2.3519    7.7735 C   0  0  0  0  0  0  0  0  0  0  0  0
   -1.7205    2.9883    5.5188 O   0  0  0  0  0  0  0  0  0  0  0  0
   -0.6386    3.1855    4.6048 C   0  0  2  0  0  0  0  0  0  0  0  0
   -0.4446    1.9940    3.6591 C   0  0  0  0  0  0  0  0  0  0  0  0
    1.0692    1.9507    3.3588 C   0  0  2  0  0  0  0  0  0  0  0  0
    1.6466    0.5895    2.8252 C   0  0  2  0  0  0  0  0  0  0  0  0
    1.0209   -0.7085    3.3738 C   0  0  0  0  0  0  0  0  0  0  0  0
    1.6297   -1.9628    2.7319 C   0  0  0  0  0  0  0  0  0  0  0  0
    3.1712   -2.0562    2.8508 C   0  0  1  0  0  0  0  0  0  0  0  0
    3.7792   -3.3482    2.1909 C   0  0  2  0  0  0  0  0  0  0  0  0
    3.7240   -3.2791    0.6296 C   0  0  2  0  0  0  0  0  0  0  0  0
    4.4919   -4.4483   -0.0217 C   0  0  0  0  0  0  0  0  0  0  0  0
    4.0547   -5.8149    0.5120 C   0  0  0  0  0  0  0  0  0  0  0  0
    4.1241   -5.8965    2.0570 C   0  0  1  0  0  0  0  0  0  0  0  0
    5.5672   -5.9782    2.6002 C   0  0  0  0  0  0  0  0  0  0  0  0
    6.5554   -6.0470    1.8692 O   0  0  0  0  0  0  0  0  0  0  0  0
    5.7135   -6.0060    4.1244 C   0  0  0  0  0  0  0  0  0  0  0  0
    4.8403   -4.9336    4.8014 C   0  0  0  0  0  0  0  0  0  0  0  0
    3.3905   -4.9809    4.2865 C   0  0  1  0  0  0  0  0  0  0  0  0
    2.5916   -4.1093    5.0602 O   0  0  0  0  0  0  0  0  0  0  0  0
    3.3081   -4.7546    2.7404 C   0  0  1  0  0  0  0  0  0  0  0  0
    1.9742   -5.0304    2.3629 O   0  0  0  0  0  0  0  0  0  0  0  0
    4.2760   -1.9479    0.0769 C   0  0  0  0  0  0  0  0  0  0  0  0
    3.7021   -0.7077    0.7800 C   0  0  0  0  0  0  0  0  0  0  0  0
    3.8510   -0.7491    2.3272 C   0  0  2  0  0  0  0  0  0  0  0  0
    5.3703   -0.7226    2.6667 C   0  0  0  0  0  0  0  0  0  0  0  0
    3.1846    0.5191    2.9880 C   0  0  2  0  0  0  0  0  0  0  0  0
    3.6129    0.7582    4.4669 C   0  0  0  0  0  0  0  0  0  0  0  0
    2.5888    1.5048    5.3453 C   0  0  0  0  0  0  0  0  0  0  0  0
    1.7849    2.5868    4.5908 C   0  0  1  0  0  0  0  0  0  0  0  0
    2.7488    3.7137    4.1450 C   0  0  0  0  0  0  0  0  0  0  0  0
    0.6458    3.2599    5.4319 C   0  0  2  0  0  0  0  0  0  0  0  0
    0.2054    2.6588    6.7699 C   0  0  1  0  0  0  0  0  0  0  0  0
    1.0468    3.1159    7.9826 C   0  0  0  0  0  0  0  0  0  0  0  0
   -4.2936    3.1795    9.5292 H   0  0  0  0  0  0  0  0  0  0  0  0
   -3.2353    3.5766   10.8876 H   0  0  0  0  0  0  0  0  0  0  0  0
   -3.3513    1.9287   10.3381 H   0  0  0  0  0  0  0  0  0  0  0  0
   -1.2497    2.9542    9.6136 H   0  0  0  0  0  0  0  0  0  0  0  0
   -3.0271    5.0096    8.2667 H   0  0  0  0  0  0  0  0  0  0  0  0
   -1.5243    5.2677    9.1619 H   0  0  0  0  0  0  0  0  0  0  0  0
   -1.8510    1.3249    7.9017 H   0  0  0  0  0  0  0  0  0  0  0  0
   -3.1969    2.3392    7.3528 H   0  0  0  0  0  0  0  0  0  0  0  0
   -0.7798    4.1082    4.0380 H   0  0  0  0  0  0  0  0  0  0  0  0
   -0.7709    1.0889    4.1728 H   0  0  0  0  0  0  0  0  0  0  0  0
   -1.0375    2.0907    2.7461 H   0  0  0  0  0  0  0  0  0  0  0  0
    1.2102    2.6590    2.5404 H   0  0  0  0  0  0  0  0  0  0  0  0
    1.4103    0.6007    1.7618 H   0  0  0  0  0  0  0  0  0  0  0  0
    1.1146   -0.7788    4.4550 H   0  0  0  0  0  0  0  0  0  0  0  0
   -0.0461   -0.7165    3.1563 H   0  0  0  0  0  0  0  0  0  0  0  0
    1.1595   -2.8208    3.1999 H   0  0  0  0  0  0  0  0  0  0  0  0
    1.3367   -1.9960    1.6853 H   0  0  0  0  0  0  0  0  0  0  0  0
    3.4133   -2.0944    3.9068 H   0  0  0  0  0  0  0  0  0  0  0  0
    4.8393   -3.3081    2.4311 H   0  0  0  0  0  0  0  0  0  0  0  0
    2.6838   -3.3552    0.3139 H   0  0  0  0  0  0  0  0  0  0  0  0
    4.3453   -4.4309   -1.1032 H   0  0  0  0  0  0  0  0  0  0  0  0
    5.5644   -4.3247    0.1324 H   0  0  0  0  0  0  0  0  0  0  0  0
    3.0404   -6.0227    0.1717 H   0  0  0  0  0  0  0  0  0  0  0  0
    4.6654   -6.5940    0.0583 H   0  0  0  0  0  0  0  0  0  0  0  0
    3.6735   -6.8477    2.3444 H   0  0  0  0  0  0  0  0  0  0  0  0
    5.4103   -6.9946    4.4706 H   0  0  0  0  0  0  0  0  0  0  0  0
    6.7617   -5.8763    4.3983 H   0  0  0  0  0  0  0  0  0  0  0  0
    4.8504   -5.1025    5.8791 H   0  0  0  0  0  0  0  0  0  0  0  0
    5.2754   -3.9445    4.6449 H   0  0  0  0  0  0  0  0  0  0  0  0
    3.0052   -5.9806    4.4945 H   0  0  0  0  0  0  0  0  0  0  0  0
    2.8686   -3.2225    4.8910 H   0  0  0  0  0  0  0  0  0  0  0  0
    1.9786   -5.1140    1.4213 H   0  0  0  0  0  0  0  0  0  0  0  0
    5.3655   -1.9414    0.1264 H   0  0  0  0  0  0  0  0  0  0  0  0
    4.0352   -1.8828   -0.9847 H   0  0  0  0  0  0  0  0  0  0  0  0
    4.1722    0.1895    0.3783 H   0  0  0  0  0  0  0  0  0  0  0  0
    2.6535   -0.6384    0.4916 H   0  0  0  0  0  0  0  0  0  0  0  0
    5.8067    0.2370    2.4026 H   0  0  0  0  0  0  0  0  0  0  0  0
    5.9527   -1.4726    2.1393 H   0  0  0  0  0  0  0  0  0  0  0  0
    5.5613   -0.8938    3.7244 H   0  0  0  0  0  0  0  0  0  0  0  0
    3.5643    1.3671    2.4224 H   0  0  0  0  0  0  0  0  0  0  0  0
    3.8373   -0.1848    4.9648 H   0  0  0  0  0  0  0  0  0  0  0  0
    4.5450    1.3180    4.4681 H   0  0  0  0  0  0  0  0  0  0  0  0
    1.9058    0.7695    5.7609 H   0  0  0  0  0  0  0  0  0  0  0  0
    3.1152    1.9381    6.1942 H   0  0  0  0  0  0  0  0  0  0  0  0
    3.2621    4.1536    5.0012 H   0  0  0  0  0  0  0  0  0  0  0  0
    2.2209    4.5176    3.6322 H   0  0  0  0  0  0  0  0  0  0  0  0
    3.5141    3.3555    3.4606 H   0  0  0  0  0  0  0  0  0  0  0  0
    0.8637    4.3163    5.6019 H   0  0  0  0  0  0  0  0  0  0  0  0
    0.1763    1.5741    6.7039 H   0  0  0  0  0  0  0  0  0  0  0  0
    1.0536    4.2001    8.0932 H   0  0  0  0  0  0  0  0  0  0  0  0
    2.0808    2.8038    7.8914 H   0  0  0  0  0  0  0  0  0  0  0  0
    0.6877    2.6824    8.9125 H   0  0  0  0  0  0  0  0  0  0  0  0
  1  2  1  0
  1 40  1  0
  1 41  1  0
  1 42  1  0
  2  6  1  0
  2  3  1  0
  2 43  1  1
  3  4  1  0
  3 44  1  0
  3 45  1  0
  5  4  1  1
  5 38  1  0
  5  6  1  0
  5  7  1  0
  6 46  1  0
  6 47  1  0
  7  8  1  0
  8 37  1  0
  8  9  1  0
  8 48  1  6
  9 10  1  0
  9 49  1  0
  9 50  1  0
 10 35  1  0
 10 11  1  0
 10 51  1  6
 11 32  1  0
 11 12  1  0
 11 52  1  6
 12 13  1  0
 12 53  1  0
 12 54  1  0
 13 14  1  0
 13 55  1  0
 13 56  1  0
 14 30  1  0
 14 15  1  0
 14 57  1  1
 15 26  1  0
 15 16  1  0
 15 58  1  6
 16 17  1  0
 16 28  1  0
 16 59  1  1
 17 18  1  0
 17 60  1  0
 17 61  1  0
 18 19  1  0
 18 62  1  0
 18 63  1  0
 19 26  1  0
 19 20  1  0
 19 64  1  1
 20 21  2  0
 20 22  1  0
 22 23  1  0
 22 65  1  0
 22 66  1  0
 23 24  1  0
 23 67  1  0
 23 68  1  0
 24 25  1  0
 24 26  1  0
 24 69  1  6
 25 70  1  0
 26 27  1  6
 27 71  1  0
 28 29  1  0
 28 72  1  0
 28 73  1  0
 29 30  1  0
 29 74  1  0
 29 75  1  0
 30 31  1  6
 30 32  1  0
 31 76  1  0
 31 77  1  0
 31 78  1  0
 32 33  1  0
 32 79  1  6
 33 34  1  0
 33 80  1  0
 33 81  1  0
 34 35  1  0
 34 82  1  0
 34 83  1  0
 35 36  1  6
 35 37  1  0
 36 84  1  0
 36 85  1  0
 36 86  1  0
 37 38  1  0
 37 87  1  1
 38 39  1  0
 38 88  1  6
 39 89  1  0
 39 90  1  0
 39 91  1  0
M  END
>  <i_m_ct_stereo_status>  (284) 
1

>  <s_m_source_file>  (284) 
/var/tmp/pbs.5076255.sched01/tmporjl5eer/117expd_qi0.sdf

>  <i_m_source_file_index>  (284) 
4

>  <i_lp_mmshare_version>  (284) 
48012

>  <i_f3d_flags>  (284) 
0

>  <s_epik_input>  (284) 
W0NIM11bQ0BASF0oW0NIMl0xKVtDSDJdT1tDQF0xMk9bQ0BIXTNbQ0BASF0oW0NASF0yW0NIM10pW0NAXTQoW0NIM10pW0NASF0oW0NIMl0zKVtDQEhdNVtDQEBIXShbQ0gyXVtDSDJdNClbQ0BAXTYoW0NIM10pW0NAQEhdKFtDSDJdW0NIMl01KVtDQEBIXTdbQ0BASF0oW0NIMl1bQ0gyXTYpW0NIMl1bQ0gyXVtDQEBIXThbQ0BAXTcoW09IXSlbQ0BIXShbT0hdKVtDSDJdW0NIMl1DOD1P

>  <s_epik_cmdline>  (284) 
J2VwaWtfcHl0aG9uJywgJy1waHQnLCAnMi4wJywgJy1waCcsICc3LjAnLCAnLXRuJywgJzgnLCAnLW1hJywgJzIwMCcsICctaW1hZScsICc8aW5maWxlLm1hZT4nLCAnLW9tYWUnLCAnPG91dGZpbGUubWFlPic=

>  <r_lp_tautomer_probability>  (284) 
1

>  <r_epik_Ionization_Penalty>  (284) 
2.01399e-07

>  <r_epik_Ionization_Penalty_Charging>  (284) 
0

>  <r_epik_Ionization_Penalty_Neutral>  (284) 
2.01399e-07

>  <r_epik_State_Penalty>  (284) 
-0

>  <r_epik_Charging_Adjusted_Penalty>  (284) 
0

>  <i_epik_Tot_Q>  (284) 
0

>  <i_epik_Tot_abs_Q>  (284) 
0

>  <s_lp_Force_Field>  (284) 
OPLS3e

>  <r_lp_Energy>  (284) 
53.3928

>  <b_lp_Chiralities_Consistent>  (284) 
1

>  <s_lp_Variant>  (284) 
95:0-1

>  <s_i_glide_gridfile>  (284) 
pfpi4k_grid

>  <i_i_glide_lignum>  (284) 
4

>  <i_i_glide_rotatable_bonds>  (284) 
2

>  <r_i_docking_score>  (284) 
-2.20404

>  <r_i_glide_ligand_efficiency>  (284) 
-0.0565139

>  <r_i_glide_ligand_efficiency_sa>  (284) 
-0.19165

>  <r_i_glide_ligand_efficiency_ln>  (284) 
-0.472609

>  <r_i_glide_gscore>  (284) 
-2.20404

>  <r_i_glide_lipo>  (284) 
-0.256204

>  <r_i_glide_hbond>  (284) 
0

>  <r_i_glide_metal>  (284) 
-0

>  <r_i_glide_rewards>  (284) 
-0.0416548

>  <r_i_glide_evdw>  (284) 
-36.0601

>  <r_i_glide_ecoul>  (284) 
-0.687848

>  <r_i_glide_erotb>  (284) 
0

>  <r_i_glide_esite>  (284) 
0

>  <r_i_glide_emodel>  (284) 
-41.4881

>  <r_i_glide_energy>  (284) 
-36.7479

>  <r_i_glide_einternal>  (284) 
0.115364

>  <r_i_glide_intrahb_reward>  (284) 
-0

>  <i_i_glide_confnum>  (284) 
4

>  <i_i_glide_posenum>  (284) 
2

>  <r_i_glide_eff_state_penalty>  (284) 
0

>  <ligand_id>  (284) 
95

>  <original_smiles>  (284) 
CC1COC2(C1)OC1CC3C4CCC5C6C(CCC7C(=O)CCC(O)C76O)CCC5(C)C4CCC3(C)C1C2C

>  <smiles>  (284) 
[H]OC1([H])C([H])([H])C([H])([H])C(=O)C2([H])C([H])([H])C([H])([H])C3([H])C([H])([H])C([H])([H])C4(C([H])([H])[H])C5([H])C([H])([H])C([H])([H])C6(C([H])([H])[H])C([H])(C([H])([H])C7([H])OC8(OC([H])([H])C([H])(C([H])([H])[H])C8([H])[H])C([H])(C([H])([H])[H])C76[H])C5([H])C([H])([H])C([H])([H])C4([H])C3([H])C12O[H]

$$$$
96:0:0
     RDKit          3D

 32 34  0  0  1  0  0  0  0  0999 V2000
    0.6394   -8.0929    2.7600 N   0  0  0  0  0  0  0  0  0  0  0  0
    1.6721   -7.2466    2.6752 C   0  0  0  0  0  0  0  0  0  0  0  0
    2.5905   -7.2119    3.6642 N   0  0  0  0  0  0  0  0  0  0  0  0
    3.6156   -6.3596    3.5762 C   0  0  0  0  0  0  0  0  0  0  0  0
    3.8901   -5.4759    2.6013 N   0  0  0  0  0  0  0  0  0  0  0  0
    2.9583   -5.5177    1.6070 C   0  0  0  0  0  0  0  0  0  0  0  0
    1.8320   -6.3770    1.5719 C   0  0  0  0  0  0  0  0  0  0  0  0
    1.1022   -6.1716    0.4227 N   0  0  0  0  0  0  0  0  0  0  0  0
    1.8058   -5.2784   -0.2203 C   0  0  0  0  0  0  0  0  0  0  0  0
    2.8924   -4.7617    0.4532 N   0  0  0  0  0  0  0  0  0  0  0  0
    3.8746   -3.7452   -0.0227 C   0  0  2  0  0  0  0  0  0  0  0  0
    4.1803   -2.8641    1.0185 O   0  0  0  0  0  0  0  0  0  0  0  0
    4.0689   -1.5036    0.5901 C   0  0  1  0  0  0  0  0  0  0  0  0
    5.2487   -0.6674    1.1180 C   0  0  0  0  0  0  0  0  0  0  0  0
    5.0293   -0.2648    2.4529 O   0  0  0  0  0  0  0  0  0  0  0  0
    3.9972   -1.5756   -0.9430 C   0  0  1  0  0  0  0  0  0  0  0  0
    5.3016   -1.6177   -1.5075 O   0  0  0  0  0  0  0  0  0  0  0  0
    3.2757   -2.8932   -1.1418 C   0  0  1  0  0  0  0  0  0  0  0  0
    3.4871   -3.4371   -2.4320 O   0  0  0  0  0  0  0  0  0  0  0  0
    0.5897   -8.7382    3.5331 H   0  0  0  0  0  0  0  0  0  0  0  0
    0.0104   -8.1655    1.9737 H   0  0  0  0  0  0  0  0  0  0  0  0
    4.3165   -6.3823    4.3980 H   0  0  0  0  0  0  0  0  0  0  0  0
    1.4583   -4.9278   -1.1840 H   0  0  0  0  0  0  0  0  0  0  0  0
    4.7640   -4.3104   -0.3015 H   0  0  0  0  0  0  0  0  0  0  0  0
    3.1165   -1.1148    0.9614 H   0  0  0  0  0  0  0  0  0  0  0  0
    6.1887   -1.2158    1.0335 H   0  0  0  0  0  0  0  0  0  0  0  0
    5.3500    0.2364    0.5170 H   0  0  0  0  0  0  0  0  0  0  0  0
    4.2283    0.2400    2.4827 H   0  0  0  0  0  0  0  0  0  0  0  0
    3.4356   -0.7373   -1.3648 H   0  0  0  0  0  0  0  0  0  0  0  0
    5.6792   -2.4508   -1.2691 H   0  0  0  0  0  0  0  0  0  0  0  0
    2.2205   -2.7037   -0.9361 H   0  0  0  0  0  0  0  0  0  0  0  0
    3.1962   -4.3468   -2.4508 H   0  0  0  0  0  0  0  0  0  0  0  0
  1  2  1  0
  1 21  1  0
  1 20  1  0
  2  3  2  0
  2  7  1  0
  3  4  1  0
  4 22  1  0
  4  5  2  0
  5  6  1  0
  6 10  1  0
  6  7  2  0
  7  8  1  0
  8  9  2  0
  9 23  1  0
  9 10  1  0
 10 11  1  0
 11 18  1  0
 11 12  1  0
 11 24  1  6
 12 13  1  0
 13 14  1  0
 13 16  1  0
 13 25  1  1
 14 15  1  0
 14 26  1  0
 14 27  1  0
 15 28  1  0
 16 17  1  0
 16 18  1  0
 16 29  1  6
 17 30  1  0
 18 19  1  0
 18 31  1  1
 19 32  1  0
M  END
>  <i_m_ct_stereo_status>  (285) 
1

>  <s_m_source_file>  (285) 
/var/tmp/pbs.5076255.sched01/tmporjl5eer/117expd_qi0.sdf

>  <i_m_source_file_index>  (285) 
5

>  <i_lp_mmshare_version>  (285) 
48012

>  <i_f3d_flags>  (285) 
0

>  <s_epik_input>  (285) 
bjFbY0hdW25IXVxjKD1OXFtIXSljKGMxMiluW2NIXW4yW0NAQEhdM09bQ0BASF0oW0NIMl1bT0hdKVtDQEBIXShbT0hdKVtDQEhdM1tPSF0=

>  <s_epik_cmdline>  (285) 
J2VwaWtfcHl0aG9uJywgJy1waHQnLCAnMi4wJywgJy1waCcsICc3LjAnLCAnLXRuJywgJzgnLCAnLW1hJywgJzIwMCcsICctaW1hZScsICc8aW5maWxlLm1hZT4nLCAnLW9tYWUnLCAnPG91dGZpbGUubWFlPic=

>  <r_lp_tautomer_probability>  (285) 
1

>  <r_epik_Ionization_Penalty>  (285) 
0.000428445

>  <r_epik_Ionization_Penalty_Charging>  (285) 
0

>  <r_epik_Ionization_Penalty_Neutral>  (285) 
0.000428445

>  <r_epik_State_Penalty>  (285) 
-0

>  <r_epik_Charging_Adjusted_Penalty>  (285) 
0

>  <i_epik_Tot_Q>  (285) 
0

>  <i_epik_Tot_abs_Q>  (285) 
0

>  <s_epik_Chemistry_Notes>  (285) 
This compound contains an acetal/aminal-like group ( X-CH(R)-Y where X, Y are N, S, or O) that may be acid/base labile, releasing an aldehyde.

>  <s_lp_Force_Field>  (285) 
OPLS3e

>  <r_lp_Energy>  (285) 
18.2998

>  <b_lp_Chiralities_Consistent>  (285) 
1

>  <s_lp_Variant>  (285) 
96:0-1

>  <s_i_glide_gridfile>  (285) 
pfpi4k_grid

>  <i_i_glide_lignum>  (285) 
5

>  <i_i_glide_rotatable_bonds>  (285) 
5

>  <r_i_docking_score>  (285) 
-4.16285

>  <r_i_glide_ligand_efficiency>  (285) 
-0.219098

>  <r_i_glide_ligand_efficiency_sa>  (285) 
-0.58464

>  <r_i_glide_ligand_efficiency_ln>  (285) 
-1.05537

>  <r_i_glide_gscore>  (285) 
-4.16285

>  <r_i_glide_lipo>  (285) 
-0.142185

>  <r_i_glide_hbond>  (285) 
-0.203774

>  <r_i_glide_metal>  (285) 
-0

>  <r_i_glide_rewards>  (285) 
-1.58796

>  <r_i_glide_evdw>  (285) 
-15.8814

>  <r_i_glide_ecoul>  (285) 
-11.8119

>  <r_i_glide_erotb>  (285) 
0.499276

>  <r_i_glide_esite>  (285) 
-0.162363

>  <r_i_glide_emodel>  (285) 
-36.1462

>  <r_i_glide_energy>  (285) 
-27.6932

>  <r_i_glide_einternal>  (285) 
2.08758

>  <r_i_glide_intrahb_reward>  (285) 
-0

>  <i_i_glide_confnum>  (285) 
3

>  <i_i_glide_posenum>  (285) 
38

>  <r_i_glide_eff_state_penalty>  (285) 
0

>  <ligand_id>  (285) 
96

>  <original_smiles>  (285) 
N=c1[nH]cnc2c1ncn2C1OC(CO)C(O)C1O

>  <smiles>  (285) 
[H]OC([H])([H])C1([H])OC([H])(n2c([H])nc3c(N([H])[H])nc([H])nc32)C([H])(O[H])C1([H])O[H]

$$$$
96:0:1
     RDKit          3D

 32 34  0  0  1  0  0  0  0  0999 V2000
    7.8101   -6.5850    1.2906 N   0  0  0  0  0  0  0  0  0  0  0  0
    6.5100   -6.8206    1.4946 C   0  0  0  0  0  0  0  0  0  0  0  0
    5.6538   -5.7788    1.4356 N   0  0  0  0  0  0  0  0  0  0  0  0
    4.3475   -6.0024    1.6349 C   0  0  0  0  0  0  0  0  0  0  0  0
    3.7300   -7.1555    1.8953 N   0  0  0  0  0  0  0  0  0  0  0  0
    4.5955   -8.2075    1.9374 C   0  0  0  0  0  0  0  0  0  0  0  0
    6.0021   -8.1153    1.7463 C   0  0  0  0  0  0  0  0  0  0  0  0
    6.5789   -9.3778    1.8503 N   0  0  0  0  0  0  0  0  0  0  0  0
    5.5628  -10.1662    2.0733 C   0  0  0  0  0  0  0  0  0  0  0  0
    4.3350   -9.5425    2.1575 N   0  0  0  0  0  0  0  0  0  0  0  0
    3.0246  -10.2226    2.3846 C   0  0  2  0  0  0  0  0  0  0  0  0
    1.9655   -9.3634    2.0825 O   0  0  0  0  0  0  0  0  0  0  0  0
    1.0278   -9.3372    3.1584 C   0  0  1  0  0  0  0  0  0  0  0  0
   -0.4115   -9.2613    2.6089 C   0  0  0  0  0  0  0  0  0  0  0  0
   -1.3320   -8.9938    3.6519 O   0  0  0  0  0  0  0  0  0  0  0  0
    1.3771  -10.5653    4.0198 C   0  0  1  0  0  0  0  0  0  0  0  0
    0.7671  -11.7323    3.4776 O   0  0  0  0  0  0  0  0  0  0  0  0
    2.8860  -10.6384    3.8552 C   0  0  1  0  0  0  0  0  0  0  0  0
    3.3515  -11.9488    4.1010 O   0  0  0  0  0  0  0  0  0  0  0  0
    8.1116   -5.6386    1.1258 H   0  0  0  0  0  0  0  0  0  0  0  0
    8.4656   -7.3594    1.3401 H   0  0  0  0  0  0  0  0  0  0  0  0
    3.6985   -5.1366    1.5636 H   0  0  0  0  0  0  0  0  0  0  0  0
    5.6674  -11.2405    2.1875 H   0  0  0  0  0  0  0  0  0  0  0  0
    3.0181  -11.0490    1.6937 H   0  0  0  0  0  0  0  0  0  0  0  0
    1.2604   -8.4345    3.7265 H   0  0  0  0  0  0  0  0  0  0  0  0
   -0.4772   -8.4563    1.8752 H   0  0  0  0  0  0  0  0  0  0  0  0
   -0.6947  -10.1658    2.0676 H   0  0  0  0  0  0  0  0  0  0  0  0
   -1.4452   -9.7832    4.1827 H   0  0  0  0  0  0  0  0  0  0  0  0
    1.0840  -10.4444    5.0663 H   0  0  0  0  0  0  0  0  0  0  0  0
    1.0924  -12.4976    3.9288 H   0  0  0  0  0  0  0  0  0  0  0  0
    3.3871   -9.9015    4.4876 H   0  0  0  0  0  0  0  0  0  0  0  0
    2.9246  -12.5505    3.5054 H   0  0  0  0  0  0  0  0  0  0  0  0
  1  2  1  0
  1 21  1  0
  1 20  1  0
  2  3  2  0
  2  7  1  0
  3  4  1  0
  4 22  1  0
  4  5  2  0
  5  6  1  0
  6 10  1  0
  6  7  2  0
  7  8  1  0
  8  9  2  0
  9 23  1  0
  9 10  1  0
 10 11  1  0
 11 18  1  0
 11 12  1  0
 11 24  1  6
 12 13  1  0
 13 14  1  0
 13 16  1  0
 13 25  1  1
 14 15  1  0
 14 26  1  0
 14 27  1  0
 15 28  1  0
 16 17  1  0
 16 18  1  0
 16 29  1  1
 17 30  1  0
 18 19  1  0
 18 31  1  1
 19 32  1  0
M  END
>  <i_m_ct_stereo_status>  (286) 
1

>  <s_m_source_file>  (286) 
/var/tmp/pbs.5076255.sched01/tmporjl5eer/117expd_qi0.sdf

>  <i_m_source_file_index>  (286) 
5

>  <i_lp_mmshare_version>  (286) 
48012

>  <i_f3d_flags>  (286) 
0

>  <s_epik_input>  (286) 
bjFbY0hdW25IXVxjKD1OXFtIXSljKGMxMiluW2NIXW4yW0NAQEhdM09bQ0BASF0oW0NIMl1bT0hdKVtDQEBIXShbT0hdKVtDQEhdM1tPSF0=

>  <s_epik_cmdline>  (286) 
J2VwaWtfcHl0aG9uJywgJy1waHQnLCAnMi4wJywgJy1waCcsICc3LjAnLCAnLXRuJywgJzgnLCAnLW1hJywgJzIwMCcsICctaW1hZScsICc8aW5maWxlLm1hZT4nLCAnLW9tYWUnLCAnPG91dGZpbGUubWFlPic=

>  <r_lp_tautomer_probability>  (286) 
1

>  <r_epik_Ionization_Penalty>  (286) 
0.000428445

>  <r_epik_Ionization_Penalty_Charging>  (286) 
0

>  <r_epik_Ionization_Penalty_Neutral>  (286) 
0.000428445

>  <r_epik_State_Penalty>  (286) 
-0

>  <r_epik_Charging_Adjusted_Penalty>  (286) 
0

>  <i_epik_Tot_Q>  (286) 
0

>  <i_epik_Tot_abs_Q>  (286) 
0

>  <s_epik_Chemistry_Notes>  (286) 
This compound contains an acetal/aminal-like group ( X-CH(R)-Y where X, Y are N, S, or O) that may be acid/base labile, releasing an aldehyde.

>  <s_lp_Force_Field>  (286) 
OPLS3e

>  <r_lp_Energy>  (286) 
18.2998

>  <b_lp_Chiralities_Consistent>  (286) 
1

>  <s_lp_Variant>  (286) 
96:0-1

>  <s_i_glide_gridfile>  (286) 
pfpi4k_grid

>  <i_i_glide_lignum>  (286) 
5

>  <i_i_glide_rotatable_bonds>  (286) 
5

>  <r_i_docking_score>  (286) 
-3.92563

>  <r_i_glide_ligand_efficiency>  (286) 
-0.206612

>  <r_i_glide_ligand_efficiency_sa>  (286) 
-0.551324

>  <r_i_glide_ligand_efficiency_ln>  (286) 
-0.995232

>  <r_i_glide_gscore>  (286) 
-3.92563

>  <r_i_glide_lipo>  (286) 
-0.195757

>  <r_i_glide_hbond>  (286) 
-0.00373387

>  <r_i_glide_metal>  (286) 
-0

>  <r_i_glide_rewards>  (286) 
-1.64771

>  <r_i_glide_evdw>  (286) 
-19.888

>  <r_i_glide_ecoul>  (286) 
-9.27148

>  <r_i_glide_erotb>  (286) 
0.499276

>  <r_i_glide_esite>  (286) 
-0.192582

>  <r_i_glide_emodel>  (286) 
-37.2661

>  <r_i_glide_energy>  (286) 
-29.1595

>  <r_i_glide_einternal>  (286) 
2.49117

>  <r_i_glide_intrahb_reward>  (286) 
-0

>  <i_i_glide_confnum>  (286) 
6

>  <i_i_glide_posenum>  (286) 
2

>  <r_i_glide_eff_state_penalty>  (286) 
0

>  <ligand_id>  (286) 
96

>  <original_smiles>  (286) 
N=c1[nH]cnc2c1ncn2C1OC(CO)C(O)C1O

>  <smiles>  (286) 
[H]OC([H])([H])C1([H])OC([H])(n2c([H])nc3c(N([H])[H])nc([H])nc32)C([H])(O[H])C1([H])O[H]

$$$$
96:0:2
     RDKit          3D

 32 34  0  0  1  0  0  0  0  0999 V2000
    7.8095   -7.0506    1.3335 N   0  0  0  0  0  0  0  0  0  0  0  0
    6.5208   -7.2123    1.6533 C   0  0  0  0  0  0  0  0  0  0  0  0
    5.7059   -6.1380    1.6038 N   0  0  0  0  0  0  0  0  0  0  0  0
    4.4123   -6.2851    1.9207 C   0  0  0  0  0  0  0  0  0  0  0  0
    3.7636   -7.3930    2.2893 N   0  0  0  0  0  0  0  0  0  0  0  0
    4.5834   -8.4842    2.3072 C   0  0  0  0  0  0  0  0  0  0  0  0
    5.9762   -8.4676    2.0085 C   0  0  0  0  0  0  0  0  0  0  0  0
    6.5023   -9.7504    2.1380 N   0  0  0  0  0  0  0  0  0  0  0  0
    5.4689  -10.4816    2.4674 C   0  0  0  0  0  0  0  0  0  0  0  0
    4.2760   -9.7988    2.5917 N   0  0  0  0  0  0  0  0  0  0  0  0
    2.9552  -10.3823    2.9698 C   0  0  2  0  0  0  0  0  0  0  0  0
    1.9341   -9.6513    2.3625 O   0  0  0  0  0  0  0  0  0  0  0  0
    0.9387   -9.2949    3.3276 C   0  0  1  0  0  0  0  0  0  0  0  0
   -0.4667   -9.4172    2.7104 C   0  0  0  0  0  0  0  0  0  0  0  0
   -1.4595   -9.0239    3.6460 O   0  0  0  0  0  0  0  0  0  0  0  0
    1.2348  -10.1801    4.5523 C   0  0  1  0  0  0  0  0  0  0  0  0
    0.6101  -11.4484    4.4318 O   0  0  0  0  0  0  0  0  0  0  0  0
    2.7497  -10.3019    4.4894 C   0  0  1  0  0  0  0  0  0  0  0  0
    3.2049  -11.4428    5.1981 O   0  0  0  0  0  0  0  0  0  0  0  0
    8.1409   -6.1344    1.0866 H   0  0  0  0  0  0  0  0  0  0  0  0
    8.4388   -7.8463    1.3731 H   0  0  0  0  0  0  0  0  0  0  0  0
    3.8045   -5.3913    1.8493 H   0  0  0  0  0  0  0  0  0  0  0  0
    5.5379  -11.5490    2.6334 H   0  0  0  0  0  0  0  0  0  0  0  0
    2.9496  -11.3916    2.5566 H   0  0  0  0  0  0  0  0  0  0  0  0
    1.1382   -8.2552    3.6001 H   0  0  0  0  0  0  0  0  0  0  0  0
   -0.5385   -8.7766    1.8316 H   0  0  0  0  0  0  0  0  0  0  0  0
   -0.6320  -10.4289    2.3477 H   0  0  0  0  0  0  0  0  0  0  0  0
   -1.6385   -9.7480    4.2496 H   0  0  0  0  0  0  0  0  0  0  0  0
    0.9015   -9.7196    5.4847 H   0  0  0  0  0  0  0  0  0  0  0  0
   -0.3297  -11.3555    4.5805 H   0  0  0  0  0  0  0  0  0  0  0  0
    3.2151   -9.3934    4.8756 H   0  0  0  0  0  0  0  0  0  0  0  0
    2.6025  -11.6367    5.9084 H   0  0  0  0  0  0  0  0  0  0  0  0
  1  2  1  0
  1 21  1  0
  1 20  1  0
  2  3  2  0
  2  7  1  0
  3  4  1  0
  4 22  1  0
  4  5  2  0
  5  6  1  0
  6 10  1  0
  6  7  2  0
  7  8  1  0
  8  9  2  0
  9 23  1  0
  9 10  1  0
 10 11  1  0
 11 18  1  0
 11 12  1  0
 11 24  1  6
 12 13  1  0
 13 14  1  0
 13 16  1  0
 13 25  1  1
 14 15  1  0
 14 26  1  0
 14 27  1  0
 15 28  1  0
 16 17  1  0
 16 18  1  0
 16 29  1  1
 17 30  1  0
 18 19  1  0
 18 31  1  1
 19 32  1  0
M  END
>  <i_m_ct_stereo_status>  (287) 
1

>  <s_m_source_file>  (287) 
/var/tmp/pbs.5076255.sched01/tmporjl5eer/117expd_qi0.sdf

>  <i_m_source_file_index>  (287) 
5

>  <i_lp_mmshare_version>  (287) 
48012

>  <i_f3d_flags>  (287) 
0

>  <s_epik_input>  (287) 
bjFbY0hdW25IXVxjKD1OXFtIXSljKGMxMiluW2NIXW4yW0NAQEhdM09bQ0BASF0oW0NIMl1bT0hdKVtDQEBIXShbT0hdKVtDQEhdM1tPSF0=

>  <s_epik_cmdline>  (287) 
J2VwaWtfcHl0aG9uJywgJy1waHQnLCAnMi4wJywgJy1waCcsICc3LjAnLCAnLXRuJywgJzgnLCAnLW1hJywgJzIwMCcsICctaW1hZScsICc8aW5maWxlLm1hZT4nLCAnLW9tYWUnLCAnPG91dGZpbGUubWFlPic=

>  <r_lp_tautomer_probability>  (287) 
1

>  <r_epik_Ionization_Penalty>  (287) 
0.000428445

>  <r_epik_Ionization_Penalty_Charging>  (287) 
0

>  <r_epik_Ionization_Penalty_Neutral>  (287) 
0.000428445

>  <r_epik_State_Penalty>  (287) 
-0

>  <r_epik_Charging_Adjusted_Penalty>  (287) 
0

>  <i_epik_Tot_Q>  (287) 
0

>  <i_epik_Tot_abs_Q>  (287) 
0

>  <s_epik_Chemistry_Notes>  (287) 
This compound contains an acetal/aminal-like group ( X-CH(R)-Y where X, Y are N, S, or O) that may be acid/base labile, releasing an aldehyde.

>  <s_lp_Force_Field>  (287) 
OPLS3e

>  <r_lp_Energy>  (287) 
18.2998

>  <b_lp_Chiralities_Consistent>  (287) 
1

>  <s_lp_Variant>  (287) 
96:0-1

>  <s_i_glide_gridfile>  (287) 
pfpi4k_grid

>  <i_i_glide_lignum>  (287) 
5

>  <i_i_glide_rotatable_bonds>  (287) 
5

>  <r_i_docking_score>  (287) 
-3.84522

>  <r_i_glide_ligand_efficiency>  (287) 
-0.20238

>  <r_i_glide_ligand_efficiency_sa>  (287) 
-0.540032

>  <r_i_glide_ligand_efficiency_ln>  (287) 
-0.974847

>  <r_i_glide_gscore>  (287) 
-3.84522

>  <r_i_glide_lipo>  (287) 
-0.140289

>  <r_i_glide_hbond>  (287) 
-0.010129

>  <r_i_glide_metal>  (287) 
-0

>  <r_i_glide_rewards>  (287) 
-1.62957

>  <r_i_glide_evdw>  (287) 
-19.7499

>  <r_i_glide_ecoul>  (287) 
-9.29844

>  <r_i_glide_erotb>  (287) 
0.499276

>  <r_i_glide_esite>  (287) 
-0.182252

>  <r_i_glide_emodel>  (287) 
-36.7757

>  <r_i_glide_energy>  (287) 
-29.0483

>  <r_i_glide_einternal>  (287) 
2.51135

>  <r_i_glide_intrahb_reward>  (287) 
-0

>  <i_i_glide_confnum>  (287) 
6

>  <i_i_glide_posenum>  (287) 
18

>  <r_i_glide_eff_state_penalty>  (287) 
0

>  <ligand_id>  (287) 
96

>  <original_smiles>  (287) 
N=c1[nH]cnc2c1ncn2C1OC(CO)C(O)C1O

>  <smiles>  (287) 
[H]OC([H])([H])C1([H])OC([H])(n2c([H])nc3c(N([H])[H])nc([H])nc32)C([H])(O[H])C1([H])O[H]

$$$$
97:0:0
     RDKit          3D

 40 42  0  0  1  0  0  0  0  0999 V2000
    3.5779    0.8081   -5.1315 C   0  0  0  0  0  0  0  0  0  0  0  0
    2.9275   -0.5122   -4.7156 C   0  0  0  0  0  0  0  0  0  0  0  0
    2.9341   -0.7921   -3.1996 C   0  0  0  0  0  0  0  0  0  0  0  0
    4.2886   -1.2206   -2.6085 C   0  0  2  0  0  0  0  0  0  0  0  0
    4.7273   -2.6455   -3.0338 C   0  0  0  0  0  0  0  0  0  0  0  0
    4.2026   -3.2744   -3.9312 O   0  0  0  0  0  0  0  0  0  0  0  0
    5.8941   -3.2546   -2.2706 C   0  0  0  0  0  0  0  0  0  0  0  0
    5.6488   -3.2449   -0.7505 C   0  0  2  0  0  0  0  0  0  0  0  0
    4.4335   -4.0937   -0.3292 C   0  0  1  0  0  0  0  0  0  0  0  0
    4.6473   -4.7587    1.0467 C   0  0  0  0  0  0  0  0  0  0  0  0
    5.6258   -5.9411    1.0194 C   0  0  0  0  0  0  0  0  0  0  0  0
    3.2716   -3.0899   -0.3096 C   0  0  0  0  0  0  0  0  0  0  0  0
    3.8901   -1.7628   -0.0605 N   0  0  2  0  0  0  0  0  0  0  0  0
    3.4818   -1.0795    1.1838 C   0  0  0  0  0  0  0  0  0  0  0  0
    4.4521   -0.9271   -1.1121 C   0  0  1  0  0  0  0  0  0  0  0  0
    5.3269   -1.8306   -0.2933 C   0  0  2  0  0  0  0  0  0  0  0  0
    3.5753    0.8756   -6.2188 H   0  0  0  0  0  0  0  0  0  0  0  0
    4.6114    0.8710   -4.7954 H   0  0  0  0  0  0  0  0  0  0  0  0
    3.0268    1.6636   -4.7390 H   0  0  0  0  0  0  0  0  0  0  0  0
    1.8991   -0.5006   -5.0754 H   0  0  0  0  0  0  0  0  0  0  0  0
    3.4130   -1.3049   -5.2796 H   0  0  0  0  0  0  0  0  0  0  0  0
    2.5401    0.1054   -2.7160 H   0  0  0  0  0  0  0  0  0  0  0  0
    2.2215   -1.5839   -2.9578 H   0  0  0  0  0  0  0  0  0  0  0  0
    5.0289   -0.5775   -3.0675 H   0  0  0  0  0  0  0  0  0  0  0  0
    5.9890   -4.2599   -2.6511 H   0  0  0  0  0  0  0  0  0  0  0  0
    6.7974   -2.7137   -2.5516 H   0  0  0  0  0  0  0  0  0  0  0  0
    6.5651   -3.5856   -0.2594 H   0  0  0  0  0  0  0  0  0  0  0  0
    4.2167   -4.8714   -1.0662 H   0  0  0  0  0  0  0  0  0  0  0  0
    4.9934   -4.0190    1.7748 H   0  0  0  0  0  0  0  0  0  0  0  0
    3.6924   -5.1300    1.4233 H   0  0  0  0  0  0  0  0  0  0  0  0
    5.6869   -6.4077    2.0041 H   0  0  0  0  0  0  0  0  0  0  0  0
    6.6367   -5.6393    0.7398 H   0  0  0  0  0  0  0  0  0  0  0  0
    5.2938   -6.7055    0.3159 H   0  0  0  0  0  0  0  0  0  0  0  0
    2.7092   -3.0829   -1.2406 H   0  0  0  0  0  0  0  0  0  0  0  0
    2.5416   -3.3294    0.4602 H   0  0  0  0  0  0  0  0  0  0  0  0
    4.0505   -0.1657    1.3914 H   0  0  0  0  0  0  0  0  0  0  0  0
    3.5985   -1.7497    2.0304 H   0  0  0  0  0  0  0  0  0  0  0  0
    2.4309   -0.8153    1.1149 H   0  0  0  0  0  0  0  0  0  0  0  0
    4.4681    0.1203   -0.8016 H   0  0  0  0  0  0  0  0  0  0  0  0
    5.8665   -1.4152    0.5560 H   0  0  0  0  0  0  0  0  0  0  0  0
  1  2  1  0
  1 17  1  0
  1 18  1  0
  1 19  1  0
  2  3  1  0
  2 20  1  0
  2 21  1  0
  3  4  1  0
  3 22  1  0
  3 23  1  0
  4 15  1  0
  4  5  1  0
  4 24  1  6
  5  6  2  0
  5  7  1  0
  7  8  1  0
  7 25  1  0
  7 26  1  0
  8 16  1  0
  8  9  1  0
  8 27  1  1
  9 10  1  0
  9 12  1  0
  9 28  1  6
 10 11  1  0
 10 29  1  0
 10 30  1  0
 11 31  1  0
 11 32  1  0
 11 33  1  0
 12 13  1  0
 12 34  1  0
 12 35  1  0
 13 16  1  0
 13 14  1  1
 13 15  1  0
 14 36  1  0
 14 37  1  0
 14 38  1  0
 15 16  1  0
 15 39  1  6
 16 40  1  1
M  CHG  1  13   1
M  END
>  <i_m_ct_stereo_status>  (288) 
1

>  <s_m_source_file>  (288) 
/var/tmp/pbs.5076255.sched01/tmporjl5eer/117expd_qi0.sdf

>  <i_m_source_file_index>  (288) 
6

>  <i_lp_mmshare_version>  (288) 
48012

>  <i_f3d_flags>  (288) 
0

>  <s_epik_input>  (288) 
W0NIM11bQ0gyXVtDSDJdW0NAQEhdMUMoPU8pW0NIMl1bQ0BIXShbQ0BIXShbQ0gyXTIpW0NIMl1bQ0gzXSlbQ0BIXTNbQ0BASF0xW05AQCtdMjNbQ0gzXQ==

>  <s_epik_cmdline>  (288) 
J2VwaWtfcHl0aG9uJywgJy1waHQnLCAnMi4wJywgJy1waCcsICc3LjAnLCAnLXRuJywgJzgnLCAnLW1hJywgJzIwMCcsICctaW1hZScsICc8aW5maWxlLm1hZT4nLCAnLW9tYWUnLCAnPG91dGZpbGUubWFlPic=

>  <r_lp_tautomer_probability>  (288) 
1

>  <r_epik_Ionization_Penalty>  (288) 
4.68142e-11

>  <r_epik_Ionization_Penalty_Charging>  (288) 
0

>  <r_epik_Ionization_Penalty_Neutral>  (288) 
4.68142e-11

>  <r_epik_State_Penalty>  (288) 
-0

>  <r_epik_Charging_Adjusted_Penalty>  (288) 
0

>  <i_epik_Tot_Q>  (288) 
1

>  <i_epik_Tot_abs_Q>  (288) 
1

>  <s_lp_Force_Field>  (288) 
OPLS3e

>  <r_lp_Energy>  (288) 
18.391

>  <b_lp_Chiralities_Consistent>  (288) 
1

>  <s_lp_Variant>  (288) 
97:0-1

>  <s_i_glide_gridfile>  (288) 
pfpi4k_grid

>  <i_i_glide_lignum>  (288) 
6

>  <i_i_glide_rotatable_bonds>  (288) 
3

>  <r_i_docking_score>  (288) 
-4.08672

>  <r_i_glide_ligand_efficiency>  (288) 
-0.25542

>  <r_i_glide_ligand_efficiency_sa>  (288) 
-0.643619

>  <r_i_glide_ligand_efficiency_ln>  (288) 
-1.08327

>  <r_i_glide_gscore>  (288) 
-4.08672

>  <r_i_glide_lipo>  (288) 
-0.733698

>  <r_i_glide_hbond>  (288) 
-0.0416987

>  <r_i_glide_metal>  (288) 
-0

>  <r_i_glide_rewards>  (288) 
-2.05347

>  <r_i_glide_evdw>  (288) 
-20.2154

>  <r_i_glide_ecoul>  (288) 
-3.63836

>  <r_i_glide_erotb>  (288) 
0.341832

>  <r_i_glide_esite>  (288) 
-0.0431662

>  <r_i_glide_emodel>  (288) 
-29.3909

>  <r_i_glide_energy>  (288) 
-23.8537

>  <r_i_glide_einternal>  (288) 
1.92508

>  <r_i_glide_intrahb_reward>  (288) 
-0

>  <i_i_glide_confnum>  (288) 
3

>  <i_i_glide_posenum>  (288) 
9

>  <r_i_glide_eff_state_penalty>  (288) 
0

>  <ligand_id>  (288) 
97

>  <original_smiles>  (288) 
CCCC1C(=O)CC2C(CC)C[N+]3(C)C1C23

>  <smiles>  (288) 
[H]C([H])([H])C([H])([H])C([H])([H])C1([H])C(=O)C([H])([H])C2([H])C([H])(C([H])([H])C([H])([H])[H])C([H])([H])[N+]3(C([H])([H])[H])C1([H])C23[H]

$$$$
97:0:1
     RDKit          3D

 40 42  0  0  1  0  0  0  0  0999 V2000
    2.6591    0.6984   -5.2475 C   0  0  0  0  0  0  0  0  0  0  0  0
    3.7781    0.2617   -4.3035 C   0  0  0  0  0  0  0  0  0  0  0  0
    3.2713   -0.7188   -3.2293 C   0  0  0  0  0  0  0  0  0  0  0  0
    4.4178   -1.3267   -2.3792 C   0  0  2  0  0  0  0  0  0  0  0  0
    4.7490   -2.7960   -2.6879 C   0  0  0  0  0  0  0  0  0  0  0  0
    4.4180   -3.3309   -3.7489 O   0  0  0  0  0  0  0  0  0  0  0  0
    5.5936   -3.5649   -1.6690 C   0  0  0  0  0  0  0  0  0  0  0  0
    5.0796   -3.4015   -0.2235 C   0  0  2  0  0  0  0  0  0  0  0  0
    3.6920   -4.0216   -0.0091 C   0  0  1  0  0  0  0  0  0  0  0  0
    3.5243   -4.6215    1.4030 C   0  0  0  0  0  0  0  0  0  0  0  0
    4.3276   -5.9093    1.6411 C   0  0  0  0  0  0  0  0  0  0  0  0
    2.7369   -2.8547   -0.2694 C   0  0  0  0  0  0  0  0  0  0  0  0
    3.4976   -1.6325    0.0524 N   0  0  2  0  0  0  0  0  0  0  0  0
    2.9713   -0.8030    1.1728 C   0  0  0  0  0  0  0  0  0  0  0  0
    4.3721   -0.9502   -0.8919 C   0  0  1  0  0  0  0  0  0  0  0  0
    4.9262   -1.9283    0.1163 C   0  0  2  0  0  0  0  0  0  0  0  0
    3.0157    1.4162   -5.9822 H   0  0  0  0  0  0  0  0  0  0  0  0
    1.8305    1.1673   -4.7183 H   0  0  0  0  0  0  0  0  0  0  0  0
    2.2552   -0.1539   -5.7844 H   0  0  0  0  0  0  0  0  0  0  0  0
    4.5682   -0.2079   -4.8967 H   0  0  0  0  0  0  0  0  0  0  0  0
    4.2198    1.1394   -3.8346 H   0  0  0  0  0  0  0  0  0  0  0  0
    2.5299   -0.2359   -2.5897 H   0  0  0  0  0  0  0  0  0  0  0  0
    2.6902   -1.4859   -3.7340 H   0  0  0  0  0  0  0  0  0  0  0  0
    5.3317   -0.8367   -2.7109 H   0  0  0  0  0  0  0  0  0  0  0  0
    5.5907   -4.6154   -1.9515 H   0  0  0  0  0  0  0  0  0  0  0  0
    6.6190   -3.2080   -1.7657 H   0  0  0  0  0  0  0  0  0  0  0  0
    5.8263   -3.8338    0.4524 H   0  0  0  0  0  0  0  0  0  0  0  0
    3.4840   -4.8209   -0.7281 H   0  0  0  0  0  0  0  0  0  0  0  0
    3.8022   -3.8810    2.1605 H   0  0  0  0  0  0  0  0  0  0  0  0
    2.4719   -4.8488    1.5766 H   0  0  0  0  0  0  0  0  0  0  0  0
    4.1170   -6.3137    2.6337 H   0  0  0  0  0  0  0  0  0  0  0  0
    5.4032   -5.7455    1.5824 H   0  0  0  0  0  0  0  0  0  0  0  0
    4.0657   -6.6791    0.9097 H   0  0  0  0  0  0  0  0  0  0  0  0
    2.3818   -2.8286   -1.2942 H   0  0  0  0  0  0  0  0  0  0  0  0
    1.8403   -2.9281    0.3477 H   0  0  0  0  0  0  0  0  0  0  0  0
    3.6206    0.0208    1.4553 H   0  0  0  0  0  0  0  0  0  0  0  0
    2.7904   -1.4221    2.0433 H   0  0  0  0  0  0  0  0  0  0  0  0
    2.0224   -0.3736    0.8831 H   0  0  0  0  0  0  0  0  0  0  0  0
    4.5039    0.0937   -0.6244 H   0  0  0  0  0  0  0  0  0  0  0  0
    5.3403   -1.5513    1.0389 H   0  0  0  0  0  0  0  0  0  0  0  0
  1  2  1  0
  1 17  1  0
  1 18  1  0
  1 19  1  0
  2  3  1  0
  2 20  1  0
  2 21  1  0
  3  4  1  0
  3 22  1  0
  3 23  1  0
  4 15  1  0
  4  5  1  0
  4 24  1  6
  5  6  2  0
  5  7  1  0
  7  8  1  0
  7 25  1  0
  7 26  1  0
  8 16  1  0
  8  9  1  0
  8 27  1  1
  9 10  1  0
  9 12  1  0
  9 28  1  6
 10 11  1  0
 10 29  1  0
 10 30  1  0
 11 31  1  0
 11 32  1  0
 11 33  1  0
 12 13  1  0
 12 34  1  0
 12 35  1  0
 13 16  1  0
 13 14  1  1
 13 15  1  0
 14 36  1  0
 14 37  1  0
 14 38  1  0
 15 16  1  0
 15 39  1  6
 16 40  1  1
M  CHG  1  13   1
M  END
>  <i_m_ct_stereo_status>  (289) 
1

>  <s_m_source_file>  (289) 
/var/tmp/pbs.5076255.sched01/tmporjl5eer/117expd_qi0.sdf

>  <i_m_source_file_index>  (289) 
6

>  <i_lp_mmshare_version>  (289) 
48012

>  <i_f3d_flags>  (289) 
0

>  <s_epik_input>  (289) 
W0NIM11bQ0gyXVtDSDJdW0NAQEhdMUMoPU8pW0NIMl1bQ0BIXShbQ0BIXShbQ0gyXTIpW0NIMl1bQ0gzXSlbQ0BIXTNbQ0BASF0xW05AQCtdMjNbQ0gzXQ==

>  <s_epik_cmdline>  (289) 
J2VwaWtfcHl0aG9uJywgJy1waHQnLCAnMi4wJywgJy1waCcsICc3LjAnLCAnLXRuJywgJzgnLCAnLW1hJywgJzIwMCcsICctaW1hZScsICc8aW5maWxlLm1hZT4nLCAnLW9tYWUnLCAnPG91dGZpbGUubWFlPic=

>  <r_lp_tautomer_probability>  (289) 
1

>  <r_epik_Ionization_Penalty>  (289) 
4.68142e-11

>  <r_epik_Ionization_Penalty_Charging>  (289) 
0

>  <r_epik_Ionization_Penalty_Neutral>  (289) 
4.68142e-11

>  <r_epik_State_Penalty>  (289) 
-0

>  <r_epik_Charging_Adjusted_Penalty>  (289) 
0

>  <i_epik_Tot_Q>  (289) 
1

>  <i_epik_Tot_abs_Q>  (289) 
1

>  <s_lp_Force_Field>  (289) 
OPLS3e

>  <r_lp_Energy>  (289) 
18.391

>  <b_lp_Chiralities_Consistent>  (289) 
1

>  <s_lp_Variant>  (289) 
97:0-1

>  <s_i_glide_gridfile>  (289) 
pfpi4k_grid

>  <i_i_glide_lignum>  (289) 
6

>  <i_i_glide_rotatable_bonds>  (289) 
3

>  <r_i_docking_score>  (289) 
-3.88893

>  <r_i_glide_ligand_efficiency>  (289) 
-0.243058

>  <r_i_glide_ligand_efficiency_sa>  (289) 
-0.612468

>  <r_i_glide_ligand_efficiency_ln>  (289) 
-1.03084

>  <r_i_glide_gscore>  (289) 
-3.88893

>  <r_i_glide_lipo>  (289) 
-0.447221

>  <r_i_glide_hbond>  (289) 
0

>  <r_i_glide_metal>  (289) 
-0

>  <r_i_glide_rewards>  (289) 
-2.06522

>  <r_i_glide_evdw>  (289) 
-20.3081

>  <r_i_glide_ecoul>  (289) 
-4.19549

>  <r_i_glide_erotb>  (289) 
0.341832

>  <r_i_glide_esite>  (289) 
-0.0735955

>  <r_i_glide_emodel>  (289) 
-29.3146

>  <r_i_glide_energy>  (289) 
-24.5036

>  <r_i_glide_einternal>  (289) 
2.75336

>  <r_i_glide_intrahb_reward>  (289) 
-0

>  <i_i_glide_confnum>  (289) 
6

>  <i_i_glide_posenum>  (289) 
33

>  <r_i_glide_eff_state_penalty>  (289) 
0

>  <ligand_id>  (289) 
97

>  <original_smiles>  (289) 
CCCC1C(=O)CC2C(CC)C[N+]3(C)C1C23

>  <smiles>  (289) 
[H]C([H])([H])C([H])([H])C([H])([H])C1([H])C(=O)C([H])([H])C2([H])C([H])(C([H])([H])C([H])([H])[H])C([H])([H])[N+]3(C([H])([H])[H])C1([H])C23[H]

$$$$
97:0:2
     RDKit          3D

 40 42  0  0  1  0  0  0  0  0999 V2000
    3.5860    0.6820   -5.0126 C   0  0  0  0  0  0  0  0  0  0  0  0
    2.9002   -0.6430   -4.6819 C   0  0  0  0  0  0  0  0  0  0  0  0
    2.8260   -0.9948   -3.1798 C   0  0  0  0  0  0  0  0  0  0  0  0
    4.1868   -1.3379   -2.5363 C   0  0  2  0  0  0  0  0  0  0  0  0
    4.7464   -2.7107   -2.9550 C   0  0  0  0  0  0  0  0  0  0  0  0
    4.3049   -3.3542   -3.9037 O   0  0  0  0  0  0  0  0  0  0  0  0
    5.9220   -3.2540   -2.1498 C   0  0  0  0  0  0  0  0  0  0  0  0
    5.6192   -3.2573   -0.6382 C   0  0  2  0  0  0  0  0  0  0  0  0
    4.4522   -4.1798   -0.2579 C   0  0  1  0  0  0  0  0  0  0  0  0
    4.6784   -4.8188    1.1294 C   0  0  0  0  0  0  0  0  0  0  0  0
    3.6678   -5.9207    1.4781 C   0  0  0  0  0  0  0  0  0  0  0  0
    3.2270   -3.2610   -0.2935 C   0  0  0  0  0  0  0  0  0  0  0  0
    3.7456   -1.9061   -0.0135 N   0  0  2  0  0  0  0  0  0  0  0  0
    3.2424   -1.2522    1.2271 C   0  0  0  0  0  0  0  0  0  0  0  0
    4.2737   -1.0227   -1.0392 C   0  0  1  0  0  0  0  0  0  0  0  0
    5.1957   -1.8661   -0.1864 C   0  0  2  0  0  0  0  0  0  0  0  0
    3.6025    0.8372   -6.0891 H   0  0  0  0  0  0  0  0  0  0  0  0
    4.6145    0.7129   -4.6653 H   0  0  0  0  0  0  0  0  0  0  0  0
    3.0462    1.5140   -4.5742 H   0  0  0  0  0  0  0  0  0  0  0  0
    1.8888   -0.6007   -5.0860 H   0  0  0  0  0  0  0  0  0  0  0  0
    3.4117   -1.4221   -5.2377 H   0  0  0  0  0  0  0  0  0  0  0  0
    2.3339   -0.1713   -2.6670 H   0  0  0  0  0  0  0  0  0  0  0  0
    2.1653   -1.8522   -3.0370 H   0  0  0  0  0  0  0  0  0  0  0  0
    4.9009   -0.6359   -2.9524 H   0  0  0  0  0  0  0  0  0  0  0  0
    6.1155   -4.2540   -2.5156 H   0  0  0  0  0  0  0  0  0  0  0  0
    6.7993   -2.6537   -2.3938 H   0  0  0  0  0  0  0  0  0  0  0  0
    6.5436   -3.5376   -0.1115 H   0  0  0  0  0  0  0  0  0  0  0  0
    4.3465   -4.9857   -0.9974 H   0  0  0  0  0  0  0  0  0  0  0  0
    5.6725   -5.2690    1.1642 H   0  0  0  0  0  0  0  0  0  0  0  0
    4.6786   -4.0473    1.9090 H   0  0  0  0  0  0  0  0  0  0  0  0
    3.8515   -6.3076    2.4824 H   0  0  0  0  0  0  0  0  0  0  0  0
    3.7523   -6.7552    0.7791 H   0  0  0  0  0  0  0  0  0  0  0  0
    2.6376   -5.5669    1.4533 H   0  0  0  0  0  0  0  0  0  0  0  0
    2.7117   -3.2951   -1.2447 H   0  0  0  0  0  0  0  0  0  0  0  0
    2.4808   -3.5403    0.4458 H   0  0  0  0  0  0  0  0  0  0  0  0
    3.7282   -0.3031    1.4518 H   0  0  0  0  0  0  0  0  0  0  0  0
    3.3756   -1.9141    2.0753 H   0  0  0  0  0  0  0  0  0  0  0  0
    2.1811   -1.0693    1.1247 H   0  0  0  0  0  0  0  0  0  0  0  0
    4.2157    0.0174   -0.7319 H   0  0  0  0  0  0  0  0  0  0  0  0
    5.6717   -1.4149    0.6713 H   0  0  0  0  0  0  0  0  0  0  0  0
  1  2  1  0
  1 17  1  0
  1 18  1  0
  1 19  1  0
  2  3  1  0
  2 20  1  0
  2 21  1  0
  3  4  1  0
  3 22  1  0
  3 23  1  0
  4 15  1  0
  4  5  1  0
  4 24  1  6
  5  6  2  0
  5  7  1  0
  7  8  1  0
  7 25  1  0
  7 26  1  0
  8 16  1  0
  8  9  1  0
  8 27  1  1
  9 10  1  0
  9 12  1  0
  9 28  1  6
 10 11  1  0
 10 29  1  0
 10 30  1  0
 11 31  1  0
 11 32  1  0
 11 33  1  0
 12 13  1  0
 12 34  1  0
 12 35  1  0
 13 16  1  0
 13 14  1  1
 13 15  1  0
 14 36  1  0
 14 37  1  0
 14 38  1  0
 15 16  1  0
 15 39  1  6
 16 40  1  1
M  CHG  1  13   1
M  END
>  <i_m_ct_stereo_status>  (290) 
1

>  <s_m_source_file>  (290) 
/var/tmp/pbs.5076255.sched01/tmporjl5eer/117expd_qi0.sdf

>  <i_m_source_file_index>  (290) 
6

>  <i_lp_mmshare_version>  (290) 
48012

>  <i_f3d_flags>  (290) 
0

>  <s_epik_input>  (290) 
W0NIM11bQ0gyXVtDSDJdW0NAQEhdMUMoPU8pW0NIMl1bQ0BIXShbQ0BIXShbQ0gyXTIpW0NIMl1bQ0gzXSlbQ0BIXTNbQ0BASF0xW05AQCtdMjNbQ0gzXQ==

>  <s_epik_cmdline>  (290) 
J2VwaWtfcHl0aG9uJywgJy1waHQnLCAnMi4wJywgJy1waCcsICc3LjAnLCAnLXRuJywgJzgnLCAnLW1hJywgJzIwMCcsICctaW1hZScsICc8aW5maWxlLm1hZT4nLCAnLW9tYWUnLCAnPG91dGZpbGUubWFlPic=

>  <r_lp_tautomer_probability>  (290) 
1

>  <r_epik_Ionization_Penalty>  (290) 
4.68142e-11

>  <r_epik_Ionization_Penalty_Charging>  (290) 
0

>  <r_epik_Ionization_Penalty_Neutral>  (290) 
4.68142e-11

>  <r_epik_State_Penalty>  (290) 
-0

>  <r_epik_Charging_Adjusted_Penalty>  (290) 
0

>  <i_epik_Tot_Q>  (290) 
1

>  <i_epik_Tot_abs_Q>  (290) 
1

>  <s_lp_Force_Field>  (290) 
OPLS3e

>  <r_lp_Energy>  (290) 
18.391

>  <b_lp_Chiralities_Consistent>  (290) 
1

>  <s_lp_Variant>  (290) 
97:0-1

>  <s_i_glide_gridfile>  (290) 
pfpi4k_grid

>  <i_i_glide_lignum>  (290) 
6

>  <i_i_glide_rotatable_bonds>  (290) 
3

>  <r_i_docking_score>  (290) 
-3.88666

>  <r_i_glide_ligand_efficiency>  (290) 
-0.242916

>  <r_i_glide_ligand_efficiency_sa>  (290) 
-0.612111

>  <r_i_glide_ligand_efficiency_ln>  (290) 
-1.03024

>  <r_i_glide_gscore>  (290) 
-3.88666

>  <r_i_glide_lipo>  (290) 
-0.608042

>  <r_i_glide_hbond>  (290) 
-0.0111659

>  <r_i_glide_metal>  (290) 
-0

>  <r_i_glide_rewards>  (290) 
-2.06194

>  <r_i_glide_evdw>  (290) 
-19.0467

>  <r_i_glide_ecoul>  (290) 
-3.64961

>  <r_i_glide_erotb>  (290) 
0.341832

>  <r_i_glide_esite>  (290) 
-0.0475655

>  <r_i_glide_emodel>  (290) 
-28.1005

>  <r_i_glide_energy>  (290) 
-22.6963

>  <r_i_glide_einternal>  (290) 
1.55546

>  <r_i_glide_intrahb_reward>  (290) 
-0

>  <i_i_glide_confnum>  (290) 
3

>  <i_i_glide_posenum>  (290) 
15

>  <r_i_glide_eff_state_penalty>  (290) 
0

>  <ligand_id>  (290) 
97

>  <original_smiles>  (290) 
CCCC1C(=O)CC2C(CC)C[N+]3(C)C1C23

>  <smiles>  (290) 
[H]C([H])([H])C([H])([H])C([H])([H])C1([H])C(=O)C([H])([H])C2([H])C([H])(C([H])([H])C([H])([H])[H])C([H])([H])[N+]3(C([H])([H])[H])C1([H])C23[H]

$$$$
98:0:0
     RDKit          3D

 35 37  0  0  1  0  0  0  0  0999 V2000
    3.8638   -1.7256   -3.9824 C   0  0  0  0  0  0  0  0  0  0  0  0
    4.1805   -2.6837   -3.0974 C   0  0  0  0  0  0  0  0  0  0  0  0
    5.5830   -3.1575   -2.7891 C   0  0  0  0  0  0  0  0  0  0  0  0
    6.0799   -2.7243   -1.0999 S   0  0  0  0  0  0  0  0  0  0  0  0
    5.1099   -3.9224   -0.2338 C   0  0  0  0  0  0  0  0  0  0  0  0
    5.3934   -5.2274   -0.2143 N   0  0  0  0  0  0  0  0  0  0  0  0
    4.4087   -5.8200    0.5436 N   0  0  0  0  0  0  0  0  0  0  0  0
    3.6228   -4.8161    0.9455 C   0  0  0  0  0  0  0  0  0  0  0  0
    2.4486   -5.0010    1.8706 C   0  0  2  0  0  0  0  0  0  0  0  0
    2.8951   -5.2198    3.3243 C   0  0  0  0  0  0  0  0  0  0  0  0
    1.7544   -5.3463    4.1649 O   0  0  0  0  0  0  0  0  0  0  0  0
    0.7872   -6.1997    3.6887 C   0  0  0  0  0  0  0  0  0  0  0  0
   -0.1980   -6.6736    4.5772 C   0  0  0  0  0  0  0  0  0  0  0  0
   -1.1961   -7.5578    4.1314 C   0  0  0  0  0  0  0  0  0  0  0  0
   -1.2150   -7.9693    2.7883 C   0  0  0  0  0  0  0  0  0  0  0  0
   -0.2390   -7.4950    1.8907 C   0  0  0  0  0  0  0  0  0  0  0  0
    0.7617   -6.6019    2.3249 C   0  0  0  0  0  0  0  0  0  0  0  0
    1.6951   -6.1327    1.4234 O   0  0  0  0  0  0  0  0  0  0  0  0
    4.0211   -3.6016    0.4904 N   0  0  0  0  0  0  0  0  0  0  0  0
    3.4336   -2.2877    0.7064 C   0  0  0  0  0  0  0  0  0  0  0  0
    4.6134   -1.2054   -4.5609 H   0  0  0  0  0  0  0  0  0  0  0  0
    2.8313   -1.4454   -4.1335 H   0  0  0  0  0  0  0  0  0  0  0  0
    3.3936   -3.1676   -2.5384 H   0  0  0  0  0  0  0  0  0  0  0  0
    5.6565   -4.2338   -2.9484 H   0  0  0  0  0  0  0  0  0  0  0  0
    6.2812   -2.6977   -3.4834 H   0  0  0  0  0  0  0  0  0  0  0  0
    1.8113   -4.1212    1.8154 H   0  0  0  0  0  0  0  0  0  0  0  0
    3.5206   -6.1122    3.4077 H   0  0  0  0  0  0  0  0  0  0  0  0
    3.4876   -4.3707    3.6747 H   0  0  0  0  0  0  0  0  0  0  0  0
   -0.1801   -6.3753    5.6140 H   0  0  0  0  0  0  0  0  0  0  0  0
   -1.9328   -7.9430    4.8190 H   0  0  0  0  0  0  0  0  0  0  0  0
   -1.9707   -8.6620    2.4518 H   0  0  0  0  0  0  0  0  0  0  0  0
   -0.2578   -7.8338    0.8651 H   0  0  0  0  0  0  0  0  0  0  0  0
    3.0512   -2.2007    1.7234 H   0  0  0  0  0  0  0  0  0  0  0  0
    2.6212   -2.1250    0.0003 H   0  0  0  0  0  0  0  0  0  0  0  0
    4.1726   -1.4986    0.5685 H   0  0  0  0  0  0  0  0  0  0  0  0
  1  2  2  0
  1 21  1  0
  1 22  1  0
  2  3  1  0
  2 23  1  0
  3  4  1  0
  3 24  1  0
  3 25  1  0
  4  5  1  0
  5 19  1  0
  5  6  2  0
  6  7  1  0
  7  8  2  0
  8  9  1  0
  8 19  1  0
  9 18  1  0
  9 10  1  0
  9 26  1  1
 10 11  1  0
 10 27  1  0
 10 28  1  0
 11 12  1  0
 12 17  2  0
 12 13  1  0
 13 14  2  0
 13 29  1  0
 14 15  1  0
 14 30  1  0
 15 16  2  0
 15 31  1  0
 16 17  1  0
 16 32  1  0
 17 18  1  0
 19 20  1  0
 20 33  1  0
 20 34  1  0
 20 35  1  0
M  END
>  <i_m_ct_stereo_status>  (291) 
1

>  <s_m_source_file>  (291) 
/var/tmp/pbs.5076255.sched01/tmporjl5eer/117expd_qi0.sdf

>  <i_m_source_file_index>  (291) 
7

>  <i_lp_mmshare_version>  (291) 
48012

>  <i_f3d_flags>  (291) 
0

>  <s_epik_input>  (291) 
W0NIMl09W0NIXVtDSDJdU2Mxbm5jKG4xW0NIM10pW0NASF0oW0NIMl1PMilPYyhjMjMpW2NIXVtjSF1bY0hdW2NIXTM=

>  <s_epik_cmdline>  (291) 
J2VwaWtfcHl0aG9uJywgJy1waHQnLCAnMi4wJywgJy1waCcsICc3LjAnLCAnLXRuJywgJzgnLCAnLW1hJywgJzIwMCcsICctaW1hZScsICc8aW5maWxlLm1hZT4nLCAnLW9tYWUnLCAnPG91dGZpbGUubWFlPic=

>  <r_lp_tautomer_probability>  (291) 
1

>  <r_epik_Ionization_Penalty>  (291) 
2.2334e-06

>  <r_epik_Ionization_Penalty_Charging>  (291) 
0

>  <r_epik_Ionization_Penalty_Neutral>  (291) 
2.2334e-06

>  <r_epik_State_Penalty>  (291) 
-0

>  <r_epik_Charging_Adjusted_Penalty>  (291) 
0

>  <i_epik_Tot_Q>  (291) 
0

>  <i_epik_Tot_abs_Q>  (291) 
0

>  <s_lp_Force_Field>  (291) 
OPLS3e

>  <r_lp_Energy>  (291) 
23.3427

>  <b_lp_Chiralities_Consistent>  (291) 
1

>  <s_lp_Variant>  (291) 
98:0-1

>  <s_i_glide_gridfile>  (291) 
pfpi4k_grid

>  <i_i_glide_lignum>  (291) 
7

>  <i_i_glide_rotatable_bonds>  (291) 
4

>  <r_i_docking_score>  (291) 
-2.72996

>  <r_i_glide_ligand_efficiency>  (291) 
-0.136498

>  <r_i_glide_ligand_efficiency_sa>  (291) 
-0.370512

>  <r_i_glide_ligand_efficiency_ln>  (291) 
-0.683218

>  <r_i_glide_gscore>  (291) 
-2.72996

>  <r_i_glide_lipo>  (291) 
-0.369416

>  <r_i_glide_hbond>  (291) 
-0.00786084

>  <r_i_glide_metal>  (291) 
-0

>  <r_i_glide_rewards>  (291) 
-1.53614

>  <r_i_glide_evdw>  (291) 
-26.0477

>  <r_i_glide_ecoul>  (291) 
-2.56015

>  <r_i_glide_erotb>  (291) 
0.869866

>  <r_i_glide_esite>  (291) 
0

>  <r_i_glide_emodel>  (291) 
-33.6018

>  <r_i_glide_energy>  (291) 
-28.6079

>  <r_i_glide_einternal>  (291) 
0.983534

>  <r_i_glide_intrahb_reward>  (291) 
-0

>  <i_i_glide_confnum>  (291) 
4

>  <i_i_glide_posenum>  (291) 
2

>  <r_i_glide_eff_state_penalty>  (291) 
0

>  <ligand_id>  (291) 
98

>  <original_smiles>  (291) 
C=CCSc1nnc(C2COc3ccccc3O2)n1C

>  <smiles>  (291) 
[H]C([H])=C([H])C([H])([H])Sc1nnc(C2([H])Oc3c([H])c([H])c([H])c([H])c3OC2([H])[H])n1C([H])([H])[H]

$$$$
98:0:1
     RDKit          3D

 35 37  0  0  1  0  0  0  0  0999 V2000
    0.9826   -9.3287    6.9191 C   0  0  0  0  0  0  0  0  0  0  0  0
    0.2163   -9.8207    5.9329 C   0  0  0  0  0  0  0  0  0  0  0  0
   -0.1666   -9.0503    4.6884 C   0  0  0  0  0  0  0  0  0  0  0  0
    0.5873   -9.7359    3.1831 S   0  0  0  0  0  0  0  0  0  0  0  0
    0.8609   -8.2263    2.3154 C   0  0  0  0  0  0  0  0  0  0  0  0
   -0.0650   -7.2653    2.1802 N   0  0  0  0  0  0  0  0  0  0  0  0
    0.5663   -6.2556    1.4977 N   0  0  0  0  0  0  0  0  0  0  0  0
    1.8177   -6.6774    1.2787 C   0  0  0  0  0  0  0  0  0  0  0  0
    2.8816   -5.8312    0.6147 C   0  0  2  0  0  0  0  0  0  0  0  0
    3.7442   -5.0733    1.6371 C   0  0  0  0  0  0  0  0  0  0  0  0
    4.7498   -4.3257    0.9628 O   0  0  0  0  0  0  0  0  0  0  0  0
    4.3008   -3.5951   -0.1117 C   0  0  0  0  0  0  0  0  0  0  0  0
    5.1224   -2.5705   -0.6319 C   0  0  0  0  0  0  0  0  0  0  0  0
    4.6899   -1.7890   -1.7203 C   0  0  0  0  0  0  0  0  0  0  0  0
    3.4329   -2.0400   -2.2999 C   0  0  0  0  0  0  0  0  0  0  0  0
    2.6131   -3.0632   -1.7895 C   0  0  0  0  0  0  0  0  0  0  0  0
    3.0357   -3.8547   -0.6947 C   0  0  0  0  0  0  0  0  0  0  0  0
    2.2208   -4.8571   -0.2069 O   0  0  0  0  0  0  0  0  0  0  0  0
    2.0511   -7.9199    1.7519 N   0  0  0  0  0  0  0  0  0  0  0  0
    3.2714   -8.7189    1.7006 C   0  0  0  0  0  0  0  0  0  0  0  0
    1.3853   -8.3281    6.8823 H   0  0  0  0  0  0  0  0  0  0  0  0
    1.2176   -9.9328    7.7823 H   0  0  0  0  0  0  0  0  0  0  0  0
   -0.1573  -10.8306    6.0190 H   0  0  0  0  0  0  0  0  0  0  0  0
   -1.2528   -9.0172    4.5912 H   0  0  0  0  0  0  0  0  0  0  0  0
    0.1719   -8.0236    4.8186 H   0  0  0  0  0  0  0  0  0  0  0  0
    3.5114   -6.4680   -0.0127 H   0  0  0  0  0  0  0  0  0  0  0  0
    3.1300   -4.4030    2.2393 H   0  0  0  0  0  0  0  0  0  0  0  0
    4.2414   -5.7626    2.3201 H   0  0  0  0  0  0  0  0  0  0  0  0
    6.0799   -2.3689   -0.1771 H   0  0  0  0  0  0  0  0  0  0  0  0
    5.3083   -0.9896   -2.1026 H   0  0  0  0  0  0  0  0  0  0  0  0
    3.0893   -1.4338   -3.1257 H   0  0  0  0  0  0  0  0  0  0  0  0
    1.6520   -3.2492   -2.2481 H   0  0  0  0  0  0  0  0  0  0  0  0
    4.1441   -8.0827    1.8242 H   0  0  0  0  0  0  0  0  0  0  0  0
    3.3438   -9.2366    0.7442 H   0  0  0  0  0  0  0  0  0  0  0  0
    3.2935   -9.4575    2.5018 H   0  0  0  0  0  0  0  0  0  0  0  0
  1  2  2  0
  1 21  1  0
  1 22  1  0
  2  3  1  0
  2 23  1  0
  3  4  1  0
  3 24  1  0
  3 25  1  0
  4  5  1  0
  5 19  1  0
  5  6  2  0
  6  7  1  0
  7  8  2  0
  8  9  1  0
  8 19  1  0
  9 18  1  0
  9 10  1  0
  9 26  1  6
 10 11  1  0
 10 27  1  0
 10 28  1  0
 11 12  1  0
 12 17  2  0
 12 13  1  0
 13 14  2  0
 13 29  1  0
 14 15  1  0
 14 30  1  0
 15 16  2  0
 15 31  1  0
 16 17  1  0
 16 32  1  0
 17 18  1  0
 19 20  1  0
 20 33  1  0
 20 34  1  0
 20 35  1  0
M  END
>  <i_m_ct_stereo_status>  (292) 
1

>  <s_m_source_file>  (292) 
/var/tmp/pbs.5076255.sched01/tmporjl5eer/117expd_qi0.sdf

>  <i_m_source_file_index>  (292) 
7

>  <i_lp_mmshare_version>  (292) 
48012

>  <i_f3d_flags>  (292) 
0

>  <s_epik_input>  (292) 
W0NIMl09W0NIXVtDSDJdU2Mxbm5jKG4xW0NIM10pW0NASF0oW0NIMl1PMilPYyhjMjMpW2NIXVtjSF1bY0hdW2NIXTM=

>  <s_epik_cmdline>  (292) 
J2VwaWtfcHl0aG9uJywgJy1waHQnLCAnMi4wJywgJy1waCcsICc3LjAnLCAnLXRuJywgJzgnLCAnLW1hJywgJzIwMCcsICctaW1hZScsICc8aW5maWxlLm1hZT4nLCAnLW9tYWUnLCAnPG91dGZpbGUubWFlPic=

>  <r_lp_tautomer_probability>  (292) 
1

>  <r_epik_Ionization_Penalty>  (292) 
2.2334e-06

>  <r_epik_Ionization_Penalty_Charging>  (292) 
0

>  <r_epik_Ionization_Penalty_Neutral>  (292) 
2.2334e-06

>  <r_epik_State_Penalty>  (292) 
-0

>  <r_epik_Charging_Adjusted_Penalty>  (292) 
0

>  <i_epik_Tot_Q>  (292) 
0

>  <i_epik_Tot_abs_Q>  (292) 
0

>  <s_lp_Force_Field>  (292) 
OPLS3e

>  <r_lp_Energy>  (292) 
23.3427

>  <b_lp_Chiralities_Consistent>  (292) 
1

>  <s_lp_Variant>  (292) 
98:0-1

>  <s_i_glide_gridfile>  (292) 
pfpi4k_grid

>  <i_i_glide_lignum>  (292) 
7

>  <i_i_glide_rotatable_bonds>  (292) 
4

>  <r_i_docking_score>  (292) 
-2.70146

>  <r_i_glide_ligand_efficiency>  (292) 
-0.135073

>  <r_i_glide_ligand_efficiency_sa>  (292) 
-0.366644

>  <r_i_glide_ligand_efficiency_ln>  (292) 
-0.676086

>  <r_i_glide_gscore>  (292) 
-2.70146

>  <r_i_glide_lipo>  (292) 
-0.0535994

>  <r_i_glide_hbond>  (292) 
0

>  <r_i_glide_metal>  (292) 
-0

>  <r_i_glide_rewards>  (292) 
-1.43622

>  <r_i_glide_evdw>  (292) 
-25.4628

>  <r_i_glide_ecoul>  (292) 
-3.58292

>  <r_i_glide_erotb>  (292) 
0.869866

>  <r_i_glide_esite>  (292) 
-0.270923

>  <r_i_glide_emodel>  (292) 
-33.8123

>  <r_i_glide_energy>  (292) 
-29.0457

>  <r_i_glide_einternal>  (292) 
1.29303

>  <r_i_glide_intrahb_reward>  (292) 
-0

>  <i_i_glide_confnum>  (292) 
1

>  <i_i_glide_posenum>  (292) 
17

>  <r_i_glide_eff_state_penalty>  (292) 
0

>  <ligand_id>  (292) 
98

>  <original_smiles>  (292) 
C=CCSc1nnc(C2COc3ccccc3O2)n1C

>  <smiles>  (292) 
[H]C([H])=C([H])C([H])([H])Sc1nnc(C2([H])Oc3c([H])c([H])c([H])c([H])c3OC2([H])[H])n1C([H])([H])[H]

$$$$
98:0:2
     RDKit          3D

 35 37  0  0  1  0  0  0  0  0999 V2000
   -2.1857   -7.2441    3.6463 C   0  0  0  0  0  0  0  0  0  0  0  0
   -1.7473   -8.4982    3.7860 C   0  0  0  0  0  0  0  0  0  0  0  0
   -1.1980   -9.3353    2.6520 C   0  0  0  0  0  0  0  0  0  0  0  0
    0.5577   -9.7349    2.8766 S   0  0  0  0  0  0  0  0  0  0  0  0
    1.2708   -8.2593    2.2146 C   0  0  0  0  0  0  0  0  0  0  0  0
    0.6390   -7.0769    2.1805 N   0  0  0  0  0  0  0  0  0  0  0  0
    1.5154   -6.1945    1.6114 N   0  0  0  0  0  0  0  0  0  0  0  0
    2.6148   -6.9080    1.3501 C   0  0  0  0  0  0  0  0  0  0  0  0
    3.8601   -6.3006    0.7731 C   0  0  2  0  0  0  0  0  0  0  0  0
    4.8714   -5.9402    1.8771 C   0  0  0  0  0  0  0  0  0  0  0  0
    6.0402   -5.3902    1.2870 O   0  0  0  0  0  0  0  0  0  0  0  0
    5.7920   -4.4236    0.3422 C   0  0  0  0  0  0  0  0  0  0  0  0
    6.8446   -3.5763   -0.0441 C   0  0  0  0  0  0  0  0  0  0  0  0
    6.6336   -2.5710   -1.0004 C   0  0  0  0  0  0  0  0  0  0  0  0
    5.3584   -2.3966   -1.5677 C   0  0  0  0  0  0  0  0  0  0  0  0
    4.2975   -3.2432   -1.1935 C   0  0  0  0  0  0  0  0  0  0  0  0
    4.5113   -4.2684   -0.2488 C   0  0  0  0  0  0  0  0  0  0  0  0
    3.4712   -5.0999    0.0973 O   0  0  0  0  0  0  0  0  0  0  0  0
    2.5199   -8.2148    1.6973 N   0  0  0  0  0  0  0  0  0  0  0  0
    3.5018   -9.2893    1.5394 C   0  0  0  0  0  0  0  0  0  0  0  0
   -2.1760   -6.7742    2.6749 H   0  0  0  0  0  0  0  0  0  0  0  0
   -2.5436   -6.6668    4.4832 H   0  0  0  0  0  0  0  0  0  0  0  0
   -1.7630   -8.9614    4.7627 H   0  0  0  0  0  0  0  0  0  0  0  0
   -1.7682  -10.2522    2.6034 H   0  0  0  0  0  0  0  0  0  0  0  0
   -1.3628   -8.8633    1.6835 H   0  0  0  0  0  0  0  0  0  0  0  0
    4.2896   -6.9963    0.0485 H   0  0  0  0  0  0  0  0  0  0  0  0
    4.4355   -5.2277    2.5827 H   0  0  0  0  0  0  0  0  0  0  0  0
    5.1714   -6.8206    2.4507 H   0  0  0  0  0  0  0  0  0  0  0  0
    7.8207   -3.6894    0.3974 H   0  0  0  0  0  0  0  0  0  0  0  0
    7.4608   -1.9436   -1.2854 H   0  0  0  0  0  0  0  0  0  0  0  0
    5.1912   -1.6175   -2.2932 H   0  0  0  0  0  0  0  0  0  0  0  0
    3.3208   -3.1125   -1.6371 H   0  0  0  0  0  0  0  0  0  0  0  0
    4.5099   -8.9253    1.7199 H   0  0  0  0  0  0  0  0  0  0  0  0
    3.4643   -9.6939    0.5297 H   0  0  0  0  0  0  0  0  0  0  0  0
    3.3270  -10.1043    2.2396 H   0  0  0  0  0  0  0  0  0  0  0  0
  1  2  2  0
  1 21  1  0
  1 22  1  0
  2  3  1  0
  2 23  1  0
  3  4  1  0
  3 24  1  0
  3 25  1  0
  4  5  1  0
  5 19  1  0
  5  6  2  0
  6  7  1  0
  7  8  2  0
  8  9  1  0
  8 19  1  0
  9 18  1  0
  9 10  1  0
  9 26  1  6
 10 11  1  0
 10 27  1  0
 10 28  1  0
 11 12  1  0
 12 17  2  0
 12 13  1  0
 13 14  2  0
 13 29  1  0
 14 15  1  0
 14 30  1  0
 15 16  2  0
 15 31  1  0
 16 17  1  0
 16 32  1  0
 17 18  1  0
 19 20  1  0
 20 33  1  0
 20 34  1  0
 20 35  1  0
M  END
>  <i_m_ct_stereo_status>  (293) 
1

>  <s_m_source_file>  (293) 
/var/tmp/pbs.5076255.sched01/tmporjl5eer/117expd_qi0.sdf

>  <i_m_source_file_index>  (293) 
7

>  <i_lp_mmshare_version>  (293) 
48012

>  <i_f3d_flags>  (293) 
0

>  <s_epik_input>  (293) 
W0NIMl09W0NIXVtDSDJdU2Mxbm5jKG4xW0NIM10pW0NASF0oW0NIMl1PMilPYyhjMjMpW2NIXVtjSF1bY0hdW2NIXTM=

>  <s_epik_cmdline>  (293) 
J2VwaWtfcHl0aG9uJywgJy1waHQnLCAnMi4wJywgJy1waCcsICc3LjAnLCAnLXRuJywgJzgnLCAnLW1hJywgJzIwMCcsICctaW1hZScsICc8aW5maWxlLm1hZT4nLCAnLW9tYWUnLCAnPG91dGZpbGUubWFlPic=

>  <r_lp_tautomer_probability>  (293) 
1

>  <r_epik_Ionization_Penalty>  (293) 
2.2334e-06

>  <r_epik_Ionization_Penalty_Charging>  (293) 
0

>  <r_epik_Ionization_Penalty_Neutral>  (293) 
2.2334e-06

>  <r_epik_State_Penalty>  (293) 
-0

>  <r_epik_Charging_Adjusted_Penalty>  (293) 
0

>  <i_epik_Tot_Q>  (293) 
0

>  <i_epik_Tot_abs_Q>  (293) 
0

>  <s_lp_Force_Field>  (293) 
OPLS3e

>  <r_lp_Energy>  (293) 
23.3427

>  <b_lp_Chiralities_Consistent>  (293) 
1

>  <s_lp_Variant>  (293) 
98:0-1

>  <s_i_glide_gridfile>  (293) 
pfpi4k_grid

>  <i_i_glide_lignum>  (293) 
7

>  <i_i_glide_rotatable_bonds>  (293) 
4

>  <r_i_docking_score>  (293) 
-2.58945

>  <r_i_glide_ligand_efficiency>  (293) 
-0.129472

>  <r_i_glide_ligand_efficiency_sa>  (293) 
-0.351442

>  <r_i_glide_ligand_efficiency_ln>  (293) 
-0.648054

>  <r_i_glide_gscore>  (293) 
-2.58945

>  <r_i_glide_lipo>  (293) 
-0.449638

>  <r_i_glide_hbond>  (293) 
0

>  <r_i_glide_metal>  (293) 
-0

>  <r_i_glide_rewards>  (293) 
-1.43622

>  <r_i_glide_evdw>  (293) 
-27.678

>  <r_i_glide_ecoul>  (293) 
-0.144526

>  <r_i_glide_erotb>  (293) 
0.869866

>  <r_i_glide_esite>  (293) 
-0.167874

>  <r_i_glide_emodel>  (293) 
-32.5256

>  <r_i_glide_energy>  (293) 
-27.8225

>  <r_i_glide_einternal>  (293) 
0.709985

>  <r_i_glide_intrahb_reward>  (293) 
-0

>  <i_i_glide_confnum>  (293) 
1

>  <i_i_glide_posenum>  (293) 
36

>  <r_i_glide_eff_state_penalty>  (293) 
0

>  <ligand_id>  (293) 
98

>  <original_smiles>  (293) 
C=CCSc1nnc(C2COc3ccccc3O2)n1C

>  <smiles>  (293) 
[H]C([H])=C([H])C([H])([H])Sc1nnc(C2([H])Oc3c([H])c([H])c([H])c([H])c3OC2([H])[H])n1C([H])([H])[H]

$$$$
99:0:0
     RDKit          3D

 40 43  0  0  1  0  0  0  0  0999 V2000
    5.5174   -0.2139    3.3356 C   0  0  0  0  0  0  0  0  0  0  0  0
    4.5982   -0.1978    2.0929 C   0  0  2  0  0  0  0  0  0  0  0  0
    3.2703    0.4146    2.3950 C   0  0  0  0  0  0  0  0  0  0  0  0
    2.9850    1.7272    2.6026 N   0  0  0  0  0  0  0  0  0  0  0  0
    1.6699    1.8860    2.7896 C   0  0  0  0  0  0  0  0  0  0  0  0
    1.1069    0.6627    2.7328 N   0  0  0  0  0  0  0  0  0  0  0  0
   -0.3173    0.3735    2.9547 C   0  0  0  0  0  0  0  0  0  0  0  0
   -1.2664    1.0830    2.0134 C   0  0  0  0  0  0  0  0  0  0  0  0
   -1.2096    1.4926    3.4638 C   0  0  0  0  0  0  0  0  0  0  0  0
    2.0867   -0.2595    2.4788 C   0  0  0  0  0  0  0  0  0  0  0  0
    1.9650   -1.7370    2.2988 C   0  0  0  0  0  0  0  0  0  0  0  0
    3.3958   -2.3387    2.3861 C   0  0  0  0  0  0  0  0  0  0  0  0
    4.3397   -1.5567    1.5452 N   0  0  0  0  0  0  0  0  0  0  0  0
    4.5392   -1.8347    0.2290 C   0  0  0  0  0  0  0  0  0  0  0  0
    5.1943   -1.0891   -0.5052 O   0  0  0  0  0  0  0  0  0  0  0  0
    3.9404   -3.1308   -0.3636 C   0  0  0  0  0  0  0  0  0  0  0  0
    3.6921   -3.0576   -1.7910 N   0  0  0  0  0  0  0  0  0  0  0  0
    4.5266   -3.0352   -2.8301 C   0  0  0  0  0  0  0  0  0  0  0  0
    3.9130   -3.0003   -4.0048 N   0  0  0  0  0  0  0  0  0  0  0  0
    2.6121   -3.0119   -3.5798 C   0  0  0  0  0  0  0  0  0  0  0  0
    2.4237   -3.0568   -2.2666 N   0  0  0  0  0  0  0  0  0  0  0  0
    5.7449    0.7965    3.6801 H   0  0  0  0  0  0  0  0  0  0  0  0
    6.4715   -0.6928    3.1064 H   0  0  0  0  0  0  0  0  0  0  0  0
    5.0695   -0.7304    4.1903 H   0  0  0  0  0  0  0  0  0  0  0  0
    5.0784    0.4418    1.3522 H   0  0  0  0  0  0  0  0  0  0  0  0
    1.1850    2.8274    2.9551 H   0  0  0  0  0  0  0  0  0  0  0  0
   -0.4880   -0.6525    3.2805 H   0  0  0  0  0  0  0  0  0  0  0  0
   -0.8181    1.7484    1.2820 H   0  0  0  0  0  0  0  0  0  0  0  0
   -2.1606    0.5648    1.6718 H   0  0  0  0  0  0  0  0  0  0  0  0
   -2.0612    1.2098    4.0858 H   0  0  0  0  0  0  0  0  0  0  0  0
   -0.8194    2.4876    3.6748 H   0  0  0  0  0  0  0  0  0  0  0  0
    1.3062   -2.1593    3.0572 H   0  0  0  0  0  0  0  0  0  0  0  0
    1.5334   -1.9132    1.3129 H   0  0  0  0  0  0  0  0  0  0  0  0
    3.7261   -2.2852    3.4259 H   0  0  0  0  0  0  0  0  0  0  0  0
    3.4013   -3.4028    2.1701 H   0  0  0  0  0  0  0  0  0  0  0  0
    4.6238   -3.9564   -0.1672 H   0  0  0  0  0  0  0  0  0  0  0  0
    2.9885   -3.3938    0.0909 H   0  0  0  0  0  0  0  0  0  0  0  0
    5.6012   -3.0713   -2.7149 H   0  0  0  0  0  0  0  0  0  0  0  0
    1.7780   -2.9901   -4.2703 H   0  0  0  0  0  0  0  0  0  0  0  0
    3.6694    2.4740    2.5651 H   0  0  0  0  0  0  0  0  0  0  0  0
  1  2  1  0
  1 22  1  0
  1 23  1  0
  1 24  1  0
  2 13  1  0
  2  3  1  0
  2 25  1  6
  3 10  2  0
  3  4  1  0
  4  5  2  0
  4 40  1  0
  5  6  1  0
  5 26  1  0
  6  7  1  0
  6 10  1  0
  7  9  1  0
  7  8  1  0
  7 27  1  0
  8  9  1  0
  8 28  1  0
  8 29  1  0
  9 30  1  0
  9 31  1  0
 10 11  1  0
 11 12  1  0
 11 32  1  0
 11 33  1  0
 12 13  1  0
 12 34  1  0
 12 35  1  0
 13 14  1  0
 14 15  2  0
 14 16  1  0
 16 17  1  0
 16 36  1  0
 16 37  1  0
 17 21  1  0
 17 18  1  0
 18 19  2  0
 18 38  1  0
 19 20  1  0
 20 21  2  0
 20 39  1  0
M  CHG  1   4   1
M  END
>  <i_m_ct_stereo_status>  (294) 
1

>  <s_m_source_file>  (294) 
/var/tmp/pbs.5076255.sched01/tmporjl5eer/117expd_qi0.sdf

>  <i_m_source_file_index>  (294) 
8

>  <i_lp_mmshare_version>  (294) 
48012

>  <i_f3d_flags>  (294) 
0

>  <s_epik_input>  (294) 
bjFbY0hdbltjSF1uMVtDSDJdQyg9TylOKFtDQEBIXTJbQ0gzXSlbQ0gyXVtDSDJdYyhjMjMpbihbY0hdbjMpW0NIXTRbQ0gyXVtDSDJdNA==

>  <s_epik_cmdline>  (294) 
J2VwaWtfcHl0aG9uJywgJy1waHQnLCAnMi4wJywgJy1waCcsICc3LjAnLCAnLXRuJywgJzgnLCAnLW1hJywgJzIwMCcsICctaW1hZScsICc8aW5maWxlLm1hZT4nLCAnLW9tYWUnLCAnPG91dGZpbGUubWFlPic=

>  <r_lp_tautomer_probability>  (294) 
1

>  <r_epik_Ionization_Penalty>  (294) 
0.066359

>  <r_epik_Ionization_Penalty_Charging>  (294) 
0

>  <r_epik_Ionization_Penalty_Neutral>  (294) 
0.066359

>  <r_epik_State_Penalty>  (294) 
0.0579243

>  <r_epik_Charging_Adjusted_Penalty>  (294) 
0.0579243

>  <i_epik_Tot_Q>  (294) 
1

>  <i_epik_Tot_abs_Q>  (294) 
1

>  <s_lp_Force_Field>  (294) 
OPLS3e

>  <r_lp_Energy>  (294) 
18.8805

>  <b_lp_Chiralities_Consistent>  (294) 
1

>  <s_lp_Variant>  (294) 
99:0-1

>  <s_i_glide_gridfile>  (294) 
pfpi4k_grid

>  <i_i_glide_lignum>  (294) 
8

>  <i_i_glide_rotatable_bonds>  (294) 
4

>  <r_i_docking_score>  (294) 
-4.17355

>  <r_i_glide_ligand_efficiency>  (294) 
-0.19874

>  <r_i_glide_ligand_efficiency_sa>  (294) 
-0.54831

>  <r_i_glide_ligand_efficiency_ln>  (294) 
-1.0319

>  <r_i_glide_gscore>  (294) 
-4.17355

>  <r_i_glide_lipo>  (294) 
-0.294524

>  <r_i_glide_hbond>  (294) 
-0.138281

>  <r_i_glide_metal>  (294) 
-0

>  <r_i_glide_rewards>  (294) 
-1.8969

>  <r_i_glide_evdw>  (294) 
-27.5974

>  <r_i_glide_ecoul>  (294) 
-8.36273

>  <r_i_glide_erotb>  (294) 
0.880515

>  <r_i_glide_esite>  (294) 
-0.0900751

>  <r_i_glide_emodel>  (294) 
-45.5276

>  <r_i_glide_energy>  (294) 
-35.9601

>  <r_i_glide_einternal>  (294) 
1.5074

>  <r_i_glide_intrahb_reward>  (294) 
-0

>  <i_i_glide_confnum>  (294) 
5

>  <i_i_glide_posenum>  (294) 
9

>  <r_i_glide_eff_state_penalty>  (294) 
0

>  <ligand_id>  (294) 
99

>  <original_smiles>  (294) 
CC1c2ncn(C3CC3)c2CCN1C(=O)Cn1cncn1

>  <smiles>  (294) 
[H]c1nc([H])n(C([H])([H])C(=O)N2C([H])([H])C([H])([H])c3c([n+]([H])c([H])n3C3([H])C([H])([H])C3([H])[H])C2([H])C([H])([H])[H])n1

$$$$
99:0:1
     RDKit          3D

 40 43  0  0  1  0  0  0  0  0999 V2000
    4.9113   -4.7738   -0.3942 C   0  0  0  0  0  0  0  0  0  0  0  0
    3.7846   -3.7326   -0.2008 C   0  0  2  0  0  0  0  0  0  0  0  0
    3.5043   -2.9805   -1.4608 C   0  0  0  0  0  0  0  0  0  0  0  0
    2.8748   -3.4250   -2.5853 N   0  0  0  0  0  0  0  0  0  0  0  0
    2.7908   -2.4263   -3.4822 C   0  0  0  0  0  0  0  0  0  0  0  0
    3.3754   -1.3446   -2.9332 N   0  0  0  0  0  0  0  0  0  0  0  0
    3.4921   -0.0163   -3.5810 C   0  0  0  0  0  0  0  0  0  0  0  0
    2.5275    0.3118   -4.7104 C   0  0  0  0  0  0  0  0  0  0  0  0
    3.9697   -0.0074   -5.0145 C   0  0  0  0  0  0  0  0  0  0  0  0
    3.8288   -1.6804   -1.6811 C   0  0  0  0  0  0  0  0  0  0  0  0
    4.5446   -0.8324   -0.6886 C   0  0  0  0  0  0  0  0  0  0  0  0
    5.1508   -1.7636    0.3872 C   0  0  0  0  0  0  0  0  0  0  0  0
    4.1183   -2.7245    0.8483 N   0  0  0  0  0  0  0  0  0  0  0  0
    3.2482   -2.4378    1.8556 C   0  0  0  0  0  0  0  0  0  0  0  0
    2.3304   -3.2068    2.1511 O   0  0  0  0  0  0  0  0  0  0  0  0
    3.3632   -1.1133    2.6523 C   0  0  0  0  0  0  0  0  0  0  0  0
    2.1466   -0.3243    2.5846 N   0  0  0  0  0  0  0  0  0  0  0  0
    0.9973   -0.4140    3.2588 C   0  0  0  0  0  0  0  0  0  0  0  0
    0.1391    0.5650    2.9979 N   0  0  0  0  0  0  0  0  0  0  0  0
    0.8688    1.2586    2.0674 C   0  0  0  0  0  0  0  0  0  0  0  0
    2.0827    0.7761    1.7964 N   0  0  0  0  0  0  0  0  0  0  0  0
    4.6156   -5.5380   -1.1123 H   0  0  0  0  0  0  0  0  0  0  0  0
    5.1504   -5.2839    0.5402 H   0  0  0  0  0  0  0  0  0  0  0  0
    5.8332   -4.3367   -0.7822 H   0  0  0  0  0  0  0  0  0  0  0  0
    2.8807   -4.2941    0.0423 H   0  0  0  0  0  0  0  0  0  0  0  0
    2.3367   -2.4975   -4.4435 H   0  0  0  0  0  0  0  0  0  0  0  0
    3.8540    0.7540   -2.9033 H   0  0  0  0  0  0  0  0  0  0  0  0
    1.7827   -0.4113   -5.0273 H   0  0  0  0  0  0  0  0  0  0  0  0
    2.2136    1.3483   -4.8044 H   0  0  0  0  0  0  0  0  0  0  0  0
    4.5847    0.8327   -5.3293 H   0  0  0  0  0  0  0  0  0  0  0  0
    4.1781   -0.9526   -5.5099 H   0  0  0  0  0  0  0  0  0  0  0  0
    5.3291   -0.2691   -1.1925 H   0  0  0  0  0  0  0  0  0  0  0  0
    3.8275   -0.1584   -0.2215 H   0  0  0  0  0  0  0  0  0  0  0  0
    5.9701   -2.3096   -0.0788 H   0  0  0  0  0  0  0  0  0  0  0  0
    5.6447   -1.2121    1.1818 H   0  0  0  0  0  0  0  0  0  0  0  0
    3.5698   -1.3589    3.6948 H   0  0  0  0  0  0  0  0  0  0  0  0
    4.1603   -0.4406    2.3551 H   0  0  0  0  0  0  0  0  0  0  0  0
    0.8169   -1.1806    3.9963 H   0  0  0  0  0  0  0  0  0  0  0  0
    0.4933    2.1466    1.5738 H   0  0  0  0  0  0  0  0  0  0  0  0
    2.5467   -4.3761   -2.7227 H   0  0  0  0  0  0  0  0  0  0  0  0
  1  2  1  0
  1 22  1  0
  1 23  1  0
  1 24  1  0
  2 13  1  0
  2  3  1  0
  2 25  1  1
  3 10  2  0
  3  4  1  0
  4  5  2  0
  4 40  1  0
  5  6  1  0
  5 26  1  0
  6  7  1  0
  6 10  1  0
  7  9  1  0
  7  8  1  0
  7 27  1  0
  8  9  1  0
  8 28  1  0
  8 29  1  0
  9 30  1  0
  9 31  1  0
 10 11  1  0
 11 12  1  0
 11 32  1  0
 11 33  1  0
 12 13  1  0
 12 34  1  0
 12 35  1  0
 13 14  1  0
 14 15  2  0
 14 16  1  0
 16 17  1  0
 16 36  1  0
 16 37  1  0
 17 21  1  0
 17 18  1  0
 18 19  2  0
 18 38  1  0
 19 20  1  0
 20 21  2  0
 20 39  1  0
M  CHG  1   4   1
M  END
>  <i_m_ct_stereo_status>  (295) 
1

>  <s_m_source_file>  (295) 
/var/tmp/pbs.5076255.sched01/tmporjl5eer/117expd_qi0.sdf

>  <i_m_source_file_index>  (295) 
8

>  <i_lp_mmshare_version>  (295) 
48012

>  <i_f3d_flags>  (295) 
0

>  <s_epik_input>  (295) 
bjFbY0hdbltjSF1uMVtDSDJdQyg9TylOKFtDQEBIXTJbQ0gzXSlbQ0gyXVtDSDJdYyhjMjMpbihbY0hdbjMpW0NIXTRbQ0gyXVtDSDJdNA==

>  <s_epik_cmdline>  (295) 
J2VwaWtfcHl0aG9uJywgJy1waHQnLCAnMi4wJywgJy1waCcsICc3LjAnLCAnLXRuJywgJzgnLCAnLW1hJywgJzIwMCcsICctaW1hZScsICc8aW5maWxlLm1hZT4nLCAnLW9tYWUnLCAnPG91dGZpbGUubWFlPic=

>  <r_lp_tautomer_probability>  (295) 
1

>  <r_epik_Ionization_Penalty>  (295) 
0.066359

>  <r_epik_Ionization_Penalty_Charging>  (295) 
0

>  <r_epik_Ionization_Penalty_Neutral>  (295) 
0.066359

>  <r_epik_State_Penalty>  (295) 
0.0579243

>  <r_epik_Charging_Adjusted_Penalty>  (295) 
0.0579243

>  <i_epik_Tot_Q>  (295) 
1

>  <i_epik_Tot_abs_Q>  (295) 
1

>  <s_lp_Force_Field>  (295) 
OPLS3e

>  <r_lp_Energy>  (295) 
18.8805

>  <b_lp_Chiralities_Consistent>  (295) 
1

>  <s_lp_Variant>  (295) 
99:0-1

>  <s_i_glide_gridfile>  (295) 
pfpi4k_grid

>  <i_i_glide_lignum>  (295) 
8

>  <i_i_glide_rotatable_bonds>  (295) 
4

>  <r_i_docking_score>  (295) 
-3.37451

>  <r_i_glide_ligand_efficiency>  (295) 
-0.160691

>  <r_i_glide_ligand_efficiency_sa>  (295) 
-0.443335

>  <r_i_glide_ligand_efficiency_ln>  (295) 
-0.834342

>  <r_i_glide_gscore>  (295) 
-3.37451

>  <r_i_glide_lipo>  (295) 
-0.297754

>  <r_i_glide_hbond>  (295) 
0

>  <r_i_glide_metal>  (295) 
-0

>  <r_i_glide_rewards>  (295) 
-1.74166

>  <r_i_glide_evdw>  (295) 
-27.0714

>  <r_i_glide_ecoul>  (295) 
-4.87381

>  <r_i_glide_erotb>  (295) 
0.880515

>  <r_i_glide_esite>  (295) 
-0.130973

>  <r_i_glide_emodel>  (295) 
-39.3312

>  <r_i_glide_energy>  (295) 
-31.9452

>  <r_i_glide_einternal>  (295) 
1.54872

>  <r_i_glide_intrahb_reward>  (295) 
-0

>  <i_i_glide_confnum>  (295) 
2

>  <i_i_glide_posenum>  (295) 
5

>  <r_i_glide_eff_state_penalty>  (295) 
0

>  <ligand_id>  (295) 
99

>  <original_smiles>  (295) 
CC1c2ncn(C3CC3)c2CCN1C(=O)Cn1cncn1

>  <smiles>  (295) 
[H]c1nc([H])n(C([H])([H])C(=O)N2C([H])([H])C([H])([H])c3c([n+]([H])c([H])n3C3([H])C([H])([H])C3([H])[H])C2([H])C([H])([H])[H])n1

$$$$
99:0:2
     RDKit          3D

 40 43  0  0  1  0  0  0  0  0999 V2000
    5.0564  -11.7499    4.1474 C   0  0  0  0  0  0  0  0  0  0  0  0
    4.3696  -10.3752    4.3166 C   0  0  2  0  0  0  0  0  0  0  0  0
    2.8817  -10.4804    4.1821 C   0  0  0  0  0  0  0  0  0  0  0  0
    1.9708  -11.0062    5.0589 N   0  0  0  0  0  0  0  0  0  0  0  0
    0.7346  -10.8594    4.5616 C   0  0  0  0  0  0  0  0  0  0  0  0
    0.8448  -10.2213    3.3852 N   0  0  0  0  0  0  0  0  0  0  0  0
   -0.2940   -9.9329    2.5148 C   0  0  0  0  0  0  0  0  0  0  0  0
   -0.5117   -8.4645    2.2047 C   0  0  0  0  0  0  0  0  0  0  0  0
   -1.4559   -9.1799    3.1382 C   0  0  0  0  0  0  0  0  0  0  0  0
    2.1684  -10.0214    3.1094 C   0  0  0  0  0  0  0  0  0  0  0  0
    2.7643   -9.3733    1.9090 C   0  0  0  0  0  0  0  0  0  0  0  0
    4.3009   -9.6152    1.9543 C   0  0  0  0  0  0  0  0  0  0  0  0
    4.8385   -9.3664    3.3178 N   0  0  0  0  0  0  0  0  0  0  0  0
    5.2743   -8.1354    3.7048 C   0  0  0  0  0  0  0  0  0  0  0  0
    5.4578   -7.8468    4.8873 O   0  0  0  0  0  0  0  0  0  0  0  0
    5.5732   -7.0473    2.6508 C   0  0  0  0  0  0  0  0  0  0  0  0
    4.3675   -6.4428    2.0853 N   0  0  0  0  0  0  0  0  0  0  0  0
    3.2983   -5.8709    2.6603 C   0  0  0  0  0  0  0  0  0  0  0  0
    2.3790   -5.4610    1.7939 N   0  0  0  0  0  0  0  0  0  0  0  0
    3.0036   -5.8081    0.6292 C   0  0  0  0  0  0  0  0  0  0  0  0
    4.1921   -6.3938    0.7407 N   0  0  0  0  0  0  0  0  0  0  0  0
    4.7465  -12.4373    4.9401 H   0  0  0  0  0  0  0  0  0  0  0  0
    6.1467  -11.6628    4.1982 H   0  0  0  0  0  0  0  0  0  0  0  0
    4.8051  -12.2359    3.1974 H   0  0  0  0  0  0  0  0  0  0  0  0
    4.5764  -10.0585    5.3388 H   0  0  0  0  0  0  0  0  0  0  0  0
   -0.1750  -11.1930    5.0268 H   0  0  0  0  0  0  0  0  0  0  0  0
   -0.4531  -10.7018    1.7613 H   0  0  0  0  0  0  0  0  0  0  0  0
    0.1704   -7.7369    2.6408 H   0  0  0  0  0  0  0  0  0  0  0  0
   -0.8944   -8.2095    1.2138 H   0  0  0  0  0  0  0  0  0  0  0  0
   -2.4553   -9.4051    2.7617 H   0  0  0  0  0  0  0  0  0  0  0  0
   -1.4126   -8.9310    4.1957 H   0  0  0  0  0  0  0  0  0  0  0  0
    2.3103   -9.7520    0.9909 H   0  0  0  0  0  0  0  0  0  0  0  0
    2.5249   -8.3161    1.9906 H   0  0  0  0  0  0  0  0  0  0  0  0
    4.4930  -10.6474    1.7096 H   0  0  0  0  0  0  0  0  0  0  0  0
    4.8103   -9.0610    1.1716 H   0  0  0  0  0  0  0  0  0  0  0  0
    6.1518   -6.2521    3.1194 H   0  0  0  0  0  0  0  0  0  0  0  0
    6.2084   -7.4513    1.8624 H   0  0  0  0  0  0  0  0  0  0  0  0
    3.1787   -5.7647    3.7311 H   0  0  0  0  0  0  0  0  0  0  0  0
    2.5424   -5.6421   -0.3326 H   0  0  0  0  0  0  0  0  0  0  0  0
    2.1669  -11.4595    5.9459 H   0  0  0  0  0  0  0  0  0  0  0  0
  1  2  1  0
  1 22  1  0
  1 23  1  0
  1 24  1  0
  2 13  1  0
  2  3  1  0
  2 25  1  1
  3 10  2  0
  3  4  1  0
  4  5  2  0
  4 40  1  0
  5  6  1  0
  5 26  1  0
  6  7  1  0
  6 10  1  0
  7  9  1  0
  7  8  1  0
  7 27  1  0
  8  9  1  0
  8 28  1  0
  8 29  1  0
  9 30  1  0
  9 31  1  0
 10 11  1  0
 11 12  1  0
 11 32  1  0
 11 33  1  0
 12 13  1  0
 12 34  1  0
 12 35  1  0
 13 14  1  0
 14 15  2  0
 14 16  1  0
 16 17  1  0
 16 36  1  0
 16 37  1  0
 17 21  1  0
 17 18  1  0
 18 19  2  0
 18 38  1  0
 19 20  1  0
 20 21  2  0
 20 39  1  0
M  CHG  1   4   1
M  END
>  <i_m_ct_stereo_status>  (296) 
1

>  <s_m_source_file>  (296) 
/var/tmp/pbs.5076255.sched01/tmporjl5eer/117expd_qi0.sdf

>  <i_m_source_file_index>  (296) 
8

>  <i_lp_mmshare_version>  (296) 
48012

>  <i_f3d_flags>  (296) 
0

>  <s_epik_input>  (296) 
bjFbY0hdbltjSF1uMVtDSDJdQyg9TylOKFtDQEBIXTJbQ0gzXSlbQ0gyXVtDSDJdYyhjMjMpbihbY0hdbjMpW0NIXTRbQ0gyXVtDSDJdNA==

>  <s_epik_cmdline>  (296) 
J2VwaWtfcHl0aG9uJywgJy1waHQnLCAnMi4wJywgJy1waCcsICc3LjAnLCAnLXRuJywgJzgnLCAnLW1hJywgJzIwMCcsICctaW1hZScsICc8aW5maWxlLm1hZT4nLCAnLW9tYWUnLCAnPG91dGZpbGUubWFlPic=

>  <r_lp_tautomer_probability>  (296) 
1

>  <r_epik_Ionization_Penalty>  (296) 
0.066359

>  <r_epik_Ionization_Penalty_Charging>  (296) 
0

>  <r_epik_Ionization_Penalty_Neutral>  (296) 
0.066359

>  <r_epik_State_Penalty>  (296) 
0.0579243

>  <r_epik_Charging_Adjusted_Penalty>  (296) 
0.0579243

>  <i_epik_Tot_Q>  (296) 
1

>  <i_epik_Tot_abs_Q>  (296) 
1

>  <s_lp_Force_Field>  (296) 
OPLS3e

>  <r_lp_Energy>  (296) 
18.8805

>  <b_lp_Chiralities_Consistent>  (296) 
1

>  <s_lp_Variant>  (296) 
99:0-1

>  <s_i_glide_gridfile>  (296) 
pfpi4k_grid

>  <i_i_glide_lignum>  (296) 
8

>  <i_i_glide_rotatable_bonds>  (296) 
4

>  <r_i_docking_score>  (296) 
-2.96541

>  <r_i_glide_ligand_efficiency>  (296) 
-0.14121

>  <r_i_glide_ligand_efficiency_sa>  (296) 
-0.389588

>  <r_i_glide_ligand_efficiency_ln>  (296) 
-0.733192

>  <r_i_glide_gscore>  (296) 
-2.96541

>  <r_i_glide_lipo>  (296) 
-0.101938

>  <r_i_glide_hbond>  (296) 
-0.153305

>  <r_i_glide_metal>  (296) 
-0

>  <r_i_glide_rewards>  (296) 
-1.54388

>  <r_i_glide_evdw>  (296) 
-20.2239

>  <r_i_glide_ecoul>  (296) 
-5.97601

>  <r_i_glide_erotb>  (296) 
0.880515

>  <r_i_glide_esite>  (296) 
-0.139208

>  <r_i_glide_emodel>  (296) 
-32.8

>  <r_i_glide_energy>  (296) 
-26.1999

>  <r_i_glide_einternal>  (296) 
0.982257

>  <r_i_glide_intrahb_reward>  (296) 
-0

>  <i_i_glide_confnum>  (296) 
3

>  <i_i_glide_posenum>  (296) 
2

>  <r_i_glide_eff_state_penalty>  (296) 
0

>  <ligand_id>  (296) 
99

>  <original_smiles>  (296) 
CC1c2ncn(C3CC3)c2CCN1C(=O)Cn1cncn1

>  <smiles>  (296) 
[H]c1nc([H])n(C([H])([H])C(=O)N2C([H])([H])C([H])([H])c3c([n+]([H])c([H])n3C3([H])C([H])([H])C3([H])[H])C2([H])C([H])([H])[H])n1

$$$$
99:1:0
     RDKit          3D

 39 42  0  0  1  0  0  0  0  0999 V2000
    6.7840   -8.8823    1.4737 C   0  0  0  0  0  0  0  0  0  0  0  0
    5.7988   -8.0426    2.3038 C   0  0  2  0  0  0  0  0  0  0  0  0
    4.7924   -8.9013    3.0321 C   0  0  0  0  0  0  0  0  0  0  0  0
    5.0922   -9.8451    4.0044 N   0  0  0  0  0  0  0  0  0  0  0  0
    3.8952  -10.3303    4.3364 C   0  0  0  0  0  0  0  0  0  0  0  0
    2.8540   -9.7682    3.6921 N   0  0  0  0  0  0  0  0  0  0  0  0
    1.4451  -10.0471    3.9056 C   0  0  0  0  0  0  0  0  0  0  0  0
    1.0231  -11.4615    3.5733 C   0  0  0  0  0  0  0  0  0  0  0  0
    0.6391  -10.3202    2.6567 C   0  0  0  0  0  0  0  0  0  0  0  0
    3.4383   -8.8198    2.8569 C   0  0  0  0  0  0  0  0  0  0  0  0
    2.7949   -7.8771    1.9066 C   0  0  0  0  0  0  0  0  0  0  0  0
    3.8386   -7.5039    0.8377 C   0  0  0  0  0  0  0  0  0  0  0  0
    5.1168   -7.0467    1.4334 N   0  0  0  0  0  0  0  0  0  0  0  0
    5.6382   -5.8133    1.2118 C   0  0  0  0  0  0  0  0  0  0  0  0
    6.7310   -5.4766    1.6718 O   0  0  0  0  0  0  0  0  0  0  0  0
    4.8288   -4.8015    0.3739 C   0  0  0  0  0  0  0  0  0  0  0  0
    5.5071   -3.5404    0.1657 N   0  0  0  0  0  0  0  0  0  0  0  0
    6.1220   -3.0697   -0.9219 C   0  0  0  0  0  0  0  0  0  0  0  0
    6.6278   -1.8581   -0.7602 N   0  0  0  0  0  0  0  0  0  0  0  0
    6.2661   -1.6278    0.5404 C   0  0  0  0  0  0  0  0  0  0  0  0
    5.5786   -2.5974    1.1367 N   0  0  0  0  0  0  0  0  0  0  0  0
    7.3465   -9.5507    2.1267 H   0  0  0  0  0  0  0  0  0  0  0  0
    7.5052   -8.2513    0.9509 H   0  0  0  0  0  0  0  0  0  0  0  0
    6.2664   -9.4974    0.7331 H   0  0  0  0  0  0  0  0  0  0  0  0
    6.3767   -7.5129    3.0628 H   0  0  0  0  0  0  0  0  0  0  0  0
    3.7791  -11.1079    5.0804 H   0  0  0  0  0  0  0  0  0  0  0  0
    1.0178   -9.5224    4.7580 H   0  0  0  0  0  0  0  0  0  0  0  0
    1.7712  -12.1607    3.2032 H   0  0  0  0  0  0  0  0  0  0  0  0
    0.2309  -11.9073    4.1709 H   0  0  0  0  0  0  0  0  0  0  0  0
   -0.3982   -9.9942    2.6526 H   0  0  0  0  0  0  0  0  0  0  0  0
    1.1400  -10.2647    1.6932 H   0  0  0  0  0  0  0  0  0  0  0  0
    1.9275   -8.3093    1.4179 H   0  0  0  0  0  0  0  0  0  0  0  0
    2.4487   -6.9912    2.4381 H   0  0  0  0  0  0  0  0  0  0  0  0
    4.0688   -8.4035    0.2596 H   0  0  0  0  0  0  0  0  0  0  0  0
    3.3950   -6.8082    0.1315 H   0  0  0  0  0  0  0  0  0  0  0  0
    4.6269   -5.2243   -0.6107 H   0  0  0  0  0  0  0  0  0  0  0  0
    3.8666   -4.6032    0.8477 H   0  0  0  0  0  0  0  0  0  0  0  0
    6.1841   -3.6182   -1.8504 H   0  0  0  0  0  0  0  0  0  0  0  0
    6.5237   -0.7135    1.0620 H   0  0  0  0  0  0  0  0  0  0  0  0
  1  2  1  0
  1 22  1  0
  1 23  1  0
  1 24  1  0
  2 13  1  0
  2  3  1  0
  2 25  1  1
  3 10  2  0
  3  4  1  0
  4  5  2  0
  5  6  1  0
  5 26  1  0
  6  7  1  0
  6 10  1  0
  7  9  1  0
  7  8  1  0
  7 27  1  0
  8  9  1  0
  8 28  1  0
  8 29  1  0
  9 30  1  0
  9 31  1  0
 10 11  1  0
 11 12  1  0
 11 32  1  0
 11 33  1  0
 12 13  1  0
 12 34  1  0
 12 35  1  0
 13 14  1  0
 14 15  2  0
 14 16  1  0
 16 17  1  0
 16 36  1  0
 16 37  1  0
 17 21  1  0
 17 18  1  0
 18 19  2  0
 18 38  1  0
 19 20  1  0
 20 21  2  0
 20 39  1  0
M  END
>  <i_m_ct_stereo_status>  (297) 
1

>  <s_m_source_file>  (297) 
/var/tmp/pbs.5076255.sched01/tmporjl5eer/117expd_qi0.sdf

>  <i_m_source_file_index>  (297) 
9

>  <i_lp_mmshare_version>  (297) 
48012

>  <i_f3d_flags>  (297) 
0

>  <s_epik_input>  (297) 
bjFbY0hdbltjSF1uMVtDSDJdQyg9TylOKFtDQEBIXTJbQ0gzXSlbQ0gyXVtDSDJdYyhjMjMpbihbY0hdbjMpW0NIXTRbQ0gyXVtDSDJdNA==

>  <s_epik_cmdline>  (297) 
J2VwaWtfcHl0aG9uJywgJy1waHQnLCAnMi4wJywgJy1waCcsICc3LjAnLCAnLXRuJywgJzgnLCAnLW1hJywgJzIwMCcsICctaW1hZScsICc8aW5maWxlLm1hZT4nLCAnLW9tYWUnLCAnPG91dGZpbGUubWFlPic=

>  <r_lp_tautomer_probability>  (297) 
1

>  <r_epik_Ionization_Penalty>  (297) 
1.33004

>  <r_epik_Ionization_Penalty_Charging>  (297) 
1.33003

>  <r_epik_Ionization_Penalty_Neutral>  (297) 
7.77962e-06

>  <r_epik_State_Penalty>  (297) 
1.40637

>  <r_epik_Charging_Adjusted_Penalty>  (297) 
2.7364

>  <i_epik_Tot_Q>  (297) 
0

>  <i_epik_Tot_abs_Q>  (297) 
0

>  <s_lp_Force_Field>  (297) 
OPLS3e

>  <r_lp_Energy>  (297) 
12.8052

>  <b_lp_Chiralities_Consistent>  (297) 
1

>  <s_lp_Variant>  (297) 
99:0-2

>  <s_i_glide_gridfile>  (297) 
pfpi4k_grid

>  <i_i_glide_lignum>  (297) 
9

>  <i_i_glide_rotatable_bonds>  (297) 
4

>  <r_i_docking_score>  (297) 
-3.55288

>  <r_i_glide_ligand_efficiency>  (297) 
-0.169185

>  <r_i_glide_ligand_efficiency_sa>  (297) 
-0.466768

>  <r_i_glide_ligand_efficiency_ln>  (297) 
-0.878442

>  <r_i_glide_gscore>  (297) 
-3.55288

>  <r_i_glide_lipo>  (297) 
-0.629343

>  <r_i_glide_hbond>  (297) 
-0.16

>  <r_i_glide_metal>  (297) 
-0

>  <r_i_glide_rewards>  (297) 
-1.94306

>  <r_i_glide_evdw>  (297) 
-21.9566

>  <r_i_glide_ecoul>  (297) 
-3.94779

>  <r_i_glide_erotb>  (297) 
0.88592

>  <r_i_glide_esite>  (297) 
-0.0163914

>  <r_i_glide_emodel>  (297) 
-32.0653

>  <r_i_glide_energy>  (297) 
-25.9044

>  <r_i_glide_einternal>  (297) 
0.361078

>  <r_i_glide_intrahb_reward>  (297) 
-0

>  <i_i_glide_confnum>  (297) 
1

>  <i_i_glide_posenum>  (297) 
34

>  <r_i_glide_eff_state_penalty>  (297) 
0

>  <ligand_id>  (297) 
99

>  <original_smiles>  (297) 
CC1c2ncn(C3CC3)c2CCN1C(=O)Cn1cncn1

>  <smiles>  (297) 
[H]c1nc([H])n(C([H])([H])C(=O)N2C([H])([H])C([H])([H])c3c(nc([H])n3C3([H])C([H])([H])C3([H])[H])C2([H])C([H])([H])[H])n1

$$$$
99:1:1
     RDKit          3D

 39 42  0  0  1  0  0  0  0  0999 V2000
    7.3737   -7.8225    2.2849 C   0  0  0  0  0  0  0  0  0  0  0  0
    5.9030   -7.4345    2.5328 C   0  0  2  0  0  0  0  0  0  0  0  0
    5.0929   -8.5780    3.0868 C   0  0  0  0  0  0  0  0  0  0  0  0
    5.3340   -9.2338    4.2906 N   0  0  0  0  0  0  0  0  0  0  0  0
    4.3668  -10.1517    4.3321 C   0  0  0  0  0  0  0  0  0  0  0  0
    3.5074  -10.1231    3.2979 N   0  0  0  0  0  0  0  0  0  0  0  0
    2.4018  -11.0320    3.0503 C   0  0  0  0  0  0  0  0  0  0  0  0
    1.0546  -10.3637    2.8953 C   0  0  0  0  0  0  0  0  0  0  0  0
    1.3885  -11.1121    4.1696 C   0  0  0  0  0  0  0  0  0  0  0  0
    3.9891   -9.1072    2.4806 C   0  0  0  0  0  0  0  0  0  0  0  0
    3.4711   -8.6506    1.1710 C   0  0  0  0  0  0  0  0  0  0  0  0
    4.6163   -7.9288    0.4318 C   0  0  0  0  0  0  0  0  0  0  0  0
    5.2888   -6.9095    1.2792 N   0  0  0  0  0  0  0  0  0  0  0  0
    5.3532   -5.5884    0.9640 C   0  0  0  0  0  0  0  0  0  0  0  0
    5.9392   -4.7741    1.6791 O   0  0  0  0  0  0  0  0  0  0  0  0
    4.6645   -5.0970   -0.3255 C   0  0  0  0  0  0  0  0  0  0  0  0
    4.9389   -3.7066   -0.6466 N   0  0  0  0  0  0  0  0  0  0  0  0
    5.8266   -3.1736   -1.4906 C   0  0  0  0  0  0  0  0  0  0  0  0
    5.8114   -1.8466   -1.5226 N   0  0  0  0  0  0  0  0  0  0  0  0
    4.7971   -1.6161   -0.6306 C   0  0  0  0  0  0  0  0  0  0  0  0
    4.2420   -2.6963   -0.0744 N   0  0  0  0  0  0  0  0  0  0  0  0
    7.8536   -8.1314    3.2165 H   0  0  0  0  0  0  0  0  0  0  0  0
    7.9474   -6.9813    1.8883 H   0  0  0  0  0  0  0  0  0  0  0  0
    7.4543   -8.6501    1.5775 H   0  0  0  0  0  0  0  0  0  0  0  0
    5.8975   -6.6533    3.2934 H   0  0  0  0  0  0  0  0  0  0  0  0
    4.2894  -10.8716    5.1354 H   0  0  0  0  0  0  0  0  0  0  0  0
    2.6841  -11.9192    2.4861 H   0  0  0  0  0  0  0  0  0  0  0  0
    1.0072   -9.2769    2.9523 H   0  0  0  0  0  0  0  0  0  0  0  0
    0.3422  -10.8216    2.2099 H   0  0  0  0  0  0  0  0  0  0  0  0
    0.8996  -12.0706    4.3347 H   0  0  0  0  0  0  0  0  0  0  0  0
    1.5555  -10.5231    5.0704 H   0  0  0  0  0  0  0  0  0  0  0  0
    3.1027   -9.4884    0.5798 H   0  0  0  0  0  0  0  0  0  0  0  0
    2.6397   -7.9628    1.3244 H   0  0  0  0  0  0  0  0  0  0  0  0
    5.3723   -8.6751    0.1848 H   0  0  0  0  0  0  0  0  0  0  0  0
    4.2429   -7.5687   -0.5248 H   0  0  0  0  0  0  0  0  0  0  0  0
    5.0151   -5.6842   -1.1706 H   0  0  0  0  0  0  0  0  0  0  0  0
    3.5859   -5.2370   -0.2497 H   0  0  0  0  0  0  0  0  0  0  0  0
    6.4881   -3.7760   -2.1014 H   0  0  0  0  0  0  0  0  0  0  0  0
    4.4663   -0.6196   -0.3769 H   0  0  0  0  0  0  0  0  0  0  0  0
  1  2  1  0
  1 22  1  0
  1 23  1  0
  1 24  1  0
  2 13  1  0
  2  3  1  0
  2 25  1  1
  3 10  2  0
  3  4  1  0
  4  5  2  0
  5  6  1  0
  5 26  1  0
  6  7  1  0
  6 10  1  0
  7  9  1  0
  7  8  1  0
  7 27  1  0
  8  9  1  0
  8 28  1  0
  8 29  1  0
  9 30  1  0
  9 31  1  0
 10 11  1  0
 11 12  1  0
 11 32  1  0
 11 33  1  0
 12 13  1  0
 12 34  1  0
 12 35  1  0
 13 14  1  0
 14 15  2  0
 14 16  1  0
 16 17  1  0
 16 36  1  0
 16 37  1  0
 17 21  1  0
 17 18  1  0
 18 19  2  0
 18 38  1  0
 19 20  1  0
 20 21  2  0
 20 39  1  0
M  END
>  <i_m_ct_stereo_status>  (298) 
1

>  <s_m_source_file>  (298) 
/var/tmp/pbs.5076255.sched01/tmporjl5eer/117expd_qi0.sdf

>  <i_m_source_file_index>  (298) 
9

>  <i_lp_mmshare_version>  (298) 
48012

>  <i_f3d_flags>  (298) 
0

>  <s_epik_input>  (298) 
bjFbY0hdbltjSF1uMVtDSDJdQyg9TylOKFtDQEBIXTJbQ0gzXSlbQ0gyXVtDSDJdYyhjMjMpbihbY0hdbjMpW0NIXTRbQ0gyXVtDSDJdNA==

>  <s_epik_cmdline>  (298) 
J2VwaWtfcHl0aG9uJywgJy1waHQnLCAnMi4wJywgJy1waCcsICc3LjAnLCAnLXRuJywgJzgnLCAnLW1hJywgJzIwMCcsICctaW1hZScsICc8aW5maWxlLm1hZT4nLCAnLW9tYWUnLCAnPG91dGZpbGUubWFlPic=

>  <r_lp_tautomer_probability>  (298) 
1

>  <r_epik_Ionization_Penalty>  (298) 
1.33004

>  <r_epik_Ionization_Penalty_Charging>  (298) 
1.33003

>  <r_epik_Ionization_Penalty_Neutral>  (298) 
7.77962e-06

>  <r_epik_State_Penalty>  (298) 
1.40637

>  <r_epik_Charging_Adjusted_Penalty>  (298) 
2.7364

>  <i_epik_Tot_Q>  (298) 
0

>  <i_epik_Tot_abs_Q>  (298) 
0

>  <s_lp_Force_Field>  (298) 
OPLS3e

>  <r_lp_Energy>  (298) 
12.8052

>  <b_lp_Chiralities_Consistent>  (298) 
1

>  <s_lp_Variant>  (298) 
99:0-2

>  <s_i_glide_gridfile>  (298) 
pfpi4k_grid

>  <i_i_glide_lignum>  (298) 
9

>  <i_i_glide_rotatable_bonds>  (298) 
4

>  <r_i_docking_score>  (298) 
-2.987

>  <r_i_glide_ligand_efficiency>  (298) 
-0.142238

>  <r_i_glide_ligand_efficiency_sa>  (298) 
-0.392424

>  <r_i_glide_ligand_efficiency_ln>  (298) 
-0.738529

>  <r_i_glide_gscore>  (298) 
-2.987

>  <r_i_glide_lipo>  (298) 
-0.286623

>  <r_i_glide_hbond>  (298) 
-0.0393127

>  <r_i_glide_metal>  (298) 
-0

>  <r_i_glide_rewards>  (298) 
-1.883

>  <r_i_glide_evdw>  (298) 
-24.0592

>  <r_i_glide_ecoul>  (298) 
-2.70464

>  <r_i_glide_erotb>  (298) 
0.88592

>  <r_i_glide_esite>  (298) 
-0.0553204

>  <r_i_glide_emodel>  (298) 
-31.9887

>  <r_i_glide_energy>  (298) 
-26.7638

>  <r_i_glide_einternal>  (298) 
0.334315

>  <r_i_glide_intrahb_reward>  (298) 
-0

>  <i_i_glide_confnum>  (298) 
2

>  <i_i_glide_posenum>  (298) 
2

>  <r_i_glide_eff_state_penalty>  (298) 
0

>  <ligand_id>  (298) 
99

>  <original_smiles>  (298) 
CC1c2ncn(C3CC3)c2CCN1C(=O)Cn1cncn1

>  <smiles>  (298) 
[H]c1nc([H])n(C([H])([H])C(=O)N2C([H])([H])C([H])([H])c3c(nc([H])n3C3([H])C([H])([H])C3([H])[H])C2([H])C([H])([H])[H])n1

$$$$
99:1:2
     RDKit          3D

 39 42  0  0  1  0  0  0  0  0999 V2000
    6.1934   -0.7168    1.8598 C   0  0  0  0  0  0  0  0  0  0  0  0
    5.2529   -1.8329    1.3955 C   0  0  2  0  0  0  0  0  0  0  0  0
    5.5533   -2.2636   -0.0182 C   0  0  0  0  0  0  0  0  0  0  0  0
    6.7518   -2.8082   -0.4743 N   0  0  0  0  0  0  0  0  0  0  0  0
    6.5060   -3.0512   -1.7600 C   0  0  0  0  0  0  0  0  0  0  0  0
    5.2709   -2.7185   -2.1721 N   0  0  0  0  0  0  0  0  0  0  0  0
    4.7474   -2.7863   -3.5214 C   0  0  0  0  0  0  0  0  0  0  0  0
    3.4023   -3.4553   -3.6718 C   0  0  0  0  0  0  0  0  0  0  0  0
    4.6632   -4.1883   -4.0798 C   0  0  0  0  0  0  0  0  0  0  0  0
    4.6641   -2.1866   -1.0453 C   0  0  0  0  0  0  0  0  0  0  0  0
    3.3066   -1.6224   -0.9073 C   0  0  0  0  0  0  0  0  0  0  0  0
    3.2788   -0.7038    0.3378 C   0  0  0  0  0  0  0  0  0  0  0  0
    3.8412   -1.3789    1.5305 N   0  0  0  0  0  0  0  0  0  0  0  0
    3.1445   -1.5799    2.6776 C   0  0  0  0  0  0  0  0  0  0  0  0
    3.6747   -2.0397    3.6904 O   0  0  0  0  0  0  0  0  0  0  0  0
    1.6394   -1.2347    2.7083 C   0  0  0  0  0  0  0  0  0  0  0  0
    0.9466   -1.7127    3.8966 N   0  0  0  0  0  0  0  0  0  0  0  0
    0.3323   -1.0360    4.8697 C   0  0  0  0  0  0  0  0  0  0  0  0
   -0.2345   -1.8073    5.7904 N   0  0  0  0  0  0  0  0  0  0  0  0
    0.1208   -3.0348    5.3006 C   0  0  0  0  0  0  0  0  0  0  0  0
    0.7845   -3.0359    4.1413 N   0  0  0  0  0  0  0  0  0  0  0  0
    7.2310   -1.0508    1.8228 H   0  0  0  0  0  0  0  0  0  0  0  0
    5.9778   -0.4063    2.8862 H   0  0  0  0  0  0  0  0  0  0  0  0
    6.1097    0.1421    1.2008 H   0  0  0  0  0  0  0  0  0  0  0  0
    5.4171   -2.7012    2.0352 H   0  0  0  0  0  0  0  0  0  0  0  0
    7.2615   -3.4517   -2.4217 H   0  0  0  0  0  0  0  0  0  0  0  0
    5.0103   -1.9204   -4.1229 H   0  0  0  0  0  0  0  0  0  0  0  0
    2.8932   -3.8115   -2.7782 H   0  0  0  0  0  0  0  0  0  0  0  0
    2.7463   -3.0877   -4.4603 H   0  0  0  0  0  0  0  0  0  0  0  0
    4.8557   -4.3266   -5.1376 H   0  0  0  0  0  0  0  0  0  0  0  0
    4.9911   -5.0135   -3.4496 H   0  0  0  0  0  0  0  0  0  0  0  0
    3.0175   -1.0757   -1.8034 H   0  0  0  0  0  0  0  0  0  0  0  0
    2.6067   -2.4484   -0.7812 H   0  0  0  0  0  0  0  0  0  0  0  0
    3.9149    0.1570    0.1289 H   0  0  0  0  0  0  0  0  0  0  0  0
    2.2854   -0.2813    0.4910 H   0  0  0  0  0  0  0  0  0  0  0  0
    1.5322   -0.1525    2.6542 H   0  0  0  0  0  0  0  0  0  0  0  0
    1.1296   -1.6521    1.8407 H   0  0  0  0  0  0  0  0  0  0  0  0
    0.2814    0.0459    4.8833 H   0  0  0  0  0  0  0  0  0  0  0  0
   -0.1438   -3.9546    5.7993 H   0  0  0  0  0  0  0  0  0  0  0  0
  1  2  1  0
  1 22  1  0
  1 23  1  0
  1 24  1  0
  2 13  1  0
  2  3  1  0
  2 25  1  1
  3 10  2  0
  3  4  1  0
  4  5  2  0
  5  6  1  0
  5 26  1  0
  6  7  1  0
  6 10  1  0
  7  9  1  0
  7  8  1  0
  7 27  1  0
  8  9  1  0
  8 28  1  0
  8 29  1  0
  9 30  1  0
  9 31  1  0
 10 11  1  0
 11 12  1  0
 11 32  1  0
 11 33  1  0
 12 13  1  0
 12 34  1  0
 12 35  1  0
 13 14  1  0
 14 15  2  0
 14 16  1  0
 16 17  1  0
 16 36  1  0
 16 37  1  0
 17 21  1  0
 17 18  1  0
 18 19  2  0
 18 38  1  0
 19 20  1  0
 20 21  2  0
 20 39  1  0
M  END
>  <i_m_ct_stereo_status>  (299) 
1

>  <s_m_source_file>  (299) 
/var/tmp/pbs.5076255.sched01/tmporjl5eer/117expd_qi0.sdf

>  <i_m_source_file_index>  (299) 
9

>  <i_lp_mmshare_version>  (299) 
48012

>  <i_f3d_flags>  (299) 
0

>  <s_epik_input>  (299) 
bjFbY0hdbltjSF1uMVtDSDJdQyg9TylOKFtDQEBIXTJbQ0gzXSlbQ0gyXVtDSDJdYyhjMjMpbihbY0hdbjMpW0NIXTRbQ0gyXVtDSDJdNA==

>  <s_epik_cmdline>  (299) 
J2VwaWtfcHl0aG9uJywgJy1waHQnLCAnMi4wJywgJy1waCcsICc3LjAnLCAnLXRuJywgJzgnLCAnLW1hJywgJzIwMCcsICctaW1hZScsICc8aW5maWxlLm1hZT4nLCAnLW9tYWUnLCAnPG91dGZpbGUubWFlPic=

>  <r_lp_tautomer_probability>  (299) 
1

>  <r_epik_Ionization_Penalty>  (299) 
1.33004

>  <r_epik_Ionization_Penalty_Charging>  (299) 
1.33003

>  <r_epik_Ionization_Penalty_Neutral>  (299) 
7.77962e-06

>  <r_epik_State_Penalty>  (299) 
1.40637

>  <r_epik_Charging_Adjusted_Penalty>  (299) 
2.7364

>  <i_epik_Tot_Q>  (299) 
0

>  <i_epik_Tot_abs_Q>  (299) 
0

>  <s_lp_Force_Field>  (299) 
OPLS3e

>  <r_lp_Energy>  (299) 
12.8052

>  <b_lp_Chiralities_Consistent>  (299) 
1

>  <s_lp_Variant>  (299) 
99:0-2

>  <s_i_glide_gridfile>  (299) 
pfpi4k_grid

>  <i_i_glide_lignum>  (299) 
9

>  <i_i_glide_rotatable_bonds>  (299) 
4

>  <r_i_docking_score>  (299) 
-2.87956

>  <r_i_glide_ligand_efficiency>  (299) 
-0.137122

>  <r_i_glide_ligand_efficiency_sa>  (299) 
-0.378308

>  <r_i_glide_ligand_efficiency_ln>  (299) 
-0.711964

>  <r_i_glide_gscore>  (299) 
-2.87956

>  <r_i_glide_lipo>  (299) 
-0.419968

>  <r_i_glide_hbond>  (299) 
0

>  <r_i_glide_metal>  (299) 
-0

>  <r_i_glide_rewards>  (299) 
-1.6458

>  <r_i_glide_evdw>  (299) 
-25.1845

>  <r_i_glide_ecoul>  (299) 
-2.73558

>  <r_i_glide_erotb>  (299) 
0.88592

>  <r_i_glide_esite>  (299) 
-0.0301522

>  <r_i_glide_emodel>  (299) 
-32.6616

>  <r_i_glide_energy>  (299) 
-27.92

>  <r_i_glide_einternal>  (299) 
0.792906

>  <r_i_glide_intrahb_reward>  (299) 
-0

>  <i_i_glide_confnum>  (299) 
3

>  <i_i_glide_posenum>  (299) 
5

>  <r_i_glide_eff_state_penalty>  (299) 
0

>  <ligand_id>  (299) 
99

>  <original_smiles>  (299) 
CC1c2ncn(C3CC3)c2CCN1C(=O)Cn1cncn1

>  <smiles>  (299) 
[H]c1nc([H])n(C([H])([H])C(=O)N2C([H])([H])C([H])([H])c3c(nc([H])n3C3([H])C([H])([H])C3([H])[H])C2([H])C([H])([H])[H])n1

$$$$
100:0:0
     RDKit          3D

 50 53  0  0  1  0  0  0  0  0999 V2000
   -0.0508   -8.3019    3.9311 C   0  0  0  0  0  0  0  0  0  0  0  0
   -0.2760   -9.2890    2.7291 C   0  0  0  0  0  0  0  0  0  0  0  0
    0.6003  -10.5372    2.8566 C   0  0  0  0  0  0  0  0  0  0  0  0
    2.1367  -10.4056    2.7143 C   0  0  0  0  0  0  0  0  0  0  0  0
    2.9067   -9.3447    2.3790 C   0  0  0  0  0  0  0  0  0  0  0  0
    2.4125   -7.9958    2.0556 C   0  0  0  0  0  0  0  0  0  0  0  0
    3.2850   -7.0419    1.7576 C   0  0  0  0  0  0  0  0  0  0  0  0
    2.7816   -5.6585    1.4969 C   0  0  0  0  0  0  0  0  0  0  0  0
    1.5746   -5.4277    1.5154 O   0  0  0  0  0  0  0  0  0  0  0  0
    3.7134   -4.4590    1.1677 C   0  0  1  0  0  0  0  0  0  0  0  0
    3.6039   -4.2488   -0.3598 C   0  0  0  0  0  0  0  0  0  0  0  0
    3.1901   -3.2666    1.8136 O   0  0  0  0  0  0  0  0  0  0  0  0
    3.6602   -1.9903    1.6115 C   0  0  0  0  0  0  0  0  0  0  0  0
    4.7217   -1.7276    1.0479 O   0  0  0  0  0  0  0  0  0  0  0  0
    2.7572   -0.9353    2.0958 C   0  0  0  0  0  0  0  0  0  0  0  0
    2.9947    0.3954    1.7037 C   0  0  0  0  0  0  0  0  0  0  0  0
    2.1816    1.4033    2.0911 N   0  0  0  0  0  0  0  0  0  0  0  0
    1.1342    1.0719    2.8744 C   0  0  0  0  0  0  0  0  0  0  0  0
    0.2509    2.0762    3.3307 C   0  0  0  0  0  0  0  0  0  0  0  0
   -0.8396    1.7553    4.1617 C   0  0  0  0  0  0  0  0  0  0  0  0
   -1.0726    0.4194    4.5449 C   0  0  0  0  0  0  0  0  0  0  0  0
   -0.2022   -0.5910    4.0925 C   0  0  0  0  0  0  0  0  0  0  0  0
    0.8909   -0.2740    3.2676 C   0  0  0  0  0  0  0  0  0  0  0  0
    1.6975   -1.2760    2.8745 N   0  0  0  0  0  0  0  0  0  0  0  0
    5.1478   -4.8374    1.6166 C   0  0  0  0  0  0  0  0  0  0  0  0
    5.8597   -4.0425    2.2350 O   0  0  0  0  0  0  0  0  0  0  0  0
    5.6906   -6.2376    1.2801 C   0  0  0  0  0  0  0  0  0  0  0  0
    4.7150   -7.3135    1.7153 C   0  0  0  0  0  0  0  0  0  0  0  0
    5.1765   -8.5587    2.0339 C   0  0  0  0  0  0  0  0  0  0  0  0
    4.2903   -9.5721    2.3629 O   0  0  0  0  0  0  0  0  0  0  0  0
   -0.5392   -7.3482    3.7332 H   0  0  0  0  0  0  0  0  0  0  0  0
    1.0008   -8.0716    4.1165 H   0  0  0  0  0  0  0  0  0  0  0  0
   -0.4476   -8.7162    4.8428 H   0  0  0  0  0  0  0  0  0  0  0  0
   -1.3256   -9.5504    2.6973 H   0  0  0  0  0  0  0  0  0  0  0  0
   -0.0364   -8.8404    1.7578 H   0  0  0  0  0  0  0  0  0  0  0  0
    0.3704  -11.0352    3.8114 H   0  0  0  0  0  0  0  0  0  0  0  0
    0.2569  -11.2608    2.0961 H   0  0  0  0  0  0  0  0  0  0  0  0
    2.6158  -11.3344    2.9496 H   0  0  0  0  0  0  0  0  0  0  0  0
    1.3781   -7.7756    2.0652 H   0  0  0  0  0  0  0  0  0  0  0  0
    3.9003   -5.1455   -0.9008 H   0  0  0  0  0  0  0  0  0  0  0  0
    4.2752   -3.4613   -0.7057 H   0  0  0  0  0  0  0  0  0  0  0  0
    2.5806   -3.9652   -0.6566 H   0  0  0  0  0  0  0  0  0  0  0  0
    3.8240    0.6621    1.0598 H   0  0  0  0  0  0  0  0  0  0  0  0
    0.4283    3.0912    3.0259 H   0  0  0  0  0  0  0  0  0  0  0  0
   -1.5031    2.5280    4.4953 H   0  0  0  0  0  0  0  0  0  0  0  0
   -1.9112    0.1552    5.1557 H   0  0  0  0  0  0  0  0  0  0  0  0
   -0.3485   -1.6182    4.3609 H   0  0  0  0  0  0  0  0  0  0  0  0
    5.8546   -6.3023    0.2036 H   0  0  0  0  0  0  0  0  0  0  0  0
    6.6072   -6.3866    1.8376 H   0  0  0  0  0  0  0  0  0  0  0  0
    6.2218   -8.8762    2.0035 H   0  0  0  0  0  0  0  0  0  0  0  0
  1  2  1  0
  1 31  1  0
  1 32  1  0
  1 33  1  0
  2  3  1  0
  2 34  1  0
  2 35  1  0
  3  4  1  0
  3 36  1  0
  3 37  1  0
  4  5  2  3
  4 38  1  0
  5 30  1  0
  5  6  1  0
  6  7  2  0
  6 39  1  0
  7 28  1  0
  7  8  1  0
  8  9  2  0
  8 10  1  0
 10 11  1  0
 10 12  1  1
 10 25  1  0
 11 40  1  0
 11 41  1  0
 11 42  1  0
 12 13  1  0
 13 14  2  0
 13 15  1  0
 15 24  1  0
 15 16  2  0
 16 17  1  0
 16 43  1  0
 17 18  2  0
 18 23  1  0
 18 19  1  0
 19 20  2  0
 19 44  1  0
 20 21  1  0
 20 45  1  0
 21 22  2  0
 21 46  1  0
 22 23  1  0
 22 47  1  0
 23 24  2  0
 25 26  2  0
 25 27  1  0
 27 28  1  0
 27 48  1  0
 27 49  1  0
 28 29  2  0
 29 30  1  0
 29 50  1  0
M  END
>  <i_m_ct_stereo_status>  (300) 
1

>  <s_m_source_file>  (300) 
/var/tmp/pbs.5076255.sched01/tmporjl5eer/117expd_qi0.sdf

>  <i_m_source_file_index>  (300) 
10

>  <i_lp_mmshare_version>  (300) 
48012

>  <i_f3d_flags>  (300) 
0

>  <s_epik_input>  (300) 
W0NIM11bQ0gyXVtDSDJdL1tDSF09QyhcW0NIXT0xKU9bQ0hdPUMoQzEyKVtDSDJdQyg9TylbQ0BdKEMyPU8pKFtDSDNdKU9DKD1PKWMoW2NIXW4zKW5jKGMzNClbY0hdW2NIXVtjSF1bY0hdNA==

>  <s_epik_cmdline>  (300) 
J2VwaWtfcHl0aG9uJywgJy1waHQnLCAnMi4wJywgJy1waCcsICc3LjAnLCAnLXRuJywgJzgnLCAnLW1hJywgJzIwMCcsICctaW1hZScsICc8aW5maWxlLm1hZT4nLCAnLW9tYWUnLCAnPG91dGZpbGUubWFlPic=

>  <r_lp_tautomer_probability>  (300) 
1

>  <r_epik_Ionization_Penalty>  (300) 
4.80062e-05

>  <r_epik_Ionization_Penalty_Charging>  (300) 
0

>  <r_epik_Ionization_Penalty_Neutral>  (300) 
4.80062e-05

>  <r_epik_State_Penalty>  (300) 
-0

>  <r_epik_Charging_Adjusted_Penalty>  (300) 
0

>  <i_epik_Tot_Q>  (300) 
0

>  <i_epik_Tot_abs_Q>  (300) 
0

>  <s_epik_Chemistry_Notes>  (300) 
This compound has an ester and may undergo hydrolysis at high or low pH.

>  <s_lp_Force_Field>  (300) 
OPLS3e

>  <r_lp_Energy>  (300) 
48.9574

>  <b_lp_Chiralities_Consistent>  (300) 
1

>  <s_lp_Variant>  (300) 
100:0-1

>  <s_i_glide_gridfile>  (300) 
pfpi4k_grid

>  <i_i_glide_lignum>  (300) 
10

>  <i_i_glide_rotatable_bonds>  (300) 
5

>  <r_i_docking_score>  (300) 
-2.4586

>  <r_i_glide_ligand_efficiency>  (300) 
-0.0819532

>  <r_i_glide_ligand_efficiency_sa>  (300) 
-0.254648

>  <r_i_glide_ligand_efficiency_ln>  (300) 
-0.55862

>  <r_i_glide_gscore>  (300) 
-2.4586

>  <r_i_glide_lipo>  (300) 
-0.453494

>  <r_i_glide_hbond>  (300) 
-0.0965643

>  <r_i_glide_metal>  (300) 
-0

>  <r_i_glide_rewards>  (300) 
-0.699648

>  <r_i_glide_evdw>  (300) 
-28.3053

>  <r_i_glide_ecoul>  (300) 
-1.7129

>  <r_i_glide_erotb>  (300) 
0.480408

>  <r_i_glide_esite>  (300) 
-0.0170972

>  <r_i_glide_emodel>  (300) 
-29.3587

>  <r_i_glide_energy>  (300) 
-30.0182

>  <r_i_glide_einternal>  (300) 
7.47779

>  <r_i_glide_intrahb_reward>  (300) 
-0

>  <i_i_glide_confnum>  (300) 
4

>  <i_i_glide_posenum>  (300) 
21

>  <r_i_glide_eff_state_penalty>  (300) 
0

>  <ligand_id>  (300) 
100

>  <original_smiles>  (300) 
CCCC=C1C=C2C(=O)C(C)(OC(=O)c3cnc4ccccc4n3)C(=O)CC2=CO1

>  <smiles>  (300) 
[H]C1=C2C(=C([H])C(=C([H])C([H])([H])C([H])([H])C([H])([H])[H])O1)C(=O)C(OC(=O)c1nc3c([H])c([H])c([H])c([H])c3nc1[H])(C([H])([H])[H])C(=O)C2([H])[H]

$$$$
100:0:1
     RDKit          3D

 50 53  0  0  1  0  0  0  0  0999 V2000
   -5.9926    6.1322    1.7994 C   0  0  0  0  0  0  0  0  0  0  0  0
   -5.1002    5.1703    0.9977 C   0  0  0  0  0  0  0  0  0  0  0  0
   -4.2176    4.2451    1.8772 C   0  0  0  0  0  0  0  0  0  0  0  0
   -3.0359    4.9758    2.4816 C   0  0  0  0  0  0  0  0  0  0  0  0
   -1.8982    4.4515    2.9791 C   0  0  0  0  0  0  0  0  0  0  0  0
   -1.6017    3.0258    3.0240 C   0  0  0  0  0  0  0  0  0  0  0  0
   -0.4378    2.5992    3.5509 C   0  0  0  0  0  0  0  0  0  0  0  0
   -0.1158    1.1488    3.5930 C   0  0  0  0  0  0  0  0  0  0  0  0
   -0.9367    0.2919    3.2662 O   0  0  0  0  0  0  0  0  0  0  0  0
    1.2392    0.6534    4.1659 C   0  0  1  0  0  0  0  0  0  0  0  0
    1.0215    0.0710    5.5752 C   0  0  0  0  0  0  0  0  0  0  0  0
    1.7245   -0.4734    3.4077 O   0  0  0  0  0  0  0  0  0  0  0  0
    2.2210   -0.4467    2.1292 C   0  0  0  0  0  0  0  0  0  0  0  0
    2.3019    0.5642    1.4345 O   0  0  0  0  0  0  0  0  0  0  0  0
    2.7053   -1.7914    1.6949 C   0  0  0  0  0  0  0  0  0  0  0  0
    3.4106   -1.9536    0.4775 C   0  0  0  0  0  0  0  0  0  0  0  0
    3.8516   -3.1638    0.0681 N   0  0  0  0  0  0  0  0  0  0  0  0
    3.5978   -4.2346    0.8600 C   0  0  0  0  0  0  0  0  0  0  0  0
    4.0171   -5.5258    0.4792 C   0  0  0  0  0  0  0  0  0  0  0  0
    3.7630   -6.6476    1.2928 C   0  0  0  0  0  0  0  0  0  0  0  0
    3.0757   -6.4851    2.5080 C   0  0  0  0  0  0  0  0  0  0  0  0
    2.6483   -5.2024    2.8984 C   0  0  0  0  0  0  0  0  0  0  0  0
    2.8986   -4.0746    2.0917 C   0  0  0  0  0  0  0  0  0  0  0  0
    2.4625   -2.8589    2.4917 N   0  0  0  0  0  0  0  0  0  0  0  0
    2.2793    1.7936    4.2649 C   0  0  0  0  0  0  0  0  0  0  0  0
    3.4802    1.5964    4.0866 O   0  0  0  0  0  0  0  0  0  0  0  0
    1.7980    3.1460    4.7757 C   0  0  0  0  0  0  0  0  0  0  0  0
    0.5153    3.5660    4.0848 C   0  0  0  0  0  0  0  0  0  0  0  0
    0.2080    4.8745    3.9897 C   0  0  0  0  0  0  0  0  0  0  0  0
   -0.9615    5.3464    3.4467 O   0  0  0  0  0  0  0  0  0  0  0  0
   -6.6441    6.6985    1.1313 H   0  0  0  0  0  0  0  0  0  0  0  0
   -5.4066    6.8506    2.3733 H   0  0  0  0  0  0  0  0  0  0  0  0
   -6.6400    5.5852    2.4871 H   0  0  0  0  0  0  0  0  0  0  0  0
   -5.7638    4.5608    0.3873 H   0  0  0  0  0  0  0  0  0  0  0  0
   -4.4922    5.7392    0.2894 H   0  0  0  0  0  0  0  0  0  0  0  0
   -4.8093    3.7933    2.6731 H   0  0  0  0  0  0  0  0  0  0  0  0
   -3.8410    3.4069    1.2860 H   0  0  0  0  0  0  0  0  0  0  0  0
   -3.1344    6.0497    2.4646 H   0  0  0  0  0  0  0  0  0  0  0  0
   -2.3095    2.3237    2.6096 H   0  0  0  0  0  0  0  0  0  0  0  0
    0.6165    0.8077    6.2662 H   0  0  0  0  0  0  0  0  0  0  0  0
    1.9573   -0.2959    5.9963 H   0  0  0  0  0  0  0  0  0  0  0  0
    0.3352   -0.7737    5.5524 H   0  0  0  0  0  0  0  0  0  0  0  0
    3.6068   -1.1136   -0.1766 H   0  0  0  0  0  0  0  0  0  0  0  0
    4.5370   -5.6583   -0.4591 H   0  0  0  0  0  0  0  0  0  0  0  0
    4.0944   -7.6319    0.9872 H   0  0  0  0  0  0  0  0  0  0  0  0
    2.8767   -7.3392    3.1451 H   0  0  0  0  0  0  0  0  0  0  0  0
    2.1247   -5.0724    3.8317 H   0  0  0  0  0  0  0  0  0  0  0  0
    1.6630    3.0990    5.8566 H   0  0  0  0  0  0  0  0  0  0  0  0
    2.5696    3.8882    4.5753 H   0  0  0  0  0  0  0  0  0  0  0  0
    0.8408    5.6722    4.3621 H   0  0  0  0  0  0  0  0  0  0  0  0
  1  2  1  0
  1 31  1  0
  1 32  1  0
  1 33  1  0
  2  3  1  0
  2 34  1  0
  2 35  1  0
  3  4  1  0
  3 36  1  0
  3 37  1  0
  4  5  2  3
  4 38  1  0
  5 30  1  0
  5  6  1  0
  6  7  2  0
  6 39  1  0
  7 28  1  0
  7  8  1  0
  8  9  2  0
  8 10  1  0
 10 11  1  0
 10 12  1  6
 10 25  1  0
 11 40  1  0
 11 41  1  0
 11 42  1  0
 12 13  1  0
 13 14  2  0
 13 15  1  0
 15 24  1  0
 15 16  2  0
 16 17  1  0
 16 43  1  0
 17 18  2  0
 18 23  1  0
 18 19  1  0
 19 20  2  0
 19 44  1  0
 20 21  1  0
 20 45  1  0
 21 22  2  0
 21 46  1  0
 22 23  1  0
 22 47  1  0
 23 24  2  0
 25 26  2  0
 25 27  1  0
 27 28  1  0
 27 48  1  0
 27 49  1  0
 28 29  2  0
 29 30  1  0
 29 50  1  0
M  END
>  <i_m_ct_stereo_status>  (301) 
1

>  <s_m_source_file>  (301) 
/var/tmp/pbs.5076255.sched01/tmporjl5eer/117expd_qi0.sdf

>  <i_m_source_file_index>  (301) 
10

>  <i_lp_mmshare_version>  (301) 
48012

>  <i_f3d_flags>  (301) 
0

>  <s_epik_input>  (301) 
W0NIM11bQ0gyXVtDSDJdL1tDSF09QyhcW0NIXT0xKU9bQ0hdPUMoQzEyKVtDSDJdQyg9TylbQ0BdKEMyPU8pKFtDSDNdKU9DKD1PKWMoW2NIXW4zKW5jKGMzNClbY0hdW2NIXVtjSF1bY0hdNA==

>  <s_epik_cmdline>  (301) 
J2VwaWtfcHl0aG9uJywgJy1waHQnLCAnMi4wJywgJy1waCcsICc3LjAnLCAnLXRuJywgJzgnLCAnLW1hJywgJzIwMCcsICctaW1hZScsICc8aW5maWxlLm1hZT4nLCAnLW9tYWUnLCAnPG91dGZpbGUubWFlPic=

>  <r_lp_tautomer_probability>  (301) 
1

>  <r_epik_Ionization_Penalty>  (301) 
4.80062e-05

>  <r_epik_Ionization_Penalty_Charging>  (301) 
0

>  <r_epik_Ionization_Penalty_Neutral>  (301) 
4.80062e-05

>  <r_epik_State_Penalty>  (301) 
-0

>  <r_epik_Charging_Adjusted_Penalty>  (301) 
0

>  <i_epik_Tot_Q>  (301) 
0

>  <i_epik_Tot_abs_Q>  (301) 
0

>  <s_epik_Chemistry_Notes>  (301) 
This compound has an ester and may undergo hydrolysis at high or low pH.

>  <s_lp_Force_Field>  (301) 
OPLS3e

>  <r_lp_Energy>  (301) 
48.9574

>  <b_lp_Chiralities_Consistent>  (301) 
1

>  <s_lp_Variant>  (301) 
100:0-1

>  <s_i_glide_gridfile>  (301) 
pfpi4k_grid

>  <i_i_glide_lignum>  (301) 
10

>  <i_i_glide_rotatable_bonds>  (301) 
5

>  <r_i_docking_score>  (301) 
-2.14181

>  <r_i_glide_ligand_efficiency>  (301) 
-0.0713938

>  <r_i_glide_ligand_efficiency_sa>  (301) 
-0.221837

>  <r_i_glide_ligand_efficiency_ln>  (301) 
-0.486643

>  <r_i_glide_gscore>  (301) 
-2.14181

>  <r_i_glide_lipo>  (301) 
-0.47379

>  <r_i_glide_hbond>  (301) 
-0.139191

>  <r_i_glide_metal>  (301) 
-0

>  <r_i_glide_rewards>  (301) 
-0.651714

>  <r_i_glide_evdw>  (301) 
-28.8161

>  <r_i_glide_ecoul>  (301) 
1.02712

>  <r_i_glide_erotb>  (301) 
0.480408

>  <r_i_glide_esite>  (301) 
-0.0707878

>  <r_i_glide_emodel>  (301) 
-29.4185

>  <r_i_glide_energy>  (301) 
-27.789

>  <r_i_glide_einternal>  (301) 
4.76629

>  <r_i_glide_intrahb_reward>  (301) 
-0

>  <i_i_glide_confnum>  (301) 
4

>  <i_i_glide_posenum>  (301) 
11

>  <r_i_glide_eff_state_penalty>  (301) 
0

>  <ligand_id>  (301) 
100

>  <original_smiles>  (301) 
CCCC=C1C=C2C(=O)C(C)(OC(=O)c3cnc4ccccc4n3)C(=O)CC2=CO1

>  <smiles>  (301) 
[H]C1=C2C(=C([H])C(=C([H])C([H])([H])C([H])([H])C([H])([H])[H])O1)C(=O)C(OC(=O)c1nc3c([H])c([H])c([H])c([H])c3nc1[H])(C([H])([H])[H])C(=O)C2([H])[H]

$$$$
100:0:2
     RDKit          3D

 50 53  0  0  1  0  0  0  0  0999 V2000
    3.6364  -11.0399    5.0554 C   0  0  0  0  0  0  0  0  0  0  0  0
    3.3111  -11.4668    3.6194 C   0  0  0  0  0  0  0  0  0  0  0  0
    3.2225  -10.2788    2.6459 C   0  0  0  0  0  0  0  0  0  0  0  0
    4.5663   -9.6122    2.3991 C   0  0  0  0  0  0  0  0  0  0  0  0
    4.8036   -8.3132    2.1251 C   0  0  0  0  0  0  0  0  0  0  0  0
    3.7571   -7.3047    2.0052 C   0  0  0  0  0  0  0  0  0  0  0  0
    4.0752   -6.0280    1.7082 C   0  0  0  0  0  0  0  0  0  0  0  0
    3.0101   -4.9955    1.6021 C   0  0  0  0  0  0  0  0  0  0  0  0
    1.8111   -5.2870    1.6651 O   0  0  0  0  0  0  0  0  0  0  0  0
    3.3789   -3.5034    1.3470 C   0  0  1  0  0  0  0  0  0  0  0  0
    3.0813   -3.1436   -0.1188 C   0  0  0  0  0  0  0  0  0  0  0  0
    2.5315   -2.6078    2.0944 O   0  0  0  0  0  0  0  0  0  0  0  0
    2.2994   -2.6376    3.4469 C   0  0  0  0  0  0  0  0  0  0  0  0
    2.8235   -3.4308    4.2291 O   0  0  0  0  0  0  0  0  0  0  0  0
    1.2923   -1.6158    3.8602 C   0  0  0  0  0  0  0  0  0  0  0  0
    0.6502   -1.6888    5.1191 C   0  0  0  0  0  0  0  0  0  0  0  0
   -0.2732   -0.7789    5.5062 N   0  0  0  0  0  0  0  0  0  0  0  0
   -0.5536    0.2358    4.6515 C   0  0  0  0  0  0  0  0  0  0  0  0
   -1.4917    1.2276    5.0090 C   0  0  0  0  0  0  0  0  0  0  0  0
   -1.8014    2.2834    4.1306 C   0  0  0  0  0  0  0  0  0  0  0  0
   -1.1656    2.3551    2.8809 C   0  0  0  0  0  0  0  0  0  0  0  0
   -0.2316    1.3721    2.5095 C   0  0  0  0  0  0  0  0  0  0  0  0
    0.0920    0.3155    3.3807 C   0  0  0  0  0  0  0  0  0  0  0  0
    1.0029   -0.6107    3.0037 N   0  0  0  0  0  0  0  0  0  0  0  0
    4.8714   -3.2276    1.6395 C   0  0  0  0  0  0  0  0  0  0  0  0
    5.2550   -2.1722    2.1391 O   0  0  0  0  0  0  0  0  0  0  0  0
    5.8887   -4.2538    1.1394 C   0  0  0  0  0  0  0  0  0  0  0  0
    5.4738   -5.6638    1.5208 C   0  0  0  0  0  0  0  0  0  0  0  0
    6.4079   -6.6276    1.6582 C   0  0  0  0  0  0  0  0  0  0  0  0
    6.1181   -7.9404    1.9483 O   0  0  0  0  0  0  0  0  0  0  0  0
    3.6813  -11.9047    5.7192 H   0  0  0  0  0  0  0  0  0  0  0  0
    2.8699  -10.3691    5.4435 H   0  0  0  0  0  0  0  0  0  0  0  0
    4.5961  -10.5254    5.1088 H   0  0  0  0  0  0  0  0  0  0  0  0
    4.0455  -12.1945    3.2691 H   0  0  0  0  0  0  0  0  0  0  0  0
    2.3575  -11.9948    3.6219 H   0  0  0  0  0  0  0  0  0  0  0  0
    2.8678  -10.6446    1.6836 H   0  0  0  0  0  0  0  0  0  0  0  0
    2.4788   -9.5709    3.0155 H   0  0  0  0  0  0  0  0  0  0  0  0
    5.4115  -10.2807    2.4232 H   0  0  0  0  0  0  0  0  0  0  0  0
    2.7249   -7.5757    2.1554 H   0  0  0  0  0  0  0  0  0  0  0  0
    3.6392   -3.7657   -0.8160 H   0  0  0  0  0  0  0  0  0  0  0  0
    3.3250   -2.1012   -0.3281 H   0  0  0  0  0  0  0  0  0  0  0  0
    2.0237   -3.2637   -0.3451 H   0  0  0  0  0  0  0  0  0  0  0  0
    0.8671   -2.4838    5.8210 H   0  0  0  0  0  0  0  0  0  0  0  0
   -1.9853    1.1823    5.9636 H   0  0  0  0  0  0  0  0  0  0  0  0
   -2.5329    3.0316    4.4049 H   0  0  0  0  0  0  0  0  0  0  0  0
   -1.3859    3.1576    2.1876 H   0  0  0  0  0  0  0  0  0  0  0  0
    0.2427    1.4348    1.5415 H   0  0  0  0  0  0  0  0  0  0  0  0
    6.0004   -4.1704    0.0557 H   0  0  0  0  0  0  0  0  0  0  0  0
    6.8628   -4.0359    1.5816 H   0  0  0  0  0  0  0  0  0  0  0  0
    7.4720   -6.4667    1.5250 H   0  0  0  0  0  0  0  0  0  0  0  0
  1  2  1  0
  1 31  1  0
  1 32  1  0
  1 33  1  0
  2  3  1  0
  2 34  1  0
  2 35  1  0
  3  4  1  0
  3 36  1  0
  3 37  1  0
  4  5  2  3
  4 38  1  0
  5 30  1  0
  5  6  1  0
  6  7  2  0
  6 39  1  0
  7 28  1  0
  7  8  1  0
  8  9  2  0
  8 10  1  0
 10 11  1  0
 10 12  1  1
 10 25  1  0
 11 40  1  0
 11 41  1  0
 11 42  1  0
 12 13  1  0
 13 14  2  0
 13 15  1  0
 15 24  1  0
 15 16  2  0
 16 17  1  0
 16 43  1  0
 17 18  2  0
 18 23  1  0
 18 19  1  0
 19 20  2  0
 19 44  1  0
 20 21  1  0
 20 45  1  0
 21 22  2  0
 21 46  1  0
 22 23  1  0
 22 47  1  0
 23 24  2  0
 25 26  2  0
 25 27  1  0
 27 28  1  0
 27 48  1  0
 27 49  1  0
 28 29  2  0
 29 30  1  0
 29 50  1  0
M  END
>  <i_m_ct_stereo_status>  (302) 
1

>  <s_m_source_file>  (302) 
/var/tmp/pbs.5076255.sched01/tmporjl5eer/117expd_qi0.sdf

>  <i_m_source_file_index>  (302) 
10

>  <i_lp_mmshare_version>  (302) 
48012

>  <i_f3d_flags>  (302) 
0

>  <s_epik_input>  (302) 
W0NIM11bQ0gyXVtDSDJdL1tDSF09QyhcW0NIXT0xKU9bQ0hdPUMoQzEyKVtDSDJdQyg9TylbQ0BdKEMyPU8pKFtDSDNdKU9DKD1PKWMoW2NIXW4zKW5jKGMzNClbY0hdW2NIXVtjSF1bY0hdNA==

>  <s_epik_cmdline>  (302) 
J2VwaWtfcHl0aG9uJywgJy1waHQnLCAnMi4wJywgJy1waCcsICc3LjAnLCAnLXRuJywgJzgnLCAnLW1hJywgJzIwMCcsICctaW1hZScsICc8aW5maWxlLm1hZT4nLCAnLW9tYWUnLCAnPG91dGZpbGUubWFlPic=

>  <r_lp_tautomer_probability>  (302) 
1

>  <r_epik_Ionization_Penalty>  (302) 
4.80062e-05

>  <r_epik_Ionization_Penalty_Charging>  (302) 
0

>  <r_epik_Ionization_Penalty_Neutral>  (302) 
4.80062e-05

>  <r_epik_State_Penalty>  (302) 
-0

>  <r_epik_Charging_Adjusted_Penalty>  (302) 
0

>  <i_epik_Tot_Q>  (302) 
0

>  <i_epik_Tot_abs_Q>  (302) 
0

>  <s_epik_Chemistry_Notes>  (302) 
This compound has an ester and may undergo hydrolysis at high or low pH.

>  <s_lp_Force_Field>  (302) 
OPLS3e

>  <r_lp_Energy>  (302) 
48.9574

>  <b_lp_Chiralities_Consistent>  (302) 
1

>  <s_lp_Variant>  (302) 
100:0-1

>  <s_i_glide_gridfile>  (302) 
pfpi4k_grid

>  <i_i_glide_lignum>  (302) 
10

>  <i_i_glide_rotatable_bonds>  (302) 
5

>  <r_i_docking_score>  (302) 
-2.10414

>  <r_i_glide_ligand_efficiency>  (302) 
-0.0701381

>  <r_i_glide_ligand_efficiency_sa>  (302) 
-0.217935

>  <r_i_glide_ligand_efficiency_ln>  (302) 
-0.478084

>  <r_i_glide_gscore>  (302) 
-2.10414

>  <r_i_glide_lipo>  (302) 
-0.284704

>  <r_i_glide_hbond>  (302) 
-0.0468892

>  <r_i_glide_metal>  (302) 
-0

>  <r_i_glide_rewards>  (302) 
-0.696384

>  <r_i_glide_evdw>  (302) 
-26.2087

>  <r_i_glide_ecoul>  (302) 
-1.62038

>  <r_i_glide_erotb>  (302) 
0.480408

>  <r_i_glide_esite>  (302) 
-0.00308364

>  <r_i_glide_emodel>  (302) 
-29.972

>  <r_i_glide_energy>  (302) 
-27.829

>  <r_i_glide_einternal>  (302) 
4.01873

>  <r_i_glide_intrahb_reward>  (302) 
-0

>  <i_i_glide_confnum>  (302) 
4

>  <i_i_glide_posenum>  (302) 
1

>  <r_i_glide_eff_state_penalty>  (302) 
0

>  <ligand_id>  (302) 
100

>  <original_smiles>  (302) 
CCCC=C1C=C2C(=O)C(C)(OC(=O)c3cnc4ccccc4n3)C(=O)CC2=CO1

>  <smiles>  (302) 
[H]C1=C2C(=C([H])C(=C([H])C([H])([H])C([H])([H])C([H])([H])[H])O1)C(=O)C(OC(=O)c1nc3c([H])c([H])c([H])c([H])c3nc1[H])(C([H])([H])[H])C(=O)C2([H])[H]

$$$$
100:1:0
     RDKit          3D

 50 53  0  0  1  0  0  0  0  0999 V2000
   -5.6034    7.4911    1.0849 C   0  0  0  0  0  0  0  0  0  0  0  0
   -4.6429    6.3689    1.4495 C   0  0  0  0  0  0  0  0  0  0  0  0
   -5.2266    4.9305    1.4637 C   0  0  0  0  0  0  0  0  0  0  0  0
   -4.3034    3.7835    1.9253 C   0  0  0  0  0  0  0  0  0  0  0  0
   -3.0740    3.8902    2.4749 C   0  0  0  0  0  0  0  0  0  0  0  0
   -2.2278    2.7557    2.8533 C   0  0  0  0  0  0  0  0  0  0  0  0
   -0.9588    2.9267    3.2673 C   0  0  0  0  0  0  0  0  0  0  0  0
   -0.0751    1.7697    3.6252 C   0  0  0  0  0  0  0  0  0  0  0  0
   -0.5031    0.6199    3.7235 O   0  0  0  0  0  0  0  0  0  0  0  0
    1.4159    2.0327    4.0019 C   0  0  1  0  0  0  0  0  0  0  0  0
    1.4754    2.0982    5.5603 C   0  0  0  0  0  0  0  0  0  0  0  0
    2.1786    0.9540    3.3953 O   0  0  0  0  0  0  0  0  0  0  0  0
    3.4823    0.6812    3.6575 C   0  0  0  0  0  0  0  0  0  0  0  0
    4.1262    1.2072    4.5629 O   0  0  0  0  0  0  0  0  0  0  0  0
    4.0597   -0.3422    2.7468 C   0  0  0  0  0  0  0  0  0  0  0  0
    5.1570   -1.1153    3.2084 C   0  0  0  0  0  0  0  0  0  0  0  0
    5.7995   -1.9654    2.3853 N   0  0  0  0  0  0  0  0  0  0  0  0
    5.3748   -2.0501    1.1044 C   0  0  0  0  0  0  0  0  0  0  0  0
    5.9939   -2.9344    0.2249 C   0  0  0  0  0  0  0  0  0  0  0  0
    5.5507   -3.0552   -1.1031 C   0  0  0  0  0  0  0  0  0  0  0  0
    4.4801   -2.2682   -1.5549 C   0  0  0  0  0  0  0  0  0  0  0  0
    3.8529   -1.3800   -0.6810 C   0  0  0  0  0  0  0  0  0  0  0  0
    4.2723   -1.2649    0.6458 C   0  0  0  0  0  0  0  0  0  0  0  0
    3.6251   -0.4314    1.4825 N   0  0  0  0  0  0  0  0  0  0  0  0
    1.8821    3.3792    3.4011 C   0  0  0  0  0  0  0  0  0  0  0  0
    2.9422    3.5109    2.7974 O   0  0  0  0  0  0  0  0  0  0  0  0
    0.9944    4.5981    3.6044 C   0  0  0  0  0  0  0  0  0  0  0  0
   -0.4463    4.2787    3.3044 C   0  0  0  0  0  0  0  0  0  0  0  0
   -1.2511    5.2979    2.9501 C   0  0  0  0  0  0  0  0  0  0  0  0
   -2.5575    5.1481    2.5888 O   0  0  0  0  0  0  0  0  0  0  0  0
   -5.0460    8.4301    1.1265 H   0  0  0  0  0  0  0  0  0  0  0  0
   -6.3801    7.5416    1.8473 H   0  0  0  0  0  0  0  0  0  0  0  0
   -6.0443    7.3742    0.0925 H   0  0  0  0  0  0  0  0  0  0  0  0
   -3.7803    6.4005    0.7794 H   0  0  0  0  0  0  0  0  0  0  0  0
   -4.3459    6.6686    2.4486 H   0  0  0  0  0  0  0  0  0  0  0  0
   -6.1243    4.9070    2.0819 H   0  0  0  0  0  0  0  0  0  0  0  0
   -5.5610    4.7120    0.4524 H   0  0  0  0  0  0  0  0  0  0  0  0
   -4.7280    2.8008    1.7644 H   0  0  0  0  0  0  0  0  0  0  0  0
   -2.5765    1.7433    2.7833 H   0  0  0  0  0  0  0  0  0  0  0  0
    0.7501    2.8291    5.9549 H   0  0  0  0  0  0  0  0  0  0  0  0
    2.4576    2.3664    5.9338 H   0  0  0  0  0  0  0  0  0  0  0  0
    1.1969    1.1301    5.9764 H   0  0  0  0  0  0  0  0  0  0  0  0
    5.5429   -1.0057    4.2018 H   0  0  0  0  0  0  0  0  0  0  0  0
    6.8043   -3.5403    0.6017 H   0  0  0  0  0  0  0  0  0  0  0  0
    6.0270   -3.7648   -1.7604 H   0  0  0  0  0  0  0  0  0  0  0  0
    4.1051   -2.3565   -2.5669 H   0  0  0  0  0  0  0  0  0  0  0  0
    3.0056   -0.7813   -0.9949 H   0  0  0  0  0  0  0  0  0  0  0  0
    1.1327    4.9932    4.6084 H   0  0  0  0  0  0  0  0  0  0  0  0
    1.3112    5.3552    2.8829 H   0  0  0  0  0  0  0  0  0  0  0  0
   -0.8841    6.3086    2.8893 H   0  0  0  0  0  0  0  0  0  0  0  0
  1  2  1  0
  1 31  1  0
  1 32  1  0
  1 33  1  0
  2  3  1  0
  2 34  1  0
  2 35  1  0
  3  4  1  0
  3 36  1  0
  3 37  1  0
  4  5  2  3
  4 38  1  0
  5 30  1  0
  5  6  1  0
  6  7  2  0
  6 39  1  0
  7 28  1  0
  7  8  1  0
  8  9  2  0
  8 10  1  0
 10 11  1  0
 10 12  1  6
 10 25  1  0
 11 40  1  0
 11 41  1  0
 11 42  1  0
 12 13  1  0
 13 14  2  0
 13 15  1  0
 15 24  1  0
 15 16  2  0
 16 17  1  0
 16 43  1  0
 17 18  2  0
 18 23  1  0
 18 19  1  0
 19 20  2  0
 19 44  1  0
 20 21  1  0
 20 45  1  0
 21 22  2  0
 21 46  1  0
 22 23  1  0
 22 47  1  0
 23 24  2  0
 25 26  2  0
 25 27  1  0
 27 28  1  0
 27 48  1  0
 27 49  1  0
 28 29  2  0
 29 30  1  0
 29 50  1  0
M  END
>  <i_m_ct_stereo_status>  (303) 
1

>  <s_m_source_file>  (303) 
/var/tmp/pbs.5076255.sched01/tmporjl5eer/117expd_qi0.sdf

>  <i_m_source_file_index>  (303) 
11

>  <i_lp_mmshare_version>  (303) 
48012

>  <i_f3d_flags>  (303) 
0

>  <s_epik_input>  (303) 
W0NIM11bQ0gyXVtDSDJdL1tDSF09QyhcW0NIXT0xKU9bQ0hdPUMoQzEyKVtDSDJdQyg9TylbQ0BdKEMyPU8pKFtDSDNdKU9DKD1PKWMoW2NIXW4zKW5jKGMzNClbY0hdW2NIXVtjSF1bY0hdNA==

>  <s_epik_cmdline>  (303) 
J2VwaWtfcHl0aG9uJywgJy1waHQnLCAnMi4wJywgJy1waCcsICc3LjAnLCAnLXRuJywgJzgnLCAnLW1hJywgJzIwMCcsICctaW1hZScsICc8aW5maWxlLm1hZT4nLCAnLW9tYWUnLCAnPG91dGZpbGUubWFlPic=

>  <r_lp_tautomer_probability>  (303) 
1

>  <r_epik_Ionization_Penalty>  (303) 
4.80062e-05

>  <r_epik_Ionization_Penalty_Charging>  (303) 
0

>  <r_epik_Ionization_Penalty_Neutral>  (303) 
4.80062e-05

>  <r_epik_State_Penalty>  (303) 
-0

>  <r_epik_Charging_Adjusted_Penalty>  (303) 
0

>  <i_epik_Tot_Q>  (303) 
0

>  <i_epik_Tot_abs_Q>  (303) 
0

>  <s_epik_Chemistry_Notes>  (303) 
This compound has an ester and may undergo hydrolysis at high or low pH.

>  <s_lp_Force_Field>  (303) 
OPLS3e

>  <r_lp_Energy>  (303) 
46.3889

>  <b_lp_Chiralities_Consistent>  (303) 
1

>  <s_lp_Variant>  (303) 
100:0-2

>  <s_i_glide_gridfile>  (303) 
pfpi4k_grid

>  <i_i_glide_lignum>  (303) 
11

>  <i_i_glide_rotatable_bonds>  (303) 
5

>  <r_i_docking_score>  (303) 
-3.26989

>  <r_i_glide_ligand_efficiency>  (303) 
-0.108996

>  <r_i_glide_ligand_efficiency_sa>  (303) 
-0.338677

>  <r_i_glide_ligand_efficiency_ln>  (303) 
-0.742955

>  <r_i_glide_gscore>  (303) 
-3.26989

>  <r_i_glide_lipo>  (303) 
-1.07028

>  <r_i_glide_hbond>  (303) 
-0.16

>  <r_i_glide_metal>  (303) 
-0

>  <r_i_glide_rewards>  (303) 
-0.651714

>  <r_i_glide_evdw>  (303) 
-32.2579

>  <r_i_glide_ecoul>  (303) 
-1.15509

>  <r_i_glide_erotb>  (303) 
0.480408

>  <r_i_glide_esite>  (303) 
-0.0821481

>  <r_i_glide_emodel>  (303) 
-34.1452

>  <r_i_glide_energy>  (303) 
-33.4129

>  <r_i_glide_einternal>  (303) 
7.86741

>  <r_i_glide_intrahb_reward>  (303) 
-0

>  <i_i_glide_confnum>  (303) 
6

>  <i_i_glide_posenum>  (303) 
35

>  <r_i_glide_eff_state_penalty>  (303) 
0

>  <ligand_id>  (303) 
100

>  <original_smiles>  (303) 
CCCC=C1C=C2C(=O)C(C)(OC(=O)c3cnc4ccccc4n3)C(=O)CC2=CO1

>  <smiles>  (303) 
[H]C1=C2C(=C([H])C(=C([H])C([H])([H])C([H])([H])C([H])([H])[H])O1)C(=O)C(OC(=O)c1nc3c([H])c([H])c([H])c([H])c3nc1[H])(C([H])([H])[H])C(=O)C2([H])[H]

$$$$
100:1:1
     RDKit          3D

 50 53  0  0  1  0  0  0  0  0999 V2000
   -6.3043    6.5580   -0.1333 C   0  0  0  0  0  0  0  0  0  0  0  0
   -5.3490    5.4193    0.1973 C   0  0  0  0  0  0  0  0  0  0  0  0
   -5.1784    5.1119    1.6913 C   0  0  0  0  0  0  0  0  0  0  0  0
   -4.2342    3.9410    1.9878 C   0  0  0  0  0  0  0  0  0  0  0  0
   -2.9789    4.0767    2.4657 C   0  0  0  0  0  0  0  0  0  0  0  0
   -2.1494    2.9355    2.8269 C   0  0  0  0  0  0  0  0  0  0  0  0
   -0.8905    3.1351    3.2454 C   0  0  0  0  0  0  0  0  0  0  0  0
   -0.0048    1.9844    3.5699 C   0  0  0  0  0  0  0  0  0  0  0  0
   -0.4386    0.8515    3.7520 O   0  0  0  0  0  0  0  0  0  0  0  0
    1.5258    2.2116    3.7938 C   0  0  1  0  0  0  0  0  0  0  0  0
    1.8443    2.1432    5.2930 C   0  0  0  0  0  0  0  0  0  0  0  0
    2.4224    1.2441    3.1915 O   0  0  0  0  0  0  0  0  0  0  0  0
    2.2639    0.6479    1.9774 C   0  0  0  0  0  0  0  0  0  0  0  0
    1.2733    0.7961    1.2744 O   0  0  0  0  0  0  0  0  0  0  0  0
    3.4425   -0.1899    1.5814 C   0  0  0  0  0  0  0  0  0  0  0  0
    4.5695   -0.3462    2.4218 C   0  0  0  0  0  0  0  0  0  0  0  0
    5.6675   -1.0124    2.0181 N   0  0  0  0  0  0  0  0  0  0  0  0
    5.6686   -1.5384    0.7737 C   0  0  0  0  0  0  0  0  0  0  0  0
    6.8065   -2.2364    0.3135 C   0  0  0  0  0  0  0  0  0  0  0  0
    6.8559   -2.8182   -0.9709 C   0  0  0  0  0  0  0  0  0  0  0  0
    5.7423   -2.6863   -1.8256 C   0  0  0  0  0  0  0  0  0  0  0  0
    4.6009   -1.9781   -1.3753 C   0  0  0  0  0  0  0  0  0  0  0  0
    4.5435   -1.4110   -0.0781 C   0  0  0  0  0  0  0  0  0  0  0  0
    3.4388   -0.7543    0.3479 N   0  0  0  0  0  0  0  0  0  0  0  0
    1.9154    3.5974    3.2544 C   0  0  0  0  0  0  0  0  0  0  0  0
    2.9707    3.7841    2.6741 O   0  0  0  0  0  0  0  0  0  0  0  0
    1.0762    4.8070    3.5966 C   0  0  0  0  0  0  0  0  0  0  0  0
   -0.3597    4.4871    3.2855 C   0  0  0  0  0  0  0  0  0  0  0  0
   -1.1556    5.5100    2.9547 C   0  0  0  0  0  0  0  0  0  0  0  0
   -2.4515    5.3350    2.5310 O   0  0  0  0  0  0  0  0  0  0  0  0
   -6.4197    6.6166   -1.2145 H   0  0  0  0  0  0  0  0  0  0  0  0
   -5.9044    7.5076    0.2289 H   0  0  0  0  0  0  0  0  0  0  0  0
   -7.2925    6.3810    0.2903 H   0  0  0  0  0  0  0  0  0  0  0  0
   -5.7861    4.5682   -0.2840 H   0  0  0  0  0  0  0  0  0  0  0  0
   -4.3933    5.5792   -0.2846 H   0  0  0  0  0  0  0  0  0  0  0  0
   -4.7940    6.0218    2.1733 H   0  0  0  0  0  0  0  0  0  0  0  0
   -6.1519    4.8928    2.1511 H   0  0  0  0  0  0  0  0  0  0  0  0
   -4.6069    2.9493    1.7745 H   0  0  0  0  0  0  0  0  0  0  0  0
   -2.5284    1.9297    2.7587 H   0  0  0  0  0  0  0  0  0  0  0  0
    1.3011    2.9100    5.8340 H   0  0  0  0  0  0  0  0  0  0  0  0
    2.9109    2.2951    5.4616 H   0  0  0  0  0  0  0  0  0  0  0  0
    1.5749    1.1700    5.6914 H   0  0  0  0  0  0  0  0  0  0  0  0
    4.6120    0.0955    3.4036 H   0  0  0  0  0  0  0  0  0  0  0  0
    7.6402   -2.3481    0.9751 H   0  0  0  0  0  0  0  0  0  0  0  0
    7.7355   -3.3777   -1.2801 H   0  0  0  0  0  0  0  0  0  0  0  0
    5.7577   -3.1500   -2.8086 H   0  0  0  0  0  0  0  0  0  0  0  0
    3.7431   -1.8876   -2.0197 H   0  0  0  0  0  0  0  0  0  0  0  0
    1.2665    5.1432    4.6202 H   0  0  0  0  0  0  0  0  0  0  0  0
    1.4045    5.6048    2.9191 H   0  0  0  0  0  0  0  0  0  0  0  0
   -0.8133    6.5296    2.9889 H   0  0  0  0  0  0  0  0  0  0  0  0
  1  2  1  0
  1 31  1  0
  1 32  1  0
  1 33  1  0
  2  3  1  0
  2 34  1  0
  2 35  1  0
  3  4  1  0
  3 36  1  0
  3 37  1  0
  4  5  2  3
  4 38  1  0
  5 30  1  0
  5  6  1  0
  6  7  2  0
  6 39  1  0
  7 28  1  0
  7  8  1  0
  8  9  2  0
  8 10  1  0
 10 11  1  0
 10 12  1  6
 10 25  1  0
 11 40  1  0
 11 41  1  0
 11 42  1  0
 12 13  1  0
 13 14  2  0
 13 15  1  0
 15 24  1  0
 15 16  2  0
 16 17  1  0
 16 43  1  0
 17 18  2  0
 18 23  1  0
 18 19  1  0
 19 20  2  0
 19 44  1  0
 20 21  1  0
 20 45  1  0
 21 22  2  0
 21 46  1  0
 22 23  1  0
 22 47  1  0
 23 24  2  0
 25 26  2  0
 25 27  1  0
 27 28  1  0
 27 48  1  0
 27 49  1  0
 28 29  2  0
 29 30  1  0
 29 50  1  0
M  END
>  <i_m_ct_stereo_status>  (304) 
1

>  <s_m_source_file>  (304) 
/var/tmp/pbs.5076255.sched01/tmporjl5eer/117expd_qi0.sdf

>  <i_m_source_file_index>  (304) 
11

>  <i_lp_mmshare_version>  (304) 
48012

>  <i_f3d_flags>  (304) 
0

>  <s_epik_input>  (304) 
W0NIM11bQ0gyXVtDSDJdL1tDSF09QyhcW0NIXT0xKU9bQ0hdPUMoQzEyKVtDSDJdQyg9TylbQ0BdKEMyPU8pKFtDSDNdKU9DKD1PKWMoW2NIXW4zKW5jKGMzNClbY0hdW2NIXVtjSF1bY0hdNA==

>  <s_epik_cmdline>  (304) 
J2VwaWtfcHl0aG9uJywgJy1waHQnLCAnMi4wJywgJy1waCcsICc3LjAnLCAnLXRuJywgJzgnLCAnLW1hJywgJzIwMCcsICctaW1hZScsICc8aW5maWxlLm1hZT4nLCAnLW9tYWUnLCAnPG91dGZpbGUubWFlPic=

>  <r_lp_tautomer_probability>  (304) 
1

>  <r_epik_Ionization_Penalty>  (304) 
4.80062e-05

>  <r_epik_Ionization_Penalty_Charging>  (304) 
0

>  <r_epik_Ionization_Penalty_Neutral>  (304) 
4.80062e-05

>  <r_epik_State_Penalty>  (304) 
-0

>  <r_epik_Charging_Adjusted_Penalty>  (304) 
0

>  <i_epik_Tot_Q>  (304) 
0

>  <i_epik_Tot_abs_Q>  (304) 
0

>  <s_epik_Chemistry_Notes>  (304) 
This compound has an ester and may undergo hydrolysis at high or low pH.

>  <s_lp_Force_Field>  (304) 
OPLS3e

>  <r_lp_Energy>  (304) 
46.3889

>  <b_lp_Chiralities_Consistent>  (304) 
1

>  <s_lp_Variant>  (304) 
100:0-2

>  <s_i_glide_gridfile>  (304) 
pfpi4k_grid

>  <i_i_glide_lignum>  (304) 
11

>  <i_i_glide_rotatable_bonds>  (304) 
5

>  <r_i_docking_score>  (304) 
-3.20451

>  <r_i_glide_ligand_efficiency>  (304) 
-0.106817

>  <r_i_glide_ligand_efficiency_sa>  (304) 
-0.331906

>  <r_i_glide_ligand_efficiency_ln>  (304) 
-0.7281

>  <r_i_glide_gscore>  (304) 
-3.20451

>  <r_i_glide_lipo>  (304) 
-1.01086

>  <r_i_glide_hbond>  (304) 
-0.16

>  <r_i_glide_metal>  (304) 
-0

>  <r_i_glide_rewards>  (304) 
-0.651714

>  <r_i_glide_evdw>  (304) 
-34.288

>  <r_i_glide_ecoul>  (304) 
-0.201019

>  <r_i_glide_erotb>  (304) 
0.480408

>  <r_i_glide_esite>  (304) 
-0.117796

>  <r_i_glide_emodel>  (304) 
-38.8199

>  <r_i_glide_energy>  (304) 
-34.489

>  <r_i_glide_einternal>  (304) 
2.35652

>  <r_i_glide_intrahb_reward>  (304) 
-0

>  <i_i_glide_confnum>  (304) 
6

>  <i_i_glide_posenum>  (304) 
38

>  <r_i_glide_eff_state_penalty>  (304) 
0

>  <ligand_id>  (304) 
100

>  <original_smiles>  (304) 
CCCC=C1C=C2C(=O)C(C)(OC(=O)c3cnc4ccccc4n3)C(=O)CC2=CO1

>  <smiles>  (304) 
[H]C1=C2C(=C([H])C(=C([H])C([H])([H])C([H])([H])C([H])([H])[H])O1)C(=O)C(OC(=O)c1nc3c([H])c([H])c([H])c([H])c3nc1[H])(C([H])([H])[H])C(=O)C2([H])[H]

$$$$
100:1:2
     RDKit          3D

 50 53  0  0  1  0  0  0  0  0999 V2000
   -5.5889    7.7590    0.6263 C   0  0  0  0  0  0  0  0  0  0  0  0
   -4.7819    6.6541    1.2858 C   0  0  0  0  0  0  0  0  0  0  0  0
   -5.3819    5.2331    1.2348 C   0  0  0  0  0  0  0  0  0  0  0  0
   -4.5843    4.1093    1.9113 C   0  0  0  0  0  0  0  0  0  0  0  0
   -3.3594    4.1996    2.4730 C   0  0  0  0  0  0  0  0  0  0  0  0
   -2.6547    3.0626    3.0511 C   0  0  0  0  0  0  0  0  0  0  0  0
   -1.3664    3.1912    3.4435 C   0  0  0  0  0  0  0  0  0  0  0  0
   -0.6289    2.0283    3.9880 C   0  0  0  0  0  0  0  0  0  0  0  0
   -1.1865    0.9720    4.3099 O   0  0  0  0  0  0  0  0  0  0  0  0
    0.8971    2.1645    4.2500 C   0  0  1  0  0  0  0  0  0  0  0  0
    1.1315    2.4355    5.7356 C   0  0  0  0  0  0  0  0  0  0  0  0
    1.5761    0.9227    3.9975 O   0  0  0  0  0  0  0  0  0  0  0  0
    1.6287    0.2770    2.7883 C   0  0  0  0  0  0  0  0  0  0  0  0
    1.0842    0.6863    1.7641 O   0  0  0  0  0  0  0  0  0  0  0  0
    2.4378   -0.9758    2.8642 C   0  0  0  0  0  0  0  0  0  0  0  0
    2.6343   -1.7712    1.7128 C   0  0  0  0  0  0  0  0  0  0  0  0
    3.3591   -2.9093    1.7497 N   0  0  0  0  0  0  0  0  0  0  0  0
    3.9145   -3.2754    2.9298 C   0  0  0  0  0  0  0  0  0  0  0  0
    4.6879   -4.4517    3.0193 C   0  0  0  0  0  0  0  0  0  0  0  0
    5.2724   -4.8549    4.2369 C   0  0  0  0  0  0  0  0  0  0  0  0
    5.0860   -4.0673    5.3894 C   0  0  0  0  0  0  0  0  0  0  0  0
    4.3170   -2.8879    5.3118 C   0  0  0  0  0  0  0  0  0  0  0  0
    3.7241   -2.4786    4.0991 C   0  0  0  0  0  0  0  0  0  0  0  0
    2.9843   -1.3443    4.0494 N   0  0  0  0  0  0  0  0  0  0  0  0
    1.5285    3.3264    3.4390 C   0  0  0  0  0  0  0  0  0  0  0  0
    2.6123    3.2109    2.8699 O   0  0  0  0  0  0  0  0  0  0  0  0
    0.7963    4.6666    3.4577 C   0  0  0  0  0  0  0  0  0  0  0  0
   -0.6905    4.4605    3.2632 C   0  0  0  0  0  0  0  0  0  0  0  0
   -1.3920    5.4806    2.7637 C   0  0  0  0  0  0  0  0  0  0  0  0
   -2.7233    5.4046    2.4661 O   0  0  0  0  0  0  0  0  0  0  0  0
   -5.0329    8.6941    0.7172 H   0  0  0  0  0  0  0  0  0  0  0  0
   -6.5595    7.8862    1.1065 H   0  0  0  0  0  0  0  0  0  0  0  0
   -5.7199    7.5516   -0.4355 H   0  0  0  0  0  0  0  0  0  0  0  0
   -3.8229    6.6652    0.7682 H   0  0  0  0  0  0  0  0  0  0  0  0
   -4.6412    6.9394    2.3260 H   0  0  0  0  0  0  0  0  0  0  0  0
   -6.3711    5.2543    1.6959 H   0  0  0  0  0  0  0  0  0  0  0  0
   -5.5509    4.9639    0.1892 H   0  0  0  0  0  0  0  0  0  0  0  0
   -5.0821    3.1543    1.8818 H   0  0  0  0  0  0  0  0  0  0  0  0
   -3.1839    2.1422    3.1755 H   0  0  0  0  0  0  0  0  0  0  0  0
    0.6701    3.3655    6.0638 H   0  0  0  0  0  0  0  0  0  0  0  0
    2.1995    2.5016    5.9417 H   0  0  0  0  0  0  0  0  0  0  0  0
    0.7323    1.6264    6.3442 H   0  0  0  0  0  0  0  0  0  0  0  0
    2.2190   -1.4962    0.7557 H   0  0  0  0  0  0  0  0  0  0  0  0
    4.8293   -5.0517    2.1402 H   0  0  0  0  0  0  0  0  0  0  0  0
    5.8573   -5.7619    4.2835 H   0  0  0  0  0  0  0  0  0  0  0  0
    5.5252   -4.3652    6.3295 H   0  0  0  0  0  0  0  0  0  0  0  0
    4.1723   -2.2863    6.1907 H   0  0  0  0  0  0  0  0  0  0  0  0
    0.9935    5.2202    4.3758 H   0  0  0  0  0  0  0  0  0  0  0  0
    1.1672    5.2707    2.6253 H   0  0  0  0  0  0  0  0  0  0  0  0
   -0.9538    6.4353    2.4945 H   0  0  0  0  0  0  0  0  0  0  0  0
  1  2  1  0
  1 31  1  0
  1 32  1  0
  1 33  1  0
  2  3  1  0
  2 34  1  0
  2 35  1  0
  3  4  1  0
  3 36  1  0
  3 37  1  0
  4  5  2  3
  4 38  1  0
  5 30  1  0
  5  6  1  0
  6  7  2  0
  6 39  1  0
  7 28  1  0
  7  8  1  0
  8  9  2  0
  8 10  1  0
 10 11  1  0
 10 12  1  6
 10 25  1  0
 11 40  1  0
 11 41  1  0
 11 42  1  0
 12 13  1  0
 13 14  2  0
 13 15  1  0
 15 24  1  0
 15 16  2  0
 16 17  1  0
 16 43  1  0
 17 18  2  0
 18 23  1  0
 18 19  1  0
 19 20  2  0
 19 44  1  0
 20 21  1  0
 20 45  1  0
 21 22  2  0
 21 46  1  0
 22 23  1  0
 22 47  1  0
 23 24  2  0
 25 26  2  0
 25 27  1  0
 27 28  1  0
 27 48  1  0
 27 49  1  0
 28 29  2  0
 29 30  1  0
 29 50  1  0
M  END
>  <i_m_ct_stereo_status>  (305) 
1

>  <s_m_source_file>  (305) 
/var/tmp/pbs.5076255.sched01/tmporjl5eer/117expd_qi0.sdf

>  <i_m_source_file_index>  (305) 
11

>  <i_lp_mmshare_version>  (305) 
48012

>  <i_f3d_flags>  (305) 
0

>  <s_epik_input>  (305) 
W0NIM11bQ0gyXVtDSDJdL1tDSF09QyhcW0NIXT0xKU9bQ0hdPUMoQzEyKVtDSDJdQyg9TylbQ0BdKEMyPU8pKFtDSDNdKU9DKD1PKWMoW2NIXW4zKW5jKGMzNClbY0hdW2NIXVtjSF1bY0hdNA==

>  <s_epik_cmdline>  (305) 
J2VwaWtfcHl0aG9uJywgJy1waHQnLCAnMi4wJywgJy1waCcsICc3LjAnLCAnLXRuJywgJzgnLCAnLW1hJywgJzIwMCcsICctaW1hZScsICc8aW5maWxlLm1hZT4nLCAnLW9tYWUnLCAnPG91dGZpbGUubWFlPic=

>  <r_lp_tautomer_probability>  (305) 
1

>  <r_epik_Ionization_Penalty>  (305) 
4.80062e-05

>  <r_epik_Ionization_Penalty_Charging>  (305) 
0

>  <r_epik_Ionization_Penalty_Neutral>  (305) 
4.80062e-05

>  <r_epik_State_Penalty>  (305) 
-0

>  <r_epik_Charging_Adjusted_Penalty>  (305) 
0

>  <i_epik_Tot_Q>  (305) 
0

>  <i_epik_Tot_abs_Q>  (305) 
0

>  <s_epik_Chemistry_Notes>  (305) 
This compound has an ester and may undergo hydrolysis at high or low pH.

>  <s_lp_Force_Field>  (305) 
OPLS3e

>  <r_lp_Energy>  (305) 
46.3889

>  <b_lp_Chiralities_Consistent>  (305) 
1

>  <s_lp_Variant>  (305) 
100:0-2

>  <s_i_glide_gridfile>  (305) 
pfpi4k_grid

>  <i_i_glide_lignum>  (305) 
11

>  <i_i_glide_rotatable_bonds>  (305) 
5

>  <r_i_docking_score>  (305) 
-2.97605

>  <r_i_glide_ligand_efficiency>  (305) 
-0.0992015

>  <r_i_glide_ligand_efficiency_sa>  (305) 
-0.308242

>  <r_i_glide_ligand_efficiency_ln>  (305) 
-0.67619

>  <r_i_glide_gscore>  (305) 
-2.97605

>  <r_i_glide_lipo>  (305) 
-0.817532

>  <r_i_glide_hbond>  (305) 
-0.150436

>  <r_i_glide_metal>  (305) 
-0

>  <r_i_glide_rewards>  (305) 
-0.651714

>  <r_i_glide_evdw>  (305) 
-28.3598

>  <r_i_glide_ecoul>  (305) 
-2.08757

>  <r_i_glide_erotb>  (305) 
0.480408

>  <r_i_glide_esite>  (305) 
-0.105645

>  <r_i_glide_emodel>  (305) 
-34.5032

>  <r_i_glide_energy>  (305) 
-30.4474

>  <r_i_glide_einternal>  (305) 
1.72114

>  <r_i_glide_intrahb_reward>  (305) 
-0

>  <i_i_glide_confnum>  (305) 
6

>  <i_i_glide_posenum>  (305) 
1

>  <r_i_glide_eff_state_penalty>  (305) 
0

>  <ligand_id>  (305) 
100

>  <original_smiles>  (305) 
CCCC=C1C=C2C(=O)C(C)(OC(=O)c3cnc4ccccc4n3)C(=O)CC2=CO1

>  <smiles>  (305) 
[H]C1=C2C(=C([H])C(=C([H])C([H])([H])C([H])([H])C([H])([H])[H])O1)C(=O)C(OC(=O)c1nc3c([H])c([H])c([H])c([H])c3nc1[H])(C([H])([H])[H])C(=O)C2([H])[H]

$$$$
103:0:0
     RDKit          3D

 31 34  0  0  1  0  0  0  0  0999 V2000
    3.2699   -8.6613    1.2888 C   0  0  0  0  0  0  0  0  0  0  0  0
    2.2932   -7.6690    1.6909 N   0  0  0  0  0  0  0  0  0  0  0  0
    1.3014   -7.9846    2.5566 N   0  0  0  0  0  0  0  0  0  0  0  0
    0.5560   -6.9253    2.6923 N   0  0  0  0  0  0  0  0  0  0  0  0
    1.0347   -5.8901    1.9235 N   0  0  0  0  0  0  0  0  0  0  0  0
    2.1154   -6.3949    1.3437 C   0  0  0  0  0  0  0  0  0  0  0  0
    2.9238   -5.6831    0.3168 C   0  0  0  0  0  0  0  0  0  0  0  0
    3.8334   -4.6658    0.8284 N   0  0  0  0  0  0  0  0  0  0  0  0
    4.4622   -4.9114    2.0343 N   0  0  0  0  0  0  0  0  0  0  0  0
    5.2539   -3.8755    2.2317 C   0  0  0  0  0  0  0  0  0  0  0  0
    5.1727   -2.9942    1.1394 C   0  0  0  0  0  0  0  0  0  0  0  0
    5.8584   -1.7842    0.9028 C   0  0  0  0  0  0  0  0  0  0  0  0
    5.6397   -1.1056   -0.2509 N   0  0  0  0  0  0  0  0  0  0  0  0
    4.7404   -1.5473   -1.1736 C   0  0  0  0  0  0  0  0  0  0  0  0
    4.5069   -0.7998   -2.3556 C   0  0  0  0  0  0  0  0  0  0  0  0
    3.5856   -1.2382   -3.3354 C   0  0  0  0  0  0  0  0  0  0  0  0
    2.8874   -2.4370   -3.1425 C   0  0  0  0  0  0  0  0  0  0  0  0
    3.1070   -3.1848   -1.9800 C   0  0  0  0  0  0  0  0  0  0  0  0
    4.0254   -2.7471   -0.9902 C   0  0  0  0  0  0  0  0  0  0  0  0
    4.2509   -3.4821    0.1957 C   0  0  0  0  0  0  0  0  0  0  0  0
    4.0948   -8.2036    0.7428 H   0  0  0  0  0  0  0  0  0  0  0  0
    2.7988   -9.4199    0.6569 H   0  0  0  0  0  0  0  0  0  0  0  0
    3.6762   -9.1448    2.1785 H   0  0  0  0  0  0  0  0  0  0  0  0
    3.4981   -6.3686   -0.3081 H   0  0  0  0  0  0  0  0  0  0  0  0
    2.1571   -5.2242   -0.3029 H   0  0  0  0  0  0  0  0  0  0  0  0
    5.8696   -3.7362    3.1138 H   0  0  0  0  0  0  0  0  0  0  0  0
    6.5773   -1.3581    1.6021 H   0  0  0  0  0  0  0  0  0  0  0  0
    5.0168    0.1348   -2.5148 H   0  0  0  0  0  0  0  0  0  0  0  0
    3.3997   -0.6584   -4.2323 H   0  0  0  0  0  0  0  0  0  0  0  0
    2.1598   -2.8034   -3.8629 H   0  0  0  0  0  0  0  0  0  0  0  0
    2.5428   -4.0917   -1.9106 H   0  0  0  0  0  0  0  0  0  0  0  0
  1  2  1  0
  1 21  1  0
  1 22  1  0
  1 23  1  0
  2  6  1  0
  2  3  1  0
  3  4  2  0
  4  5  1  0
  5  6  2  0
  6  7  1  0
  7  8  1  0
  7 24  1  0
  7 25  1  0
  8 20  1  0
  8  9  1  0
  9 10  2  0
 10 11  1  0
 10 26  1  0
 11 20  2  0
 11 12  1  0
 12 13  2  0
 12 27  1  0
 13 14  1  0
 14 19  2  0
 14 15  1  0
 15 16  2  0
 15 28  1  0
 16 17  1  0
 16 29  1  0
 17 18  2  0
 17 30  1  0
 18 19  1  0
 18 31  1  0
 19 20  1  0
M  END
>  <i_m_ct_stereo_status>  (306) 
1

>  <s_m_source_file>  (306) 
/var/tmp/pbs.5076255.sched01/tmporjl5eer/117expd_qi0.sdf

>  <i_m_source_file_index>  (306) 
14

>  <i_lp_mmshare_version>  (306) 
48012

>  <i_f3d_flags>  (306) 
0

>  <s_epik_input>  (306) 
W0NIM11uMW5ubmMxW0NIMl1uKG5bY0hdMiljKGMyMyljNGMobltjSF0zKVtjSF1bY0hdW2NIXVtjSF00

>  <s_epik_cmdline>  (306) 
J2VwaWtfcHl0aG9uJywgJy1waHQnLCAnMi4wJywgJy1waCcsICc3LjAnLCAnLXRuJywgJzgnLCAnLW1hJywgJzIwMCcsICctaW1hZScsICc8aW5maWxlLm1hZT4nLCAnLW9tYWUnLCAnPG91dGZpbGUubWFlPic=

>  <r_lp_tautomer_probability>  (306) 
1

>  <r_epik_Ionization_Penalty>  (306) 
8.37615e-07

>  <r_epik_Ionization_Penalty_Charging>  (306) 
0

>  <r_epik_Ionization_Penalty_Neutral>  (306) 
8.37615e-07

>  <r_epik_State_Penalty>  (306) 
-0

>  <r_epik_Charging_Adjusted_Penalty>  (306) 
0

>  <i_epik_Tot_Q>  (306) 
0

>  <i_epik_Tot_abs_Q>  (306) 
0

>  <s_lp_Force_Field>  (306) 
OPLS3e

>  <r_lp_Energy>  (306) 
26.5503

>  <b_lp_Chiralities_Consistent>  (306) 
1

>  <s_lp_Variant>  (306) 
103:0-1

>  <s_i_glide_gridfile>  (306) 
pfpi4k_grid

>  <i_i_glide_lignum>  (306) 
14

>  <i_i_glide_rotatable_bonds>  (306) 
2

>  <r_i_docking_score>  (306) 
-3.44968

>  <r_i_glide_ligand_efficiency>  (306) 
-0.172484

>  <r_i_glide_ligand_efficiency_sa>  (306) 
-0.468193

>  <r_i_glide_ligand_efficiency_ln>  (306) 
-0.86334

>  <r_i_glide_gscore>  (306) 
-3.44968

>  <r_i_glide_lipo>  (306) 
-0.407683

>  <r_i_glide_hbond>  (306) 
0

>  <r_i_glide_metal>  (306) 
-0

>  <r_i_glide_rewards>  (306) 
-1.61542

>  <r_i_glide_evdw>  (306) 
-25.9021

>  <r_i_glide_ecoul>  (306) 
-2.90943

>  <r_i_glide_erotb>  (306) 
0.50569

>  <r_i_glide_esite>  (306) 
-0.200748

>  <r_i_glide_emodel>  (306) 
-34.5928

>  <r_i_glide_energy>  (306) 
-28.8115

>  <r_i_glide_einternal>  (306) 
1.08345

>  <r_i_glide_intrahb_reward>  (306) 
-0

>  <i_i_glide_confnum>  (306) 
2

>  <i_i_glide_posenum>  (306) 
25

>  <r_i_glide_eff_state_penalty>  (306) 
0

>  <ligand_id>  (306) 
103

>  <original_smiles>  (306) 
Cn1nnnc1Cn1ncc2cnc3ccccc3c21

>  <smiles>  (306) 
[H]c1c([H])c([H])c2c(nc([H])c3c([H])nn(C([H])([H])c4nnnn4C([H])([H])[H])c32)c1[H]

$$$$
103:0:1
     RDKit          3D

 31 34  0  0  1  0  0  0  0  0999 V2000
    1.6032   -3.7342    4.0095 C   0  0  0  0  0  0  0  0  0  0  0  0
    0.6877   -3.1011    4.9229 N   0  0  0  0  0  0  0  0  0  0  0  0
   -0.1325   -3.8692    5.6841 N   0  0  0  0  0  0  0  0  0  0  0  0
   -0.8637   -3.0605    6.3851 N   0  0  0  0  0  0  0  0  0  0  0  0
   -0.5640   -1.7436    6.0903 N   0  0  0  0  0  0  0  0  0  0  0  0
    0.4377   -1.8172    5.2101 C   0  0  0  0  0  0  0  0  0  0  0  0
    1.2176   -0.6421    4.6529 C   0  0  0  0  0  0  0  0  0  0  0  0
    0.4097    0.3184    3.9132 N   0  0  0  0  0  0  0  0  0  0  0  0
    0.5766    0.3773    2.5454 N   0  0  0  0  0  0  0  0  0  0  0  0
   -0.2438    1.3351    2.1308 C   0  0  0  0  0  0  0  0  0  0  0  0
   -0.9522    1.8620    3.2195 C   0  0  0  0  0  0  0  0  0  0  0  0
   -1.9424    2.8698    3.2816 C   0  0  0  0  0  0  0  0  0  0  0  0
   -2.4773    3.2162    4.4839 N   0  0  0  0  0  0  0  0  0  0  0  0
   -2.0566    2.6312    5.6379 C   0  0  0  0  0  0  0  0  0  0  0  0
   -2.6223    3.0004    6.8772 C   0  0  0  0  0  0  0  0  0  0  0  0
   -2.2097    2.4131    8.0901 C   0  0  0  0  0  0  0  0  0  0  0  0
   -1.1771    1.4599    8.0801 C   0  0  0  0  0  0  0  0  0  0  0  0
   -0.5691    1.1181    6.8636 C   0  0  0  0  0  0  0  0  0  0  0  0
   -1.0408    1.6508    5.6390 C   0  0  0  0  0  0  0  0  0  0  0  0
   -0.5179    1.2473    4.4014 C   0  0  0  0  0  0  0  0  0  0  0  0
    2.3852   -3.0522    3.6758 H   0  0  0  0  0  0  0  0  0  0  0  0
    1.0312   -4.0887    3.1496 H   0  0  0  0  0  0  0  0  0  0  0  0
    2.0654   -4.5852    4.5137 H   0  0  0  0  0  0  0  0  0  0  0  0
    1.7288   -0.1064    5.4576 H   0  0  0  0  0  0  0  0  0  0  0  0
    2.0271   -0.9764    4.0099 H   0  0  0  0  0  0  0  0  0  0  0  0
   -0.3439    1.6517    1.1055 H   0  0  0  0  0  0  0  0  0  0  0  0
   -2.2955    3.3711    2.3912 H   0  0  0  0  0  0  0  0  0  0  0  0
   -3.3842    3.7572    6.9107 H   0  0  0  0  0  0  0  0  0  0  0  0
   -2.6539    2.7019    9.0354 H   0  0  0  0  0  0  0  0  0  0  0  0
   -0.8333    0.9873    8.9963 H   0  0  0  0  0  0  0  0  0  0  0  0
    0.2611    0.4430    6.9033 H   0  0  0  0  0  0  0  0  0  0  0  0
  1  2  1  0
  1 21  1  0
  1 22  1  0
  1 23  1  0
  2  6  1  0
  2  3  1  0
  3  4  2  0
  4  5  1  0
  5  6  2  0
  6  7  1  0
  7  8  1  0
  7 24  1  0
  7 25  1  0
  8 20  1  0
  8  9  1  0
  9 10  2  0
 10 11  1  0
 10 26  1  0
 11 20  2  0
 11 12  1  0
 12 13  2  0
 12 27  1  0
 13 14  1  0
 14 19  2  0
 14 15  1  0
 15 16  2  0
 15 28  1  0
 16 17  1  0
 16 29  1  0
 17 18  2  0
 17 30  1  0
 18 19  1  0
 18 31  1  0
 19 20  1  0
M  END
>  <i_m_ct_stereo_status>  (307) 
1

>  <s_m_source_file>  (307) 
/var/tmp/pbs.5076255.sched01/tmporjl5eer/117expd_qi0.sdf

>  <i_m_source_file_index>  (307) 
14

>  <i_lp_mmshare_version>  (307) 
48012

>  <i_f3d_flags>  (307) 
0

>  <s_epik_input>  (307) 
W0NIM11uMW5ubmMxW0NIMl1uKG5bY0hdMiljKGMyMyljNGMobltjSF0zKVtjSF1bY0hdW2NIXVtjSF00

>  <s_epik_cmdline>  (307) 
J2VwaWtfcHl0aG9uJywgJy1waHQnLCAnMi4wJywgJy1waCcsICc3LjAnLCAnLXRuJywgJzgnLCAnLW1hJywgJzIwMCcsICctaW1hZScsICc8aW5maWxlLm1hZT4nLCAnLW9tYWUnLCAnPG91dGZpbGUubWFlPic=

>  <r_lp_tautomer_probability>  (307) 
1

>  <r_epik_Ionization_Penalty>  (307) 
8.37615e-07

>  <r_epik_Ionization_Penalty_Charging>  (307) 
0

>  <r_epik_Ionization_Penalty_Neutral>  (307) 
8.37615e-07

>  <r_epik_State_Penalty>  (307) 
-0

>  <r_epik_Charging_Adjusted_Penalty>  (307) 
0

>  <i_epik_Tot_Q>  (307) 
0

>  <i_epik_Tot_abs_Q>  (307) 
0

>  <s_lp_Force_Field>  (307) 
OPLS3e

>  <r_lp_Energy>  (307) 
26.5503

>  <b_lp_Chiralities_Consistent>  (307) 
1

>  <s_lp_Variant>  (307) 
103:0-1

>  <s_i_glide_gridfile>  (307) 
pfpi4k_grid

>  <i_i_glide_lignum>  (307) 
14

>  <i_i_glide_rotatable_bonds>  (307) 
2

>  <r_i_docking_score>  (307) 
-3.06637

>  <r_i_glide_ligand_efficiency>  (307) 
-0.153318

>  <r_i_glide_ligand_efficiency_sa>  (307) 
-0.41617

>  <r_i_glide_ligand_efficiency_ln>  (307) 
-0.76741

>  <r_i_glide_gscore>  (307) 
-3.06637

>  <r_i_glide_lipo>  (307) 
-0.213664

>  <r_i_glide_hbond>  (307) 
0

>  <r_i_glide_metal>  (307) 
-0

>  <r_i_glide_rewards>  (307) 
-1.60938

>  <r_i_glide_evdw>  (307) 
-22.2109

>  <r_i_glide_ecoul>  (307) 
-3.52059

>  <r_i_glide_erotb>  (307) 
0.50569

>  <r_i_glide_esite>  (307) 
-0.110381

>  <r_i_glide_emodel>  (307) 
-30.7939

>  <r_i_glide_energy>  (307) 
-25.7315

>  <r_i_glide_einternal>  (307) 
0.518711

>  <r_i_glide_intrahb_reward>  (307) 
-0

>  <i_i_glide_confnum>  (307) 
5

>  <i_i_glide_posenum>  (307) 
9

>  <r_i_glide_eff_state_penalty>  (307) 
0

>  <ligand_id>  (307) 
103

>  <original_smiles>  (307) 
Cn1nnnc1Cn1ncc2cnc3ccccc3c21

>  <smiles>  (307) 
[H]c1c([H])c([H])c2c(nc([H])c3c([H])nn(C([H])([H])c4nnnn4C([H])([H])[H])c32)c1[H]

$$$$
103:0:2
     RDKit          3D

 31 34  0  0  1  0  0  0  0  0999 V2000
    0.6307   -4.1292    4.4291 C   0  0  0  0  0  0  0  0  0  0  0  0
    0.3240   -3.5671    5.7319 N   0  0  0  0  0  0  0  0  0  0  0  0
    0.5880   -2.2634    5.9671 N   0  0  0  0  0  0  0  0  0  0  0  0
    0.2034   -2.0074    7.1819 N   0  0  0  0  0  0  0  0  0  0  0  0
   -0.3512   -3.1274    7.7763 N   0  0  0  0  0  0  0  0  0  0  0  0
   -0.2484   -4.0653    6.8405 C   0  0  0  0  0  0  0  0  0  0  0  0
   -0.7879   -5.4497    6.9908 C   0  0  0  0  0  0  0  0  0  0  0  0
    0.2300   -6.4890    6.9861 N   0  0  0  0  0  0  0  0  0  0  0  0
    1.0970   -6.5088    8.0579 N   0  0  0  0  0  0  0  0  0  0  0  0
    1.8836   -7.5578    7.8798 C   0  0  0  0  0  0  0  0  0  0  0  0
    1.5268   -8.2113    6.6925 C   0  0  0  0  0  0  0  0  0  0  0  0
    2.0672   -9.3728    6.1054 C   0  0  0  0  0  0  0  0  0  0  0  0
    1.5554   -9.8225    4.9310 N   0  0  0  0  0  0  0  0  0  0  0  0
    0.5129   -9.2022    4.3167 C   0  0  0  0  0  0  0  0  0  0  0  0
    0.0007   -9.7187    3.1009 C   0  0  0  0  0  0  0  0  0  0  0  0
   -1.0764   -9.0860    2.4460 C   0  0  0  0  0  0  0  0  0  0  0  0
   -1.6527   -7.9269    2.9844 C   0  0  0  0  0  0  0  0  0  0  0  0
   -1.1532   -7.4060    4.1844 C   0  0  0  0  0  0  0  0  0  0  0  0
   -0.0737   -8.0268    4.8621 C   0  0  0  0  0  0  0  0  0  0  0  0
    0.4563   -7.5359    6.0737 C   0  0  0  0  0  0  0  0  0  0  0  0
    0.1180   -5.0706    4.2664 H   0  0  0  0  0  0  0  0  0  0  0  0
    1.7063   -4.2912    4.3510 H   0  0  0  0  0  0  0  0  0  0  0  0
    0.3301   -3.4291    3.6420 H   0  0  0  0  0  0  0  0  0  0  0  0
   -1.3450   -5.5229    7.9246 H   0  0  0  0  0  0  0  0  0  0  0  0
   -1.5294   -5.5786    6.2140 H   0  0  0  0  0  0  0  0  0  0  0  0
    2.6845   -7.8696    8.5426 H   0  0  0  0  0  0  0  0  0  0  0  0
    2.8975   -9.9175    6.5471 H   0  0  0  0  0  0  0  0  0  0  0  0
    0.4387  -10.6049    2.6550 H   0  0  0  0  0  0  0  0  0  0  0  0
   -1.4587   -9.4759    1.5101 H   0  0  0  0  0  0  0  0  0  0  0  0
   -2.4720   -7.4234    2.4886 H   0  0  0  0  0  0  0  0  0  0  0  0
   -1.6391   -6.5173    4.5097 H   0  0  0  0  0  0  0  0  0  0  0  0
  1  2  1  0
  1 21  1  0
  1 22  1  0
  1 23  1  0
  2  6  1  0
  2  3  1  0
  3  4  2  0
  4  5  1  0
  5  6  2  0
  6  7  1  0
  7  8  1  0
  7 24  1  0
  7 25  1  0
  8 20  1  0
  8  9  1  0
  9 10  2  0
 10 11  1  0
 10 26  1  0
 11 20  2  0
 11 12  1  0
 12 13  2  0
 12 27  1  0
 13 14  1  0
 14 19  2  0
 14 15  1  0
 15 16  2  0
 15 28  1  0
 16 17  1  0
 16 29  1  0
 17 18  2  0
 17 30  1  0
 18 19  1  0
 18 31  1  0
 19 20  1  0
M  END
>  <i_m_ct_stereo_status>  (308) 
1

>  <s_m_source_file>  (308) 
/var/tmp/pbs.5076255.sched01/tmporjl5eer/117expd_qi0.sdf

>  <i_m_source_file_index>  (308) 
14

>  <i_lp_mmshare_version>  (308) 
48012

>  <i_f3d_flags>  (308) 
0

>  <s_epik_input>  (308) 
W0NIM11uMW5ubmMxW0NIMl1uKG5bY0hdMiljKGMyMyljNGMobltjSF0zKVtjSF1bY0hdW2NIXVtjSF00

>  <s_epik_cmdline>  (308) 
J2VwaWtfcHl0aG9uJywgJy1waHQnLCAnMi4wJywgJy1waCcsICc3LjAnLCAnLXRuJywgJzgnLCAnLW1hJywgJzIwMCcsICctaW1hZScsICc8aW5maWxlLm1hZT4nLCAnLW9tYWUnLCAnPG91dGZpbGUubWFlPic=

>  <r_lp_tautomer_probability>  (308) 
1

>  <r_epik_Ionization_Penalty>  (308) 
8.37615e-07

>  <r_epik_Ionization_Penalty_Charging>  (308) 
0

>  <r_epik_Ionization_Penalty_Neutral>  (308) 
8.37615e-07

>  <r_epik_State_Penalty>  (308) 
-0

>  <r_epik_Charging_Adjusted_Penalty>  (308) 
0

>  <i_epik_Tot_Q>  (308) 
0

>  <i_epik_Tot_abs_Q>  (308) 
0

>  <s_lp_Force_Field>  (308) 
OPLS3e

>  <r_lp_Energy>  (308) 
26.5503

>  <b_lp_Chiralities_Consistent>  (308) 
1

>  <s_lp_Variant>  (308) 
103:0-1

>  <s_i_glide_gridfile>  (308) 
pfpi4k_grid

>  <i_i_glide_lignum>  (308) 
14

>  <i_i_glide_rotatable_bonds>  (308) 
2

>  <r_i_docking_score>  (308) 
-2.89303

>  <r_i_glide_ligand_efficiency>  (308) 
-0.144651

>  <r_i_glide_ligand_efficiency_sa>  (308) 
-0.392644

>  <r_i_glide_ligand_efficiency_ln>  (308) 
-0.724029

>  <r_i_glide_gscore>  (308) 
-2.89303

>  <r_i_glide_lipo>  (308) 
-0.254214

>  <r_i_glide_hbond>  (308) 
0

>  <r_i_glide_metal>  (308) 
-0

>  <r_i_glide_rewards>  (308) 
-1.60041

>  <r_i_glide_evdw>  (308) 
-20.7975

>  <r_i_glide_ecoul>  (308) 
-2.46134

>  <r_i_glide_erotb>  (308) 
0.50569

>  <r_i_glide_esite>  (308) 
-0.135016

>  <r_i_glide_emodel>  (308) 
-28.279

>  <r_i_glide_energy>  (308) 
-23.2589

>  <r_i_glide_einternal>  (308) 
0.918305

>  <r_i_glide_intrahb_reward>  (308) 
-0

>  <i_i_glide_confnum>  (308) 
6

>  <i_i_glide_posenum>  (308) 
3

>  <r_i_glide_eff_state_penalty>  (308) 
0

>  <ligand_id>  (308) 
103

>  <original_smiles>  (308) 
Cn1nnnc1Cn1ncc2cnc3ccccc3c21

>  <smiles>  (308) 
[H]c1c([H])c([H])c2c(nc([H])c3c([H])nn(C([H])([H])c4nnnn4C([H])([H])[H])c32)c1[H]

$$$$
105:0:0
     RDKit          3D

 42 48  0  0  1  0  0  0  0  0999 V2000
    8.1002   -6.4743    0.8879 C   0  0  0  0  0  0  0  0  0  0  0  0
    7.1285   -5.4613    1.0701 O   0  0  0  0  0  0  0  0  0  0  0  0
    7.3539   -4.2051    0.6395 C   0  0  0  0  0  0  0  0  0  0  0  0
    8.3625   -3.8503    0.0299 O   0  0  0  0  0  0  0  0  0  0  0  0
    6.2111   -3.2131    0.9819 C   0  0  1  0  0  0  0  0  0  0  0  0
    6.7157   -1.5889    0.7809 C   0  0  0  0  0  0  0  0  0  0  0  0
    5.3652   -0.5110    0.4061 C   0  0  2  0  0  0  0  0  0  0  0  0
    3.6497   -0.7176    0.8842 C   0  0  2  0  0  0  0  0  0  0  0  0
    3.3893   -0.9781    2.4187 C   0  0  1  0  0  0  0  0  0  0  0  0
    3.4010   -2.3518    3.2212 C   0  0  1  0  0  0  0  0  0  0  0  0
    2.9612   -3.7003    2.6629 C   0  0  0  0  0  0  0  0  0  0  0  0
    4.2305   -4.4556    2.1280 C   0  0  1  0  0  0  0  0  0  0  0  0
    4.2181   -4.6853    0.6147 C   0  0  1  0  0  0  0  0  0  0  0  0
    2.9219   -5.0676    0.0341 N   0  0  0  0  0  0  0  0  0  0  0  0
    4.8333   -3.3954    0.0780 C   0  0  1  0  0  0  0  0  0  0  0  0
    3.7658   -2.1369    0.1187 C   0  0  1  0  0  0  0  0  0  0  0  0
    4.7366   -1.4375    0.8795 C   0  0  2  0  0  0  0  0  0  0  0  0
    4.7997   -1.1460    2.4115 C   0  0  2  0  0  0  0  0  0  0  0  0
    4.9220   -2.3844    3.1982 C   0  0  2  0  0  0  0  0  0  0  0  0
    5.5019   -3.5737    2.4035 C   0  0  2  0  0  0  0  0  0  0  0  0
    7.7162   -7.4192    1.2757 H   0  0  0  0  0  0  0  0  0  0  0  0
    9.0181   -6.2402    1.4282 H   0  0  0  0  0  0  0  0  0  0  0  0
    8.3392   -6.6195   -0.1660 H   0  0  0  0  0  0  0  0  0  0  0  0
    7.2769   -1.2365    1.6526 H   0  0  0  0  0  0  0  0  0  0  0  0
    7.4317   -1.5261   -0.0368 H   0  0  0  0  0  0  0  0  0  0  0  0
    5.5683    0.4664    0.8616 H   0  0  0  0  0  0  0  0  0  0  0  0
    2.9396    0.0056    0.4589 H   0  0  0  0  0  0  0  0  0  0  0  0
    3.1029   -0.1017    3.0047 H   0  0  0  0  0  0  0  0  0  0  0  0
    3.0337   -2.1801    4.2348 H   0  0  0  0  0  0  0  0  0  0  0  0
    2.5134   -4.2902    3.4629 H   0  0  0  0  0  0  0  0  0  0  0  0
    2.1795   -3.5625    1.9188 H   0  0  0  0  0  0  0  0  0  0  0  0
    4.3196   -5.4138    2.6447 H   0  0  0  0  0  0  0  0  0  0  0  0
    4.8588   -5.5242    0.3670 H   0  0  0  0  0  0  0  0  0  0  0  0
    2.2340   -4.3467    0.1943 H   0  0  0  0  0  0  0  0  0  0  0  0
    2.6220   -5.9419    0.4425 H   0  0  0  0  0  0  0  0  0  0  0  0
    5.1343   -3.5603   -0.9643 H   0  0  0  0  0  0  0  0  0  0  0  0
    3.4795   -1.8541   -0.9075 H   0  0  0  0  0  0  0  0  0  0  0  0
    5.1246   -1.2939   -0.2685 H   0  0  0  0  0  0  0  0  0  0  0  0
    5.3584   -0.2949    2.8216 H   0  0  0  0  0  0  0  0  0  0  0  0
    5.3706   -2.2025    4.1763 H   0  0  0  0  0  0  0  0  0  0  0  0
    6.1947   -4.1210    3.0435 H   0  0  0  0  0  0  0  0  0  0  0  0
    3.0314   -5.2101   -0.9652 H   0  0  0  0  0  0  0  0  0  0  0  0
  1  2  1  0
  1 21  1  0
  1 22  1  0
  1 23  1  0
  2  3  1  0
  3  4  2  0
  5  3  1  6
  5 15  1  0
  5 20  1  0
  5  6  1  0
  6  7  1  0
  6 24  1  0
  6 25  1  0
  7 17  1  0
  7  8  1  0
  7 26  1  6
  8 16  1  0
  8  9  1  0
  8 27  1  6
  9 18  1  0
  9 10  1  0
  9 28  1  1
 10 19  1  0
 10 11  1  0
 10 29  1  1
 11 12  1  0
 11 30  1  0
 11 31  1  0
 12 20  1  0
 12 13  1  0
 12 32  1  1
 13 14  1  0
 13 15  1  0
 13 33  1  1
 14 34  1  0
 14 35  1  0
 14 42  1  0
 15 16  1  0
 15 36  1  6
 16 17  1  0
 16 37  1  6
 17 18  1  0
 17 38  1  1
 18 19  1  0
 18 39  1  6
 19 20  1  0
 19 40  1  1
 20 41  1  1
M  CHG  1  14   1
M  END
>  <i_m_ct_stereo_status>  (309) 
1

>  <s_m_source_file>  (309) 
/var/tmp/pbs.5076255.sched01/tmporjl5eer/117expd_qi0.sdf

>  <i_m_source_file_index>  (309) 
16

>  <i_lp_mmshare_version>  (309) 
48012

>  <i_f3d_flags>  (309) 
0

>  <s_epik_input>  (309) 
W0NIM11PQyg9TylbQ0BdMTJbQ0BASF0zW0NIXTRbQ0BASF01W0NIXShbQ0gyXTEpW0NAQEhdNFtDQEhdNltDQEBIXTVbQ0BASF03W0NASF02W0NASF0yW0NAQEhdKFtDSDJdNylbQ0BIXTNbTkgyXQ==

>  <s_epik_cmdline>  (309) 
J2VwaWtfcHl0aG9uJywgJy1waHQnLCAnMi4wJywgJy1waCcsICc3LjAnLCAnLXRuJywgJzgnLCAnLW1hJywgJzIwMCcsICctaW1hZScsICc8aW5maWxlLm1hZT4nLCAnLW9tYWUnLCAnPG91dGZpbGUubWFlPic=

>  <r_epik_Ionization_Penalty>  (309) 
0.00048975

>  <r_epik_Ionization_Penalty_Charging>  (309) 
0.00048975

>  <r_epik_Ionization_Penalty_Neutral>  (309) 
0

>  <r_epik_State_Penalty>  (309) 
0.000304275

>  <r_epik_Charging_Adjusted_Penalty>  (309) 
0.000794025

>  <i_epik_Tot_Q>  (309) 
1

>  <i_epik_Tot_abs_Q>  (309) 
1

>  <s_epik_Chemistry_Notes>  (309) 
This compound has an ester and may undergo hydrolysis at high or low pH.

>  <s_lp_Force_Field>  (309) 
OPLS3e

>  <r_lp_Energy>  (309) 
536.151

>  <b_lp_Chiralities_Consistent>  (309) 
1

>  <s_lp_Variant>  (309) 
105:0-1

>  <s_i_glide_gridfile>  (309) 
pfpi4k_grid

>  <i_i_glide_lignum>  (309) 
16

>  <i_i_glide_rotatable_bonds>  (309) 
2

>  <r_i_docking_score>  (309) 
-3.75112

>  <r_i_glide_ligand_efficiency>  (309) 
-0.187556

>  <r_i_glide_ligand_efficiency_sa>  (309) 
-0.509105

>  <r_i_glide_ligand_efficiency_ln>  (309) 
-0.938781

>  <r_i_glide_gscore>  (309) 
-3.75112

>  <r_i_glide_lipo>  (309) 
-0.519682

>  <r_i_glide_hbond>  (309) 
0

>  <r_i_glide_metal>  (309) 
-0

>  <r_i_glide_rewards>  (309) 
-1.74747

>  <r_i_glide_evdw>  (309) 
-19.8693

>  <r_i_glide_ecoul>  (309) 
-4.58077

>  <r_i_glide_erotb>  (309) 
0.241576

>  <r_i_glide_esite>  (309) 
-0.0449661

>  <r_i_glide_emodel>  (309) 
-29.489

>  <r_i_glide_energy>  (309) 
-24.45

>  <r_i_glide_einternal>  (309) 
1.66885

>  <r_i_glide_intrahb_reward>  (309) 
-0

>  <i_i_glide_confnum>  (309) 
5

>  <i_i_glide_posenum>  (309) 
7

>  <r_i_glide_eff_state_penalty>  (309) 
0

>  <ligand_id>  (309) 
105

>  <original_smiles>  (309) 
COC(=O)C12CC3C4C5C6CC7C(N)C1C4C3C5C6C72

>  <smiles>  (309) 
[H]C([H])([H])OC(=O)C12C([H])([H])C3([H])C4([H])C5([H])C6([H])C([H])([H])C7([H])C1([H])C6([H])C5([H])C3([H])C4([H])C2([H])C7([H])[N+]([H])([H])[H]

$$$$
105:0:1
     RDKit          3D

 42 48  0  0  1  0  0  0  0  0999 V2000
    8.3261   -6.4500    2.3620 C   0  0  0  0  0  0  0  0  0  0  0  0
    7.3607   -5.5017    1.9439 O   0  0  0  0  0  0  0  0  0  0  0  0
    7.6222   -4.6534    0.9297 C   0  0  0  0  0  0  0  0  0  0  0  0
    8.6842   -4.6111    0.3102 O   0  0  0  0  0  0  0  0  0  0  0  0
    6.4377   -3.7066    0.5900 C   0  0  1  0  0  0  0  0  0  0  0  0
    6.9481   -2.4093   -0.4048 C   0  0  0  0  0  0  0  0  0  0  0  0
    5.6361   -1.7947   -1.4263 C   0  0  2  0  0  0  0  0  0  0  0  0
    3.8765   -1.8458   -1.0739 C   0  0  2  0  0  0  0  0  0  0  0  0
    3.4462   -1.2718    0.3375 C   0  0  1  0  0  0  0  0  0  0  0  0
    3.3831   -2.0022    1.7522 C   0  0  1  0  0  0  0  0  0  0  0  0
    3.0262   -3.4649    1.9713 C   0  0  0  0  0  0  0  0  0  0  0  0
    4.3574   -4.2928    2.0433 C   0  0  1  0  0  0  0  0  0  0  0  0
    4.5184   -5.2913    0.8908 C   0  0  1  0  0  0  0  0  0  0  0  0
    3.3122   -6.0280    0.4811 N   0  0  0  0  0  0  0  0  0  0  0  0
    5.1750   -4.4408   -0.1898 C   0  0  1  0  0  0  0  0  0  0  0  0
    4.0946   -3.4393   -0.9331 C   0  0  1  0  0  0  0  0  0  0  0  0
    4.9669   -2.3734   -0.5850 C   0  0  2  0  0  0  0  0  0  0  0  0
    4.8501   -1.3091    0.5534 C   0  0  2  0  0  0  0  0  0  0  0  0
    4.8956   -1.9244    1.8884 C   0  0  2  0  0  0  0  0  0  0  0  0
    5.5796   -3.3073    1.9152 C   0  0  2  0  0  0  0  0  0  0  0  0
    7.9197   -7.0542    3.1737 H   0  0  0  0  0  0  0  0  0  0  0  0
    9.2311   -5.9633    2.7268 H   0  0  0  0  0  0  0  0  0  0  0  0
    8.5956   -7.1241    1.5487 H   0  0  0  0  0  0  0  0  0  0  0  0
    7.4064   -1.6202    0.2025 H   0  0  0  0  0  0  0  0  0  0  0  0
    7.7484   -2.7433   -1.0643 H   0  0  0  0  0  0  0  0  0  0  0  0
    5.7618   -0.7110   -1.5414 H   0  0  0  0  0  0  0  0  0  0  0  0
    3.2208   -1.5347   -1.9009 H   0  0  0  0  0  0  0  0  0  0  0  0
    3.0720   -0.2493    0.3407 H   0  0  0  0  0  0  0  0  0  0  0  0
    2.8983   -1.3413    2.4743 H   0  0  0  0  0  0  0  0  0  0  0  0
    2.4966   -3.5670    2.9187 H   0  0  0  0  0  0  0  0  0  0  0  0
    2.3334   -3.8024    1.2028 H   0  0  0  0  0  0  0  0  0  0  0  0
    4.3985   -4.8208    2.9987 H   0  0  0  0  0  0  0  0  0  0  0  0
    5.1957   -6.0837    1.1934 H   0  0  0  0  0  0  0  0  0  0  0  0
    2.5929   -5.3902    0.1736 H   0  0  0  0  0  0  0  0  0  0  0  0
    2.9781   -6.5794    1.2593 H   0  0  0  0  0  0  0  0  0  0  0  0
    5.5883   -5.1099   -0.9486 H   0  0  0  0  0  0  0  0  0  0  0  0
    3.9308   -3.7752   -1.9674 H   0  0  0  0  0  0  0  0  0  0  0  0
    5.4848   -2.8404   -1.5845 H   0  0  0  0  0  0  0  0  0  0  0  0
    5.3427   -0.3300    0.4918 H   0  0  0  0  0  0  0  0  0  0  0  0
    5.2246   -1.2189    2.6526 H   0  0  0  0  0  0  0  0  0  0  0  0
    6.2024   -3.3661    2.8067 H   0  0  0  0  0  0  0  0  0  0  0  0
    3.5480   -6.6441   -0.2827 H   0  0  0  0  0  0  0  0  0  0  0  0
  1  2  1  0
  1 21  1  0
  1 22  1  0
  1 23  1  0
  2  3  1  0
  3  4  2  0
  5  3  1  1
  5 15  1  0
  5 20  1  0
  5  6  1  0
  6  7  1  0
  6 24  1  0
  6 25  1  0
  7 17  1  0
  7  8  1  0
  7 26  1  6
  8 16  1  0
  8  9  1  0
  8 27  1  6
  9 18  1  0
  9 10  1  0
  9 28  1  6
 10 19  1  0
 10 11  1  0
 10 29  1  1
 11 12  1  0
 11 30  1  0
 11 31  1  0
 12 20  1  0
 12 13  1  0
 12 32  1  1
 13 14  1  0
 13 15  1  0
 13 33  1  1
 14 34  1  0
 14 35  1  0
 14 42  1  0
 15 16  1  0
 15 36  1  6
 16 17  1  0
 16 37  1  6
 17 18  1  0
 17 38  1  1
 18 19  1  0
 18 39  1  1
 19 20  1  0
 19 40  1  1
 20 41  1  1
M  CHG  1  14   1
M  END
>  <i_m_ct_stereo_status>  (310) 
1

>  <s_m_source_file>  (310) 
/var/tmp/pbs.5076255.sched01/tmporjl5eer/117expd_qi0.sdf

>  <i_m_source_file_index>  (310) 
16

>  <i_lp_mmshare_version>  (310) 
48012

>  <i_f3d_flags>  (310) 
0

>  <s_epik_input>  (310) 
W0NIM11PQyg9TylbQ0BdMTJbQ0BASF0zW0NIXTRbQ0BASF01W0NIXShbQ0gyXTEpW0NAQEhdNFtDQEhdNltDQEBIXTVbQ0BASF03W0NASF02W0NASF0yW0NAQEhdKFtDSDJdNylbQ0BIXTNbTkgyXQ==

>  <s_epik_cmdline>  (310) 
J2VwaWtfcHl0aG9uJywgJy1waHQnLCAnMi4wJywgJy1waCcsICc3LjAnLCAnLXRuJywgJzgnLCAnLW1hJywgJzIwMCcsICctaW1hZScsICc8aW5maWxlLm1hZT4nLCAnLW9tYWUnLCAnPG91dGZpbGUubWFlPic=

>  <r_epik_Ionization_Penalty>  (310) 
0.00048975

>  <r_epik_Ionization_Penalty_Charging>  (310) 
0.00048975

>  <r_epik_Ionization_Penalty_Neutral>  (310) 
0

>  <r_epik_State_Penalty>  (310) 
0.000304275

>  <r_epik_Charging_Adjusted_Penalty>  (310) 
0.000794025

>  <i_epik_Tot_Q>  (310) 
1

>  <i_epik_Tot_abs_Q>  (310) 
1

>  <s_epik_Chemistry_Notes>  (310) 
This compound has an ester and may undergo hydrolysis at high or low pH.

>  <s_lp_Force_Field>  (310) 
OPLS3e

>  <r_lp_Energy>  (310) 
536.151

>  <b_lp_Chiralities_Consistent>  (310) 
1

>  <s_lp_Variant>  (310) 
105:0-1

>  <s_i_glide_gridfile>  (310) 
pfpi4k_grid

>  <i_i_glide_lignum>  (310) 
16

>  <i_i_glide_rotatable_bonds>  (310) 
2

>  <r_i_docking_score>  (310) 
-3.43819

>  <r_i_glide_ligand_efficiency>  (310) 
-0.17191

>  <r_i_glide_ligand_efficiency_sa>  (310) 
-0.466635

>  <r_i_glide_ligand_efficiency_ln>  (310) 
-0.860467

>  <r_i_glide_gscore>  (310) 
-3.43819

>  <r_i_glide_lipo>  (310) 
-0.35257

>  <r_i_glide_hbond>  (310) 
0

>  <r_i_glide_metal>  (310) 
-0

>  <r_i_glide_rewards>  (310) 
-1.7359

>  <r_i_glide_evdw>  (310) 
-22.2527

>  <r_i_glide_ecoul>  (310) 
-3.14024

>  <r_i_glide_erotb>  (310) 
0.241576

>  <r_i_glide_esite>  (310) 
-0.00762739

>  <r_i_glide_emodel>  (310) 
-30.0232

>  <r_i_glide_energy>  (310) 
-25.3929

>  <r_i_glide_einternal>  (310) 
1.55073

>  <r_i_glide_intrahb_reward>  (310) 
-0

>  <i_i_glide_confnum>  (310) 
5

>  <i_i_glide_posenum>  (310) 
31

>  <r_i_glide_eff_state_penalty>  (310) 
0

>  <ligand_id>  (310) 
105

>  <original_smiles>  (310) 
COC(=O)C12CC3C4C5C6CC7C(N)C1C4C3C5C6C72

>  <smiles>  (310) 
[H]C([H])([H])OC(=O)C12C([H])([H])C3([H])C4([H])C5([H])C6([H])C([H])([H])C7([H])C1([H])C6([H])C5([H])C3([H])C4([H])C2([H])C7([H])[N+]([H])([H])[H]

$$$$
105:0:2
     RDKit          3D

 42 48  0  0  1  0  0  0  0  0999 V2000
    2.7488   -6.2932    1.4178 C   0  0  0  0  0  0  0  0  0  0  0  0
    2.3532   -5.2362    2.2850 O   0  0  0  0  0  0  0  0  0  0  0  0
    2.5897   -3.8860    2.0955 C   0  0  0  0  0  0  0  0  0  0  0  0
    2.1797   -2.9987    2.8739 O   0  0  0  0  0  0  0  0  0  0  0  0
    3.4206   -3.4672    0.8715 C   0  0  1  0  0  0  0  0  0  0  0  0
    2.6123   -3.8497   -0.5811 C   0  0  0  0  0  0  0  0  0  0  0  0
    3.1198   -2.8097   -1.9076 C   0  0  2  0  0  0  0  0  0  0  0  0
    4.6872   -1.9910   -2.1263 C   0  0  2  0  0  0  0  0  0  0  0  0
    5.9746   -2.9354   -1.9913 C   0  0  1  0  0  0  0  0  0  0  0  0
    6.7664   -3.3123   -0.6601 C   0  0  1  0  0  0  0  0  0  0  0  0
    6.9417   -2.4102    0.5455 C   0  0  0  0  0  0  0  0  0  0  0  0
    5.8153   -2.7592    1.5890 C   0  0  1  0  0  0  0  0  0  0  0  0
    4.8077   -1.6529    1.8653 C   0  0  1  0  0  0  0  0  0  0  0  0
    5.3908   -0.3000    1.9514 N   0  0  0  0  0  0  0  0  0  0  0  0
    3.7768   -1.8495    0.7559 C   0  0  1  0  0  0  0  0  0  0  0  0
    4.3803   -1.3228   -0.7010 C   0  0  1  0  0  0  0  0  0  0  0  0
    4.0639   -2.6271   -1.1791 C   0  0  2  0  0  0  0  0  0  0  0  0
    4.9972   -3.8453   -1.4782 C   0  0  2  0  0  0  0  0  0  0  0  0
    5.6904   -4.3106   -0.2610 C   0  0  2  0  0  0  0  0  0  0  0  0
    4.9611   -3.9419    1.0324 C   0  0  2  0  0  0  0  0  0  0  0  0
    2.4512   -7.2455    1.8484 H   0  0  0  0  0  0  0  0  0  0  0  0
    3.8179   -6.2986    1.3121 H   0  0  0  0  0  0  0  0  0  0  0  0
    2.2623   -6.1752    0.4566 H   0  0  0  0  0  0  0  0  0  0  0  0
    2.7712   -4.8716   -0.8707 H   0  0  0  0  0  0  0  0  0  0  0  0
    1.5349   -3.7543   -0.4680 H   0  0  0  0  0  0  0  0  0  0  0  0
    3.0726   -3.4178   -2.8303 H   0  0  0  0  0  0  0  0  0  0  0  0
    4.7083   -1.2950   -2.9934 H   0  0  0  0  0  0  0  0  0  0  0  0
    6.3905   -3.3392   -2.9071 H   0  0  0  0  0  0  0  0  0  0  0  0
    7.6649   -3.8572   -0.9544 H   0  0  0  0  0  0  0  0  0  0  0  0
    7.9129   -2.6391    0.9855 H   0  0  0  0  0  0  0  0  0  0  0  0
    6.9612   -1.3562    0.2493 H   0  0  0  0  0  0  0  0  0  0  0  0
    6.2651   -3.0637    2.5299 H   0  0  0  0  0  0  0  0  0  0  0  0
    4.3678   -1.8348    2.8462 H   0  0  0  0  0  0  0  0  0  0  0  0
    5.8696   -0.0712    1.0924 H   0  0  0  0  0  0  0  0  0  0  0  0
    6.0544   -0.2769    2.7194 H   0  0  0  0  0  0  0  0  0  0  0  0
    2.8783   -1.2742    1.0223 H   0  0  0  0  0  0  0  0  0  0  0  0
    3.8196   -0.4453   -1.0224 H   0  0  0  0  0  0  0  0  0  0  0  0
    2.9709   -2.0697   -1.2069 H   0  0  0  0  0  0  0  0  0  0  0  0
    4.7302   -4.6647   -2.1854 H   0  0  0  0  0  0  0  0  0  0  0  0
    5.9947   -5.3556   -0.3326 H   0  0  0  0  0  0  0  0  0  0  0  0
    5.0869   -4.7158    1.7876 H   0  0  0  0  0  0  0  0  0  0  0  0
    4.6316    0.3506    2.1250 H   0  0  0  0  0  0  0  0  0  0  0  0
  1  2  1  0
  1 21  1  0
  1 22  1  0
  1 23  1  0
  2  3  1  0
  3  4  2  0
  5  3  1  1
  5 15  1  0
  5 20  1  0
  5  6  1  0
  6  7  1  0
  6 24  1  0
  6 25  1  0
  7 17  1  0
  7  8  1  0
  7 26  1  1
  8 16  1  0
  8  9  1  0
  8 27  1  6
  9 18  1  0
  9 10  1  0
  9 28  1  6
 10 19  1  0
 10 11  1  0
 10 29  1  6
 11 12  1  0
 11 30  1  0
 11 31  1  0
 12 20  1  0
 12 13  1  0
 12 32  1  1
 13 14  1  0
 13 15  1  0
 13 33  1  1
 14 34  1  0
 14 35  1  0
 14 42  1  0
 15 16  1  0
 15 36  1  1
 16 17  1  0
 16 37  1  6
 17 18  1  0
 17 38  1  1
 18 19  1  0
 18 39  1  6
 19 20  1  0
 19 40  1  6
 20 41  1  1
M  CHG  1  14   1
M  END
>  <i_m_ct_stereo_status>  (311) 
1

>  <s_m_source_file>  (311) 
/var/tmp/pbs.5076255.sched01/tmporjl5eer/117expd_qi0.sdf

>  <i_m_source_file_index>  (311) 
16

>  <i_lp_mmshare_version>  (311) 
48012

>  <i_f3d_flags>  (311) 
0

>  <s_epik_input>  (311) 
W0NIM11PQyg9TylbQ0BdMTJbQ0BASF0zW0NIXTRbQ0BASF01W0NIXShbQ0gyXTEpW0NAQEhdNFtDQEhdNltDQEBIXTVbQ0BASF03W0NASF02W0NASF0yW0NAQEhdKFtDSDJdNylbQ0BIXTNbTkgyXQ==

>  <s_epik_cmdline>  (311) 
J2VwaWtfcHl0aG9uJywgJy1waHQnLCAnMi4wJywgJy1waCcsICc3LjAnLCAnLXRuJywgJzgnLCAnLW1hJywgJzIwMCcsICctaW1hZScsICc8aW5maWxlLm1hZT4nLCAnLW9tYWUnLCAnPG91dGZpbGUubWFlPic=

>  <r_epik_Ionization_Penalty>  (311) 
0.00048975

>  <r_epik_Ionization_Penalty_Charging>  (311) 
0.00048975

>  <r_epik_Ionization_Penalty_Neutral>  (311) 
0

>  <r_epik_State_Penalty>  (311) 
0.000304275

>  <r_epik_Charging_Adjusted_Penalty>  (311) 
0.000794025

>  <i_epik_Tot_Q>  (311) 
1

>  <i_epik_Tot_abs_Q>  (311) 
1

>  <s_epik_Chemistry_Notes>  (311) 
This compound has an ester and may undergo hydrolysis at high or low pH.

>  <s_lp_Force_Field>  (311) 
OPLS3e

>  <r_lp_Energy>  (311) 
536.151

>  <b_lp_Chiralities_Consistent>  (311) 
1

>  <s_lp_Variant>  (311) 
105:0-1

>  <s_i_glide_gridfile>  (311) 
pfpi4k_grid

>  <i_i_glide_lignum>  (311) 
16

>  <i_i_glide_rotatable_bonds>  (311) 
2

>  <r_i_docking_score>  (311) 
-3.2137

>  <r_i_glide_ligand_efficiency>  (311) 
-0.160685

>  <r_i_glide_ligand_efficiency_sa>  (311) 
-0.436166

>  <r_i_glide_ligand_efficiency_ln>  (311) 
-0.804283

>  <r_i_glide_gscore>  (311) 
-3.2137

>  <r_i_glide_lipo>  (311) 
-0.536419

>  <r_i_glide_hbond>  (311) 
0

>  <r_i_glide_metal>  (311) 
-0

>  <r_i_glide_rewards>  (311) 
-1.55208

>  <r_i_glide_evdw>  (311) 
-20.7974

>  <r_i_glide_ecoul>  (311) 
-2.13193

>  <r_i_glide_erotb>  (311) 
0.241576

>  <r_i_glide_esite>  (311) 
-0.00711926

>  <r_i_glide_emodel>  (311) 
-24.8118

>  <r_i_glide_energy>  (311) 
-22.9294

>  <r_i_glide_einternal>  (311) 
5.4398

>  <r_i_glide_intrahb_reward>  (311) 
-0

>  <i_i_glide_confnum>  (311) 
2

>  <i_i_glide_posenum>  (311) 
23

>  <r_i_glide_eff_state_penalty>  (311) 
0

>  <ligand_id>  (311) 
105

>  <original_smiles>  (311) 
COC(=O)C12CC3C4C5C6CC7C(N)C1C4C3C5C6C72

>  <smiles>  (311) 
[H]C([H])([H])OC(=O)C12C([H])([H])C3([H])C4([H])C5([H])C6([H])C([H])([H])C7([H])C1([H])C6([H])C5([H])C3([H])C4([H])C2([H])C7([H])[N+]([H])([H])[H]

$$$$
107:0:0
     RDKit          3D

 55 62  0  0  1  0  0  0  0  0999 V2000
    5.3227  -10.4367    4.7908 C   0  0  0  0  0  0  0  0  0  0  0  0
    5.0824   -9.0622    4.2842 N   0  0  1  0  0  0  0  0  0  0  0  0
    5.4721   -8.0082    5.2637 C   0  0  0  0  0  0  0  0  0  0  0  0
    6.9180   -7.4950    5.1339 C   0  0  0  0  0  0  0  0  0  0  0  0
    7.1526   -6.5100    3.9618 C   0  0  2  0  0  0  0  0  0  0  0  0
    5.9543   -6.2339    3.0682 C   0  0  1  0  0  0  0  0  0  0  0  0
    6.5527   -5.8572    1.7071 C   0  0  2  0  0  0  0  0  0  0  0  0
    8.0611   -5.7143    1.9046 C   0  0  0  0  0  0  0  0  0  0  0  0
    8.1561   -6.9131    2.8518 C   0  0  1  0  0  0  0  0  0  0  0  0
    9.4409   -7.2153    3.3082 O   0  0  0  0  0  0  0  0  0  0  0  0
    7.5168   -7.9709    1.9112 C   0  0  1  0  0  0  0  0  0  0  0  0
    6.9560   -9.2415    2.5488 C   0  0  0  0  0  0  0  0  0  0  0  0
    5.4870   -8.8604    2.8574 C   0  0  2  0  0  0  0  0  0  0  0  0
    5.2940   -7.4169    2.3251 C   0  0  1  0  0  0  0  0  0  0  0  0
    3.8779   -7.1197    1.8121 C   0  0  0  0  0  0  0  0  0  0  0  0
    2.8921   -7.6711    2.5591 N   0  0  0  0  0  0  0  0  0  0  0  0
    1.6118   -7.4059    2.2423 C   0  0  0  0  0  0  0  0  0  0  0  0
    1.2383   -6.5215    1.2195 C   0  0  0  0  0  0  0  0  0  0  0  0
    2.2559   -5.8860    0.4812 C   0  0  0  0  0  0  0  0  0  0  0  0
    3.6061   -6.1906    0.7692 C   0  0  0  0  0  0  0  0  0  0  0  0
    4.6906   -5.4636   -0.0315 C   0  0  0  0  0  0  0  0  0  0  0  0
    5.8463   -4.8356    0.7991 C   0  0  1  0  0  0  0  0  0  0  0  0
    5.4554   -3.5334    1.5685 C   0  0  2  0  0  0  0  0  0  0  0  0
    3.9946   -3.4062    1.9161 C   0  0  0  0  0  0  0  0  0  0  0  0
    3.4414   -2.3623    1.3024 C   0  0  0  0  0  0  0  0  0  0  0  0
    4.5026   -1.6864    0.5570 C   0  0  0  0  0  0  0  0  0  0  0  0
    4.3920   -0.6645   -0.1119 O   0  0  0  0  0  0  0  0  0  0  0  0
    5.6455   -2.3887    0.7441 O   0  0  0  0  0  0  0  0  0  0  0  0
    6.3644   -7.2636    1.3424 N   0  0  0  0  0  0  0  0  0  0  0  0
    6.3757  -10.6035    5.0185 H   0  0  0  0  0  0  0  0  0  0  0  0
    5.0006  -11.1806    4.0620 H   0  0  0  0  0  0  0  0  0  0  0  0
    4.7574  -10.6032    5.7080 H   0  0  0  0  0  0  0  0  0  0  0  0
    4.7600   -7.1794    5.2114 H   0  0  0  0  0  0  0  0  0  0  0  0
    5.3391   -8.4024    6.2707 H   0  0  0  0  0  0  0  0  0  0  0  0
    7.1338   -6.9392    6.0455 H   0  0  0  0  0  0  0  0  0  0  0  0
    7.6430   -8.3135    5.1454 H   0  0  0  0  0  0  0  0  0  0  0  0
    7.5025   -5.5757    4.4048 H   0  0  0  0  0  0  0  0  0  0  0  0
    5.2358   -5.5250    3.4799 H   0  0  0  0  0  0  0  0  0  0  0  0
    8.6480   -5.8368    0.9913 H   0  0  0  0  0  0  0  0  0  0  0  0
    8.3627   -4.7848    2.3871 H   0  0  0  0  0  0  0  0  0  0  0  0
    9.9909   -7.4558    2.5554 H   0  0  0  0  0  0  0  0  0  0  0  0
    8.2158   -8.2190    1.1151 H   0  0  0  0  0  0  0  0  0  0  0  0
    6.9660  -10.0468    1.8165 H   0  0  0  0  0  0  0  0  0  0  0  0
    7.5632   -9.5765    3.3854 H   0  0  0  0  0  0  0  0  0  0  0  0
    4.8728   -9.5411    2.2621 H   0  0  0  0  0  0  0  0  0  0  0  0
    0.8610   -7.9116    2.8281 H   0  0  0  0  0  0  0  0  0  0  0  0
    0.1962   -6.3571    1.0062 H   0  0  0  0  0  0  0  0  0  0  0  0
    2.0034   -5.1839   -0.2971 H   0  0  0  0  0  0  0  0  0  0  0  0
    5.0861   -6.1755   -0.7550 H   0  0  0  0  0  0  0  0  0  0  0  0
    4.2350   -4.6807   -0.6367 H   0  0  0  0  0  0  0  0  0  0  0  0
    6.5864   -4.5215    0.0616 H   0  0  0  0  0  0  0  0  0  0  0  0
    3.4671   -4.1197    2.5302 H   0  0  0  0  0  0  0  0  0  0  0  0
    2.4029   -2.0643    1.3095 H   0  0  0  0  0  0  0  0  0  0  0  0
    6.0479   -3.4259    2.4790 H   0  0  0  0  0  0  0  0  0  0  0  0
    4.0722   -8.9816    4.2381 H   0  0  0  0  0  0  0  0  0  0  0  0
  1  2  1  0
  1 30  1  0
  1 31  1  0
  1 32  1  0
  2 13  1  0
  2  3  1  0
  2 55  1  6
  3  4  1  0
  3 33  1  0
  3 34  1  0
  4  5  1  0
  4 35  1  0
  4 36  1  0
  5  9  1  0
  5  6  1  0
  5 37  1  1
  6 14  1  0
  6  7  1  0
  6 38  1  1
  7 22  1  0
  7 29  1  0
  7  8  1  1
  8  9  1  0
  8 39  1  0
  8 40  1  0
  9 10  1  1
  9 11  1  0
 10 41  1  0
 11 29  1  0
 11 12  1  0
 11 42  1  6
 12 13  1  0
 12 43  1  0
 12 44  1  0
 13 14  1  0
 13 45  1  6
 14 15  1  6
 14 29  1  0
 15 20  2  0
 15 16  1  0
 16 17  2  0
 17 18  1  0
 17 46  1  0
 18 19  2  0
 18 47  1  0
 19 20  1  0
 19 48  1  0
 20 21  1  0
 21 22  1  0
 21 49  1  0
 21 50  1  0
 22 51  1  6
 22 23  1  0
 23 28  1  0
 23 24  1  0
 23 54  1  1
 24 52  1  0
 24 25  2  0
 25 53  1  0
 25 26  1  0
 26 27  2  0
 26 28  1  0
M  CHG  1   2   1
M  END
>  <i_m_ct_stereo_status>  (312) 
1

>  <s_m_source_file>  (312) 
/var/tmp/pbs.5076255.sched01/tmporjl5eer/117expd_qi0.sdf

>  <i_m_source_file_index>  (312) 
18

>  <i_lp_mmshare_version>  (312) 
48012

>  <i_f3d_flags>  (312) 
0

>  <s_epik_input>  (312) 
W0NIMl0xW0NAQEhdKE4yMylbQ0BdKFtDSDJdNCkoW09IXSlbQ0BASF01W0NIMl1bQ0gyXU4oW0NIM10pW0NASF0xW0NAXTMoW0NAQEhdNVtDQF0yNDYpYzdjKFtjSF1bY0hdW2NIXW43KVtDSDJdW0NASF02YzhbY0hdW2NIXWMobzgpW09IXQ==

>  <s_epik_cmdline>  (312) 
J2VwaWtfcHl0aG9uJywgJy1waHQnLCAnMi4wJywgJy1waCcsICc3LjAnLCAnLXRuJywgJzgnLCAnLW1hJywgJzIwMCcsICctaW1hZScsICc8aW5maWxlLm1hZT4nLCAnLW9tYWUnLCAnPG91dGZpbGUubWFlPic=

>  <r_lp_tautomer_probability>  (312) 
1

>  <r_epik_Ionization_Penalty>  (312) 
0.0057054

>  <r_epik_Ionization_Penalty_Charging>  (312) 
0.00544442

>  <r_epik_Ionization_Penalty_Neutral>  (312) 
0.00026098

>  <r_epik_State_Penalty>  (312) 
-0

>  <r_epik_Charging_Adjusted_Penalty>  (312) 
0.00544442

>  <i_epik_Tot_Q>  (312) 
1

>  <i_epik_Tot_abs_Q>  (312) 
1

>  <s_epik_Chemistry_Notes>  (312) 
This compound has an ester and may undergo hydrolysis at high or low pH.

>  <s_lp_Force_Field>  (312) 
OPLS3e

>  <r_lp_Energy>  (312) 
83.0856

>  <b_lp_Chiralities_Consistent>  (312) 
1

>  <s_lp_Variant>  (312) 
107:0-1

>  <s_i_glide_gridfile>  (312) 
pfpi4k_grid

>  <i_i_glide_lignum>  (312) 
18

>  <i_i_glide_rotatable_bonds>  (312) 
2

>  <r_i_docking_score>  (312) 
-3.5739

>  <r_i_glide_ligand_efficiency>  (312) 
-0.123238

>  <r_i_glide_ligand_efficiency_sa>  (312) 
-0.378626

>  <r_i_glide_ligand_efficiency_ln>  (312) 
-0.818332

>  <r_i_glide_gscore>  (312) 
-3.5739

>  <r_i_glide_lipo>  (312) 
-0.401171

>  <r_i_glide_hbond>  (312) 
-0.16

>  <r_i_glide_metal>  (312) 
-0

>  <r_i_glide_rewards>  (312) 
-1.23315

>  <r_i_glide_evdw>  (312) 
-20.1697

>  <r_i_glide_ecoul>  (312) 
-5.95684

>  <r_i_glide_erotb>  (312) 
0.126759

>  <r_i_glide_esite>  (312) 
-0.00432225

>  <r_i_glide_emodel>  (312) 
-35.9368

>  <r_i_glide_energy>  (312) 
-26.1265

>  <r_i_glide_einternal>  (312) 
4.33568

>  <r_i_glide_intrahb_reward>  (312) 
-0.5

>  <i_i_glide_confnum>  (312) 
5

>  <i_i_glide_posenum>  (312) 
3

>  <r_i_glide_eff_state_penalty>  (312) 
0

>  <ligand_id>  (312) 
107

>  <original_smiles>  (312) 
CN1CCC2C3C45CC2(O)C2CC1C3(c1ncccc1CC4c1ccc(O)o1)N25

>  <smiles>  (312) 
[H]OC12C([H])([H])C34N5C1([H])C([H])([H])C1([H])C5(c5nc([H])c([H])c([H])c5C([H])([H])C3([H])C3([H])OC(=O)C([H])=C3[H])C4([H])C2([H])C([H])([H])C([H])([H])[N+]1([H])C([H])([H])[H]

$$$$
107:0:1
     RDKit          3D

 55 62  0  0  1  0  0  0  0  0999 V2000
    3.9293  -11.9538    3.4552 C   0  0  0  0  0  0  0  0  0  0  0  0
    3.8618  -10.4767    3.4218 N   0  0  1  0  0  0  0  0  0  0  0  0
    4.1738   -9.8535    4.7361 C   0  0  0  0  0  0  0  0  0  0  0  0
    5.6566   -9.5044    4.9589 C   0  0  0  0  0  0  0  0  0  0  0  0
    6.1478   -8.2276    4.2347 C   0  0  2  0  0  0  0  0  0  0  0  0
    5.1111   -7.5450    3.3689 C   0  0  1  0  0  0  0  0  0  0  0  0
    5.8967   -6.7859    2.2985 C   0  0  2  0  0  0  0  0  0  0  0  0
    7.3698   -6.8810    2.6893 C   0  0  0  0  0  0  0  0  0  0  0  0
    7.2728   -8.3362    3.1753 C   0  0  1  0  0  0  0  0  0  0  0  0
    8.4798   -8.8782    3.6665 O   0  0  0  0  0  0  0  0  0  0  0  0
    6.6775   -8.9417    1.8650 C   0  0  1  0  0  0  0  0  0  0  0  0
    5.9436  -10.2802    1.9646 C   0  0  0  0  0  0  0  0  0  0  0  0
    4.4784   -9.8621    2.2109 C   0  0  2  0  0  0  0  0  0  0  0  0
    4.4641   -8.3186    2.2058 C   0  0  1  0  0  0  0  0  0  0  0  0
    3.1661   -7.7111    1.6600 C   0  0  0  0  0  0  0  0  0  0  0  0
    2.0474   -8.3485    2.0735 N   0  0  0  0  0  0  0  0  0  0  0  0
    0.8471   -7.8535    1.7106 C   0  0  0  0  0  0  0  0  0  0  0  0
    0.6830   -6.6603    0.9898 C   0  0  0  0  0  0  0  0  0  0  0  0
    1.8428   -5.9412    0.6218 C   0  0  0  0  0  0  0  0  0  0  0  0
    3.1097   -6.4675    0.9554 C   0  0  0  0  0  0  0  0  0  0  0  0
    4.3408   -5.6398    0.5802 C   0  0  0  0  0  0  0  0  0  0  0  0
    5.3967   -5.4539    1.7055 C   0  0  1  0  0  0  0  0  0  0  0  0
    4.9781   -4.4386    2.8150 C   0  0  2  0  0  0  0  0  0  0  0  0
    3.5345   -4.4973    3.2469 C   0  0  0  0  0  0  0  0  0  0  0  0
    2.8892   -3.3558    2.9710 C   0  0  0  0  0  0  0  0  0  0  0  0
    3.8675   -2.4511    2.3876 C   0  0  0  0  0  0  0  0  0  0  0  0
    3.6499   -1.2923    2.0198 O   0  0  0  0  0  0  0  0  0  0  0  0
    5.0612   -3.1035    2.3250 O   0  0  0  0  0  0  0  0  0  0  0  0
    5.6634   -7.9630    1.4628 N   0  0  0  0  0  0  0  0  0  0  0  0
    4.9158  -12.3090    3.7276 H   0  0  0  0  0  0  0  0  0  0  0  0
    3.6650  -12.3843    2.4961 H   0  0  0  0  0  0  0  0  0  0  0  0
    3.2359  -12.3491    4.1897 H   0  0  0  0  0  0  0  0  0  0  0  0
    3.5376   -8.9825    4.8971 H   0  0  0  0  0  0  0  0  0  0  0  0
    3.8737  -10.5312    5.5272 H   0  0  0  0  0  0  0  0  0  0  0  0
    5.7668   -9.2924    6.0205 H   0  0  0  0  0  0  0  0  0  0  0  0
    6.3179  -10.3533    4.7797 H   0  0  0  0  0  0  0  0  0  0  0  0
    6.4717   -7.5210    5.0042 H   0  0  0  0  0  0  0  0  0  0  0  0
    4.3962   -6.9805    3.9342 H   0  0  0  0  0  0  0  0  0  0  0  0
    8.0717   -6.7539    1.8594 H   0  0  0  0  0  0  0  0  0  0  0  0
    7.6433   -6.1935    3.4898 H   0  0  0  0  0  0  0  0  0  0  0  0
    9.1444   -8.7567    3.0022 H   0  0  0  0  0  0  0  0  0  0  0  0
    7.4410   -8.9828    1.0924 H   0  0  0  0  0  0  0  0  0  0  0  0
    6.0104  -10.7863    1.0043 H   0  0  0  0  0  0  0  0  0  0  0  0
    6.4057  -10.9439    2.6953 H   0  0  0  0  0  0  0  0  0  0  0  0
    3.9108  -10.2272    1.3565 H   0  0  0  0  0  0  0  0  0  0  0  0
   -0.0160   -8.4396    1.9954 H   0  0  0  0  0  0  0  0  0  0  0  0
   -0.3115   -6.3292    0.7302 H   0  0  0  0  0  0  0  0  0  0  0  0
    1.7588   -4.9940    0.1045 H   0  0  0  0  0  0  0  0  0  0  0  0
    4.7960   -6.1053   -0.2966 H   0  0  0  0  0  0  0  0  0  0  0  0
    4.0225   -4.6535    0.2411 H   0  0  0  0  0  0  0  0  0  0  0  0
    6.2518   -4.9883    1.2121 H   0  0  0  0  0  0  0  0  0  0  0  0
    3.0305   -5.3558    3.6480 H   0  0  0  0  0  0  0  0  0  0  0  0
    1.8381   -3.1669    3.1086 H   0  0  0  0  0  0  0  0  0  0  0  0
    5.6219   -4.5435    3.6934 H   0  0  0  0  0  0  0  0  0  0  0  0
    2.8785  -10.2790    3.2939 H   0  0  0  0  0  0  0  0  0  0  0  0
  1  2  1  0
  1 30  1  0
  1 31  1  0
  1 32  1  0
  2 13  1  0
  2  3  1  0
  2 55  1  6
  3  4  1  0
  3 33  1  0
  3 34  1  0
  4  5  1  0
  4 35  1  0
  4 36  1  0
  5  9  1  0
  5  6  1  0
  5 37  1  1
  6 14  1  0
  6  7  1  0
  6 38  1  1
  7 22  1  0
  7 29  1  0
  7  8  1  1
  8  9  1  0
  8 39  1  0
  8 40  1  0
  9 10  1  1
  9 11  1  0
 10 41  1  0
 11 29  1  0
 11 12  1  0
 11 42  1  6
 12 13  1  0
 12 43  1  0
 12 44  1  0
 13 14  1  0
 13 45  1  6
 14 15  1  6
 14 29  1  0
 15 20  2  0
 15 16  1  0
 16 17  2  0
 17 18  1  0
 17 46  1  0
 18 19  2  0
 18 47  1  0
 19 20  1  0
 19 48  1  0
 20 21  1  0
 21 22  1  0
 21 49  1  0
 21 50  1  0
 22 51  1  6
 22 23  1  0
 23 28  1  0
 23 24  1  0
 23 54  1  1
 24 52  1  0
 24 25  2  0
 25 53  1  0
 25 26  1  0
 26 27  2  0
 26 28  1  0
M  CHG  1   2   1
M  END
>  <i_m_ct_stereo_status>  (313) 
1

>  <s_m_source_file>  (313) 
/var/tmp/pbs.5076255.sched01/tmporjl5eer/117expd_qi0.sdf

>  <i_m_source_file_index>  (313) 
18

>  <i_lp_mmshare_version>  (313) 
48012

>  <i_f3d_flags>  (313) 
0

>  <s_epik_input>  (313) 
W0NIMl0xW0NAQEhdKE4yMylbQ0BdKFtDSDJdNCkoW09IXSlbQ0BASF01W0NIMl1bQ0gyXU4oW0NIM10pW0NASF0xW0NAXTMoW0NAQEhdNVtDQF0yNDYpYzdjKFtjSF1bY0hdW2NIXW43KVtDSDJdW0NASF02YzhbY0hdW2NIXWMobzgpW09IXQ==

>  <s_epik_cmdline>  (313) 
J2VwaWtfcHl0aG9uJywgJy1waHQnLCAnMi4wJywgJy1waCcsICc3LjAnLCAnLXRuJywgJzgnLCAnLW1hJywgJzIwMCcsICctaW1hZScsICc8aW5maWxlLm1hZT4nLCAnLW9tYWUnLCAnPG91dGZpbGUubWFlPic=

>  <r_lp_tautomer_probability>  (313) 
1

>  <r_epik_Ionization_Penalty>  (313) 
0.0057054

>  <r_epik_Ionization_Penalty_Charging>  (313) 
0.00544442

>  <r_epik_Ionization_Penalty_Neutral>  (313) 
0.00026098

>  <r_epik_State_Penalty>  (313) 
-0

>  <r_epik_Charging_Adjusted_Penalty>  (313) 
0.00544442

>  <i_epik_Tot_Q>  (313) 
1

>  <i_epik_Tot_abs_Q>  (313) 
1

>  <s_epik_Chemistry_Notes>  (313) 
This compound has an ester and may undergo hydrolysis at high or low pH.

>  <s_lp_Force_Field>  (313) 
OPLS3e

>  <r_lp_Energy>  (313) 
83.0856

>  <b_lp_Chiralities_Consistent>  (313) 
1

>  <s_lp_Variant>  (313) 
107:0-1

>  <s_i_glide_gridfile>  (313) 
pfpi4k_grid

>  <i_i_glide_lignum>  (313) 
18

>  <i_i_glide_rotatable_bonds>  (313) 
2

>  <r_i_docking_score>  (313) 
-3.05824

>  <r_i_glide_ligand_efficiency>  (313) 
-0.105457

>  <r_i_glide_ligand_efficiency_sa>  (313) 
-0.323996

>  <r_i_glide_ligand_efficiency_ln>  (313) 
-0.70026

>  <r_i_glide_gscore>  (313) 
-3.05824

>  <r_i_glide_lipo>  (313) 
-0.283097

>  <r_i_glide_hbond>  (313) 
0

>  <r_i_glide_metal>  (313) 
-0

>  <r_i_glide_rewards>  (313) 
-1.23342

>  <r_i_glide_evdw>  (313) 
-21.4718

>  <r_i_glide_ecoul>  (313) 
-3.81271

>  <r_i_glide_erotb>  (313) 
0.126759

>  <r_i_glide_esite>  (313) 
-0.0229814

>  <r_i_glide_emodel>  (313) 
-34.6914

>  <r_i_glide_energy>  (313) 
-25.2845

>  <r_i_glide_einternal>  (313) 
3.14292

>  <r_i_glide_intrahb_reward>  (313) 
-0.5

>  <i_i_glide_confnum>  (313) 
5

>  <i_i_glide_posenum>  (313) 
12

>  <r_i_glide_eff_state_penalty>  (313) 
0

>  <ligand_id>  (313) 
107

>  <original_smiles>  (313) 
CN1CCC2C3C45CC2(O)C2CC1C3(c1ncccc1CC4c1ccc(O)o1)N25

>  <smiles>  (313) 
[H]OC12C([H])([H])C34N5C1([H])C([H])([H])C1([H])C5(c5nc([H])c([H])c([H])c5C([H])([H])C3([H])C3([H])OC(=O)C([H])=C3[H])C4([H])C2([H])C([H])([H])C([H])([H])[N+]1([H])C([H])([H])[H]

$$$$
107:0:2
     RDKit          3D

 55 62  0  0  1  0  0  0  0  0999 V2000
    5.2426   -1.8617   -1.2800 C   0  0  0  0  0  0  0  0  0  0  0  0
    4.3207   -2.0936   -0.1427 N   0  0  1  0  0  0  0  0  0  0  0  0
    3.0175   -2.6804   -0.5651 C   0  0  0  0  0  0  0  0  0  0  0  0
    2.9601   -4.2179   -0.5587 C   0  0  0  0  0  0  0  0  0  0  0  0
    2.8102   -4.8627    0.8355 C   0  0  2  0  0  0  0  0  0  0  0  0
    2.7962   -3.9047    2.0169 C   0  0  1  0  0  0  0  0  0  0  0  0
    3.3201   -4.7291    3.2014 C   0  0  2  0  0  0  0  0  0  0  0  0
    3.4137   -6.1765    2.7264 C   0  0  0  0  0  0  0  0  0  0  0  0
    3.9356   -5.8075    1.3299 C   0  0  1  0  0  0  0  0  0  0  0  0
    4.2228   -6.8964    0.4807 O   0  0  0  0  0  0  0  0  0  0  0  0
    5.1642   -4.9753    1.7923 C   0  0  1  0  0  0  0  0  0  0  0  0
    5.7660   -3.9907    0.7922 C   0  0  0  0  0  0  0  0  0  0  0  0
    4.9782   -2.6838    1.0641 C   0  0  2  0  0  0  0  0  0  0  0  0
    4.0203   -2.9936    2.2430 C   0  0  1  0  0  0  0  0  0  0  0  0
    3.7286   -1.7929    3.1538 C   0  0  0  0  0  0  0  0  0  0  0  0
    3.6192   -0.6130    2.4990 N   0  0  0  0  0  0  0  0  0  0  0  0
    3.2881    0.4913    3.1998 C   0  0  0  0  0  0  0  0  0  0  0  0
    3.0115    0.4733    4.5749 C   0  0  0  0  0  0  0  0  0  0  0  0
    3.0778   -0.7565    5.2538 C   0  0  0  0  0  0  0  0  0  0  0  0
    3.4259   -1.9244    4.5415 C   0  0  0  0  0  0  0  0  0  0  0  0
    3.4805   -3.2499    5.3049 C   0  0  0  0  0  0  0  0  0  0  0  0
    2.7976   -4.4727    4.6319 C   0  0  1  0  0  0  0  0  0  0  0  0
    1.2480   -4.3654    4.6766 C   0  0  2  0  0  0  0  0  0  0  0  0
    0.6705   -4.4631    6.0629 C   0  0  0  0  0  0  0  0  0  0  0  0
   -0.1312   -5.5197    6.1751 C   0  0  0  0  0  0  0  0  0  0  0  0
   -0.1554   -6.1903    4.8781 C   0  0  0  0  0  0  0  0  0  0  0  0
   -0.7982   -7.1928    4.5806 O   0  0  0  0  0  0  0  0  0  0  0  0
    0.6317   -5.4814    4.0401 O   0  0  0  0  0  0  0  0  0  0  0  0
    4.6316   -4.1535    2.8893 N   0  0  0  0  0  0  0  0  0  0  0  0
    5.4848   -2.7861   -1.8029 H   0  0  0  0  0  0  0  0  0  0  0  0
    6.1703   -1.4081   -0.9327 H   0  0  0  0  0  0  0  0  0  0  0  0
    4.7902   -1.1815   -2.0021 H   0  0  0  0  0  0  0  0  0  0  0  0
    2.2221   -2.2681    0.0623 H   0  0  0  0  0  0  0  0  0  0  0  0
    2.7829   -2.3293   -1.5709 H   0  0  0  0  0  0  0  0  0  0  0  0
    2.0673   -4.4947   -1.1179 H   0  0  0  0  0  0  0  0  0  0  0  0
    3.7886   -4.6527   -1.1180 H   0  0  0  0  0  0  0  0  0  0  0  0
    1.8783   -5.4292    0.8208 H   0  0  0  0  0  0  0  0  0  0  0  0
    1.8481   -3.3906    2.1760 H   0  0  0  0  0  0  0  0  0  0  0  0
    4.1058   -6.7883    3.3049 H   0  0  0  0  0  0  0  0  0  0  0  0
    2.4513   -6.6876    2.6808 H   0  0  0  0  0  0  0  0  0  0  0  0
    4.4759   -6.5616   -0.3667 H   0  0  0  0  0  0  0  0  0  0  0  0
    5.9283   -5.6474    2.1783 H   0  0  0  0  0  0  0  0  0  0  0  0
    6.8174   -3.8348    1.0305 H   0  0  0  0  0  0  0  0  0  0  0  0
    5.7343   -4.3782   -0.2235 H   0  0  0  0  0  0  0  0  0  0  0  0
    5.7224   -1.9551    1.3973 H   0  0  0  0  0  0  0  0  0  0  0  0
    3.2446    1.4162    2.6433 H   0  0  0  0  0  0  0  0  0  0  0  0
    2.7540    1.3833    5.0952 H   0  0  0  0  0  0  0  0  0  0  0  0
    2.8504   -0.7939    6.3101 H   0  0  0  0  0  0  0  0  0  0  0  0
    4.5324   -3.4755    5.4841 H   0  0  0  0  0  0  0  0  0  0  0  0
    3.0622   -3.1048    6.3007 H   0  0  0  0  0  0  0  0  0  0  0  0
    3.0638   -5.3365    5.2446 H   0  0  0  0  0  0  0  0  0  0  0  0
    0.8789   -3.7510    6.8454 H   0  0  0  0  0  0  0  0  0  0  0  0
   -0.6882   -5.8418    7.0433 H   0  0  0  0  0  0  0  0  0  0  0  0
    0.9026   -3.4426    4.2110 H   0  0  0  0  0  0  0  0  0  0  0  0
    4.0516   -1.1696    0.1734 H   0  0  0  0  0  0  0  0  0  0  0  0
  1  2  1  0
  1 30  1  0
  1 31  1  0
  1 32  1  0
  2 13  1  0
  2  3  1  0
  2 55  1  1
  3  4  1  0
  3 33  1  0
  3 34  1  0
  4  5  1  0
  4 35  1  0
  4 36  1  0
  5  9  1  0
  5  6  1  0
  5 37  1  6
  6 14  1  0
  6  7  1  0
  6 38  1  1
  7 22  1  0
  7 29  1  0
  7  8  1  6
  8  9  1  0
  8 39  1  0
  8 40  1  0
  9 10  1  6
  9 11  1  0
 10 41  1  0
 11 29  1  0
 11 12  1  0
 11 42  1  1
 12 13  1  0
 12 43  1  0
 12 44  1  0
 13 14  1  0
 13 45  1  1
 14 15  1  1
 14 29  1  0
 15 20  2  0
 15 16  1  0
 16 17  2  0
 17 18  1  0
 17 46  1  0
 18 19  2  0
 18 47  1  0
 19 20  1  0
 19 48  1  0
 20 21  1  0
 21 22  1  0
 21 49  1  0
 21 50  1  0
 22 51  1  1
 22 23  1  0
 23 28  1  0
 23 24  1  0
 23 54  1  6
 24 52  1  0
 24 25  2  0
 25 53  1  0
 25 26  1  0
 26 27  2  0
 26 28  1  0
M  CHG  1   2   1
M  END
>  <i_m_ct_stereo_status>  (314) 
1

>  <s_m_source_file>  (314) 
/var/tmp/pbs.5076255.sched01/tmporjl5eer/117expd_qi0.sdf

>  <i_m_source_file_index>  (314) 
18

>  <i_lp_mmshare_version>  (314) 
48012

>  <i_f3d_flags>  (314) 
0

>  <s_epik_input>  (314) 
W0NIMl0xW0NAQEhdKE4yMylbQ0BdKFtDSDJdNCkoW09IXSlbQ0BASF01W0NIMl1bQ0gyXU4oW0NIM10pW0NASF0xW0NAXTMoW0NAQEhdNVtDQF0yNDYpYzdjKFtjSF1bY0hdW2NIXW43KVtDSDJdW0NASF02YzhbY0hdW2NIXWMobzgpW09IXQ==

>  <s_epik_cmdline>  (314) 
J2VwaWtfcHl0aG9uJywgJy1waHQnLCAnMi4wJywgJy1waCcsICc3LjAnLCAnLXRuJywgJzgnLCAnLW1hJywgJzIwMCcsICctaW1hZScsICc8aW5maWxlLm1hZT4nLCAnLW9tYWUnLCAnPG91dGZpbGUubWFlPic=

>  <r_lp_tautomer_probability>  (314) 
1

>  <r_epik_Ionization_Penalty>  (314) 
0.0057054

>  <r_epik_Ionization_Penalty_Charging>  (314) 
0.00544442

>  <r_epik_Ionization_Penalty_Neutral>  (314) 
0.00026098

>  <r_epik_State_Penalty>  (314) 
-0

>  <r_epik_Charging_Adjusted_Penalty>  (314) 
0.00544442

>  <i_epik_Tot_Q>  (314) 
1

>  <i_epik_Tot_abs_Q>  (314) 
1

>  <s_epik_Chemistry_Notes>  (314) 
This compound has an ester and may undergo hydrolysis at high or low pH.

>  <s_lp_Force_Field>  (314) 
OPLS3e

>  <r_lp_Energy>  (314) 
83.0856

>  <b_lp_Chiralities_Consistent>  (314) 
1

>  <s_lp_Variant>  (314) 
107:0-1

>  <s_i_glide_gridfile>  (314) 
pfpi4k_grid

>  <i_i_glide_lignum>  (314) 
18

>  <i_i_glide_rotatable_bonds>  (314) 
2

>  <r_i_docking_score>  (314) 
-2.89455

>  <r_i_glide_ligand_efficiency>  (314) 
-0.0998122

>  <r_i_glide_ligand_efficiency_sa>  (314) 
-0.306655

>  <r_i_glide_ligand_efficiency_ln>  (314) 
-0.66278

>  <r_i_glide_gscore>  (314) 
-2.89455

>  <r_i_glide_lipo>  (314) 
-0.188834

>  <r_i_glide_hbond>  (314) 
0

>  <r_i_glide_metal>  (314) 
-0

>  <r_i_glide_rewards>  (314) 
-1.23315

>  <r_i_glide_evdw>  (314) 
-20.0287

>  <r_i_glide_ecoul>  (314) 
-3.72755

>  <r_i_glide_erotb>  (314) 
0.126759

>  <r_i_glide_esite>  (314) 
-0.0387573

>  <r_i_glide_emodel>  (314) 
-34.5444

>  <r_i_glide_energy>  (314) 
-23.7563

>  <r_i_glide_einternal>  (314) 
0.182272

>  <r_i_glide_intrahb_reward>  (314) 
-0.5

>  <i_i_glide_confnum>  (314) 
1

>  <i_i_glide_posenum>  (314) 
1

>  <r_i_glide_eff_state_penalty>  (314) 
0

>  <ligand_id>  (314) 
107

>  <original_smiles>  (314) 
CN1CCC2C3C45CC2(O)C2CC1C3(c1ncccc1CC4c1ccc(O)o1)N25

>  <smiles>  (314) 
[H]OC12C([H])([H])C34N5C1([H])C([H])([H])C1([H])C5(c5nc([H])c([H])c([H])c5C([H])([H])C3([H])C3([H])OC(=O)C([H])=C3[H])C4([H])C2([H])C([H])([H])C([H])([H])[N+]1([H])C([H])([H])[H]

$$$$
109:0:0
     RDKit          3D

 35 38  0  0  1  0  0  0  0  0999 V2000
    4.2130   -2.0472   -4.2654 O   0  0  0  0  0  0  0  0  0  0  0  0
    3.9772   -1.4794   -3.2168 C   0  0  0  0  0  0  0  0  0  0  0  0
    3.4598   -0.0428   -3.2121 C   0  0  0  0  0  0  0  0  0  0  0  0
    3.6622    0.7475   -4.4869 C   0  0  0  0  0  0  0  0  0  0  0  0
    2.5392    1.4883   -5.1657 C   0  0  0  0  0  0  0  0  0  0  0  0
    3.1708    0.3108   -5.8279 C   0  0  0  0  0  0  0  0  0  0  0  0
    4.1799   -2.1010   -2.0309 N   0  0  0  0  0  0  0  0  0  0  0  0
    4.7095   -3.4510   -1.9884 C   0  0  0  0  0  0  0  0  0  0  0  0
    4.6058   -3.8995   -0.5317 C   0  0  2  0  0  0  0  0  0  0  0  0
    3.3456   -4.7252   -0.1503 C   0  0  0  0  0  0  0  0  0  0  0  0
    2.9754   -4.1752    1.1892 C   0  0  0  0  0  0  0  0  0  0  0  0
    2.2081   -4.8060    2.0818 N   0  0  0  0  0  0  0  0  0  0  0  0
    2.1122   -4.1399    3.2668 C   0  0  0  0  0  0  0  0  0  0  0  0
    2.7604   -2.8918    3.5075 C   0  0  0  0  0  0  0  0  0  0  0  0
    3.5302   -2.2633    2.5784 N   0  0  0  0  0  0  0  0  0  0  0  0
    3.6127   -2.9419    1.4240 C   0  0  0  0  0  0  0  0  0  0  0  0
    4.5073   -2.5954    0.2789 C   0  0  2  0  0  0  0  0  0  0  0  0
    3.8343   -1.6261   -0.7021 C   0  0  0  0  0  0  0  0  0  0  0  0
    2.4063   -0.0474   -2.9427 H   0  0  0  0  0  0  0  0  0  0  0  0
    4.0442    0.5061   -2.4848 H   0  0  0  0  0  0  0  0  0  0  0  0
    4.5676    1.3243   -4.4547 H   0  0  0  0  0  0  0  0  0  0  0  0
    1.5270    1.3522   -4.8091 H   0  0  0  0  0  0  0  0  0  0  0  0
    2.8009    2.4829   -5.5185 H   0  0  0  0  0  0  0  0  0  0  0  0
    3.8089    0.4637   -6.6923 H   0  0  0  0  0  0  0  0  0  0  0  0
    2.6613   -0.6275   -5.7454 H   0  0  0  0  0  0  0  0  0  0  0  0
    4.1889   -4.1178   -2.6731 H   0  0  0  0  0  0  0  0  0  0  0  0
    5.7514   -3.4232   -2.3084 H   0  0  0  0  0  0  0  0  0  0  0  0
    5.4872   -4.4597   -0.2184 H   0  0  0  0  0  0  0  0  0  0  0  0
    2.5085   -4.4920   -0.8060 H   0  0  0  0  0  0  0  0  0  0  0  0
    3.5105   -5.8047   -0.1466 H   0  0  0  0  0  0  0  0  0  0  0  0
    1.5059   -4.6021    4.0338 H   0  0  0  0  0  0  0  0  0  0  0  0
    2.6608   -2.3999    4.4670 H   0  0  0  0  0  0  0  0  0  0  0  0
    5.4866   -2.2216    0.6084 H   0  0  0  0  0  0  0  0  0  0  0  0
    4.1418   -0.6039   -0.5067 H   0  0  0  0  0  0  0  0  0  0  0  0
    2.7442   -1.6694   -0.6102 H   0  0  0  0  0  0  0  0  0  0  0  0
  1  2  2  0
  2  3  1  0
  2  7  1  0
  3  4  1  0
  3 19  1  0
  3 20  1  0
  4  6  1  0
  4  5  1  0
  4 21  1  0
  5  6  1  0
  5 22  1  0
  5 23  1  0
  6 24  1  0
  6 25  1  0
  7 18  1  0
  7  8  1  0
  8  9  1  0
  8 26  1  0
  8 27  1  0
  9 17  1  0
  9 10  1  0
  9 28  1  1
 10 11  1  0
 10 29  1  0
 10 30  1  0
 11 16  2  0
 11 12  1  0
 12 13  2  0
 13 14  1  0
 13 31  1  0
 14 15  2  0
 14 32  1  0
 15 16  1  0
 16 17  1  0
 17 18  1  0
 17 33  1  1
 18 34  1  0
 18 35  1  0
M  END
>  <i_m_ct_stereo_status>  (315) 
1

>  <s_m_source_file>  (315) 
/var/tmp/pbs.5076255.sched01/tmporjl5eer/117expd_qi0.sdf

>  <i_m_source_file_index>  (315) 
20

>  <i_lp_mmshare_version>  (315) 
48012

>  <i_f3d_flags>  (315) 
0

>  <s_epik_input>  (315) 
W0NIMl0xW0NIMl1bQ0hdMVtDSDJdQyg9TylOKFtDSDJdMilbQ0gyXVtDQEhdKFtDQEhdMjMpYzRjKFtDSDJdMyluW2NIXVtjSF1uNA==

>  <s_epik_cmdline>  (315) 
J2VwaWtfcHl0aG9uJywgJy1waHQnLCAnMi4wJywgJy1waCcsICc3LjAnLCAnLXRuJywgJzgnLCAnLW1hJywgJzIwMCcsICctaW1hZScsICc8aW5maWxlLm1hZT4nLCAnLW9tYWUnLCAnPG91dGZpbGUubWFlPic=

>  <r_lp_tautomer_probability>  (315) 
1

>  <r_epik_Ionization_Penalty>  (315) 
8.29789e-06

>  <r_epik_Ionization_Penalty_Charging>  (315) 
0

>  <r_epik_Ionization_Penalty_Neutral>  (315) 
8.29789e-06

>  <r_epik_State_Penalty>  (315) 
-0

>  <r_epik_Charging_Adjusted_Penalty>  (315) 
0

>  <i_epik_Tot_Q>  (315) 
0

>  <i_epik_Tot_abs_Q>  (315) 
0

>  <s_lp_Force_Field>  (315) 
OPLS3e

>  <r_lp_Energy>  (315) 
24.1334

>  <b_lp_Chiralities_Consistent>  (315) 
1

>  <s_lp_Variant>  (315) 
109:0-1

>  <s_i_glide_gridfile>  (315) 
pfpi4k_grid

>  <i_i_glide_lignum>  (315) 
20

>  <i_i_glide_rotatable_bonds>  (315) 
3

>  <r_i_docking_score>  (315) 
-3.26898

>  <r_i_glide_ligand_efficiency>  (315) 
-0.18161

>  <r_i_glide_ligand_efficiency_sa>  (315) 
-0.475953

>  <r_i_glide_ligand_efficiency_ln>  (315) 
-0.840275

>  <r_i_glide_gscore>  (315) 
-3.26898

>  <r_i_glide_lipo>  (315) 
-0.289036

>  <r_i_glide_hbond>  (315) 
-0.32

>  <r_i_glide_metal>  (315) 
-0

>  <r_i_glide_rewards>  (315) 
-1.93095

>  <r_i_glide_evdw>  (315) 
-18.1084

>  <r_i_glide_ecoul>  (315) 
-4.61643

>  <r_i_glide_erotb>  (315) 
0.879951

>  <r_i_glide_esite>  (315) 
-0.0110668

>  <r_i_glide_emodel>  (315) 
-26.3139

>  <r_i_glide_energy>  (315) 
-22.7248

>  <r_i_glide_einternal>  (315) 
0.573595

>  <r_i_glide_intrahb_reward>  (315) 
-0

>  <i_i_glide_confnum>  (315) 
1

>  <i_i_glide_posenum>  (315) 
18

>  <r_i_glide_eff_state_penalty>  (315) 
0

>  <ligand_id>  (315) 
109

>  <original_smiles>  (315) 
O=C(CC1CC1)N1CC2Cc3nccnc3C2C1

>  <smiles>  (315) 
[H]c1nc2c(nc1[H])C1([H])C([H])([H])N(C(=O)C([H])([H])C3([H])C([H])([H])C3([H])[H])C([H])([H])C1([H])C2([H])[H]

$$$$
109:0:1
     RDKit          3D

 35 38  0  0  1  0  0  0  0  0999 V2000
    5.0132   -2.5820   -3.4832 O   0  0  0  0  0  0  0  0  0  0  0  0
    4.0530   -2.5711   -2.7176 C   0  0  0  0  0  0  0  0  0  0  0  0
    2.7846   -1.8327   -3.1704 C   0  0  0  0  0  0  0  0  0  0  0  0
    3.0814   -0.4165   -3.6532 C   0  0  0  0  0  0  0  0  0  0  0  0
    2.2265    0.1846   -4.7454 C   0  0  0  0  0  0  0  0  0  0  0  0
    3.6658   -0.1529   -5.0219 C   0  0  0  0  0  0  0  0  0  0  0  0
    4.0978   -3.1499   -1.4943 N   0  0  0  0  0  0  0  0  0  0  0  0
    5.3522   -3.6302   -0.9084 C   0  0  0  0  0  0  0  0  0  0  0  0
    4.9790   -4.3881    0.3684 C   0  0  2  0  0  0  0  0  0  0  0  0
    4.8677   -5.9340    0.2389 C   0  0  0  0  0  0  0  0  0  0  0  0
    3.6560   -6.2422    1.0668 C   0  0  0  0  0  0  0  0  0  0  0  0
    3.3488   -7.4547    1.5701 N   0  0  0  0  0  0  0  0  0  0  0  0
    2.2515   -7.4600    2.3689 C   0  0  0  0  0  0  0  0  0  0  0  0
    1.4932   -6.2858    2.6321 C   0  0  0  0  0  0  0  0  0  0  0  0
    1.8110   -5.0773    2.1057 N   0  0  0  0  0  0  0  0  0  0  0  0
    2.9155   -5.0943    1.3274 C   0  0  0  0  0  0  0  0  0  0  0  0
    3.5644   -3.8931    0.7125 C   0  0  2  0  0  0  0  0  0  0  0  0
    2.9620   -3.4891   -0.6362 C   0  0  0  0  0  0  0  0  0  0  0  0
    2.3275   -2.4170   -3.9766 H   0  0  0  0  0  0  0  0  0  0  0  0
    2.0630   -1.7522   -2.3659 H   0  0  0  0  0  0  0  0  0  0  0  0
    3.4389    0.2406   -2.8669 H   0  0  0  0  0  0  0  0  0  0  0  0
    1.4470   -0.4668   -5.1272 H   0  0  0  0  0  0  0  0  0  0  0  0
    1.9727    1.2421   -4.7130 H   0  0  0  0  0  0  0  0  0  0  0  0
    4.3607    0.6806   -5.1101 H   0  0  0  0  0  0  0  0  0  0  0  0
    3.8983   -1.0391   -5.6056 H   0  0  0  0  0  0  0  0  0  0  0  0
    5.9246   -4.2445   -1.6039 H   0  0  0  0  0  0  0  0  0  0  0  0
    5.9607   -2.7616   -0.6494 H   0  0  0  0  0  0  0  0  0  0  0  0
    5.6562   -4.1638    1.2013 H   0  0  0  0  0  0  0  0  0  0  0  0
    4.6361   -6.2311   -0.7816 H   0  0  0  0  0  0  0  0  0  0  0  0
    5.7514   -6.4722    0.5790 H   0  0  0  0  0  0  0  0  0  0  0  0
    1.9720   -8.4060    2.8052 H   0  0  0  0  0  0  0  0  0  0  0  0
    0.6265   -6.3197    3.2740 H   0  0  0  0  0  0  0  0  0  0  0  0
    3.5773   -3.0491    1.4068 H   0  0  0  0  0  0  0  0  0  0  0  0
    2.2383   -2.6909   -0.4824 H   0  0  0  0  0  0  0  0  0  0  0  0
    2.4489   -4.3380   -1.0980 H   0  0  0  0  0  0  0  0  0  0  0  0
  1  2  2  0
  2  3  1  0
  2  7  1  0
  3  4  1  0
  3 19  1  0
  3 20  1  0
  4  6  1  0
  4  5  1  0
  4 21  1  0
  5  6  1  0
  5 22  1  0
  5 23  1  0
  6 24  1  0
  6 25  1  0
  7 18  1  0
  7  8  1  0
  8  9  1  0
  8 26  1  0
  8 27  1  0
  9 17  1  0
  9 10  1  0
  9 28  1  1
 10 11  1  0
 10 29  1  0
 10 30  1  0
 11 16  2  0
 11 12  1  0
 12 13  2  0
 13 14  1  0
 13 31  1  0
 14 15  2  0
 14 32  1  0
 15 16  1  0
 16 17  1  0
 17 18  1  0
 17 33  1  1
 18 34  1  0
 18 35  1  0
M  END
>  <i_m_ct_stereo_status>  (316) 
1

>  <s_m_source_file>  (316) 
/var/tmp/pbs.5076255.sched01/tmporjl5eer/117expd_qi0.sdf

>  <i_m_source_file_index>  (316) 
20

>  <i_lp_mmshare_version>  (316) 
48012

>  <i_f3d_flags>  (316) 
0

>  <s_epik_input>  (316) 
W0NIMl0xW0NIMl1bQ0hdMVtDSDJdQyg9TylOKFtDSDJdMilbQ0gyXVtDQEhdKFtDQEhdMjMpYzRjKFtDSDJdMyluW2NIXVtjSF1uNA==

>  <s_epik_cmdline>  (316) 
J2VwaWtfcHl0aG9uJywgJy1waHQnLCAnMi4wJywgJy1waCcsICc3LjAnLCAnLXRuJywgJzgnLCAnLW1hJywgJzIwMCcsICctaW1hZScsICc8aW5maWxlLm1hZT4nLCAnLW9tYWUnLCAnPG91dGZpbGUubWFlPic=

>  <r_lp_tautomer_probability>  (316) 
1

>  <r_epik_Ionization_Penalty>  (316) 
8.29789e-06

>  <r_epik_Ionization_Penalty_Charging>  (316) 
0

>  <r_epik_Ionization_Penalty_Neutral>  (316) 
8.29789e-06

>  <r_epik_State_Penalty>  (316) 
-0

>  <r_epik_Charging_Adjusted_Penalty>  (316) 
0

>  <i_epik_Tot_Q>  (316) 
0

>  <i_epik_Tot_abs_Q>  (316) 
0

>  <s_lp_Force_Field>  (316) 
OPLS3e

>  <r_lp_Energy>  (316) 
24.1334

>  <b_lp_Chiralities_Consistent>  (316) 
1

>  <s_lp_Variant>  (316) 
109:0-1

>  <s_i_glide_gridfile>  (316) 
pfpi4k_grid

>  <i_i_glide_lignum>  (316) 
20

>  <i_i_glide_rotatable_bonds>  (316) 
3

>  <r_i_docking_score>  (316) 
-3.19246

>  <r_i_glide_ligand_efficiency>  (316) 
-0.177359

>  <r_i_glide_ligand_efficiency_sa>  (316) 
-0.464811

>  <r_i_glide_ligand_efficiency_ln>  (316) 
-0.820605

>  <r_i_glide_gscore>  (316) 
-3.19246

>  <r_i_glide_lipo>  (316) 
-0.697329

>  <r_i_glide_hbond>  (316) 
-0.00959903

>  <r_i_glide_metal>  (316) 
-0

>  <r_i_glide_rewards>  (316) 
-1.84024

>  <r_i_glide_evdw>  (316) 
-22.2104

>  <r_i_glide_ecoul>  (316) 
-2.64664

>  <r_i_glide_erotb>  (316) 
0.879951

>  <r_i_glide_esite>  (316) 
-0.0177248

>  <r_i_glide_emodel>  (316) 
-28.5888

>  <r_i_glide_energy>  (316) 
-24.8571

>  <r_i_glide_einternal>  (316) 
1.65099

>  <r_i_glide_intrahb_reward>  (316) 
-0

>  <i_i_glide_confnum>  (316) 
1

>  <i_i_glide_posenum>  (316) 
27

>  <r_i_glide_eff_state_penalty>  (316) 
0

>  <ligand_id>  (316) 
109

>  <original_smiles>  (316) 
O=C(CC1CC1)N1CC2Cc3nccnc3C2C1

>  <smiles>  (316) 
[H]c1nc2c(nc1[H])C1([H])C([H])([H])N(C(=O)C([H])([H])C3([H])C([H])([H])C3([H])[H])C([H])([H])C1([H])C2([H])[H]

$$$$
109:0:2
     RDKit          3D

 35 38  0  0  1  0  0  0  0  0999 V2000
    4.6109   -3.1183   -3.9163 O   0  0  0  0  0  0  0  0  0  0  0  0
    3.8946   -2.6348   -3.0394 C   0  0  0  0  0  0  0  0  0  0  0  0
    2.8203   -1.6112   -3.4457 C   0  0  0  0  0  0  0  0  0  0  0  0
    3.2125   -0.7307   -4.6254 C   0  0  0  0  0  0  0  0  0  0  0  0
    3.8661    0.6171   -4.4040 C   0  0  0  0  0  0  0  0  0  0  0  0
    2.4483    0.5431   -4.8987 C   0  0  0  0  0  0  0  0  0  0  0  0
    4.0068   -2.9877   -1.7385 N   0  0  0  0  0  0  0  0  0  0  0  0
    4.9433   -4.0132   -1.2804 C   0  0  0  0  0  0  0  0  0  0  0  0
    4.6433   -4.2413    0.2039 C   0  0  2  0  0  0  0  0  0  0  0  0
    3.6844   -5.4184    0.5471 C   0  0  0  0  0  0  0  0  0  0  0  0
    2.8504   -4.8486    1.6574 C   0  0  0  0  0  0  0  0  0  0  0  0
    2.1237   -5.5717    2.5301 N   0  0  0  0  0  0  0  0  0  0  0  0
    1.5385   -4.8332    3.5086 C   0  0  0  0  0  0  0  0  0  0  0  0
    1.6557   -3.4149    3.5683 C   0  0  0  0  0  0  0  0  0  0  0  0
    2.3704   -2.7042    2.6568 N   0  0  0  0  0  0  0  0  0  0  0  0
    2.9647   -3.4645    1.7150 C   0  0  0  0  0  0  0  0  0  0  0  0
    3.9098   -2.9703    0.6602 C   0  0  2  0  0  0  0  0  0  0  0  0
    3.2091   -2.4861   -0.6160 C   0  0  0  0  0  0  0  0  0  0  0  0
    1.9091   -2.1627   -3.6936 H   0  0  0  0  0  0  0  0  0  0  0  0
    2.5909   -0.9393   -2.6207 H   0  0  0  0  0  0  0  0  0  0  0  0
    3.5376   -1.2704   -5.5109 H   0  0  0  0  0  0  0  0  0  0  0  0
    4.0402    0.9447   -3.3819 H   0  0  0  0  0  0  0  0  0  0  0  0
    4.6094    0.9413   -5.1249 H   0  0  0  0  0  0  0  0  0  0  0  0
    2.2784    0.8059   -5.9267 H   0  0  0  0  0  0  0  0  0  0  0  0
    1.6391    0.8231   -4.2357 H   0  0  0  0  0  0  0  0  0  0  0  0
    4.8634   -4.9320   -1.8619 H   0  0  0  0  0  0  0  0  0  0  0  0
    5.9600   -3.6348   -1.4028 H   0  0  0  0  0  0  0  0  0  0  0  0
    5.5566   -4.3658    0.7921 H   0  0  0  0  0  0  0  0  0  0  0  0
    3.0055   -5.6280   -0.2785 H   0  0  0  0  0  0  0  0  0  0  0  0
    4.1993   -6.3364    0.8261 H   0  0  0  0  0  0  0  0  0  0  0  0
    0.9614   -5.3720    4.2461 H   0  0  0  0  0  0  0  0  0  0  0  0
    1.1676   -2.8566    4.3548 H   0  0  0  0  0  0  0  0  0  0  0  0
    4.5957   -2.2175    1.0517 H   0  0  0  0  0  0  0  0  0  0  0  0
    3.1080   -1.4011   -0.5914 H   0  0  0  0  0  0  0  0  0  0  0  0
    2.2112   -2.9227   -0.7107 H   0  0  0  0  0  0  0  0  0  0  0  0
  1  2  2  0
  2  3  1  0
  2  7  1  0
  3  4  1  0
  3 19  1  0
  3 20  1  0
  4  6  1  0
  4  5  1  0
  4 21  1  0
  5  6  1  0
  5 22  1  0
  5 23  1  0
  6 24  1  0
  6 25  1  0
  7 18  1  0
  7  8  1  0
  8  9  1  0
  8 26  1  0
  8 27  1  0
  9 17  1  0
  9 10  1  0
  9 28  1  1
 10 11  1  0
 10 29  1  0
 10 30  1  0
 11 16  2  0
 11 12  1  0
 12 13  2  0
 13 14  1  0
 13 31  1  0
 14 15  2  0
 14 32  1  0
 15 16  1  0
 16 17  1  0
 17 18  1  0
 17 33  1  1
 18 34  1  0
 18 35  1  0
M  END
>  <i_m_ct_stereo_status>  (317) 
1

>  <s_m_source_file>  (317) 
/var/tmp/pbs.5076255.sched01/tmporjl5eer/117expd_qi0.sdf

>  <i_m_source_file_index>  (317) 
20

>  <i_lp_mmshare_version>  (317) 
48012

>  <i_f3d_flags>  (317) 
0

>  <s_epik_input>  (317) 
W0NIMl0xW0NIMl1bQ0hdMVtDSDJdQyg9TylOKFtDSDJdMilbQ0gyXVtDQEhdKFtDQEhdMjMpYzRjKFtDSDJdMyluW2NIXVtjSF1uNA==

>  <s_epik_cmdline>  (317) 
J2VwaWtfcHl0aG9uJywgJy1waHQnLCAnMi4wJywgJy1waCcsICc3LjAnLCAnLXRuJywgJzgnLCAnLW1hJywgJzIwMCcsICctaW1hZScsICc8aW5maWxlLm1hZT4nLCAnLW9tYWUnLCAnPG91dGZpbGUubWFlPic=

>  <r_lp_tautomer_probability>  (317) 
1

>  <r_epik_Ionization_Penalty>  (317) 
8.29789e-06

>  <r_epik_Ionization_Penalty_Charging>  (317) 
0

>  <r_epik_Ionization_Penalty_Neutral>  (317) 
8.29789e-06

>  <r_epik_State_Penalty>  (317) 
-0

>  <r_epik_Charging_Adjusted_Penalty>  (317) 
0

>  <i_epik_Tot_Q>  (317) 
0

>  <i_epik_Tot_abs_Q>  (317) 
0

>  <s_lp_Force_Field>  (317) 
OPLS3e

>  <r_lp_Energy>  (317) 
24.1334

>  <b_lp_Chiralities_Consistent>  (317) 
1

>  <s_lp_Variant>  (317) 
109:0-1

>  <s_i_glide_gridfile>  (317) 
pfpi4k_grid

>  <i_i_glide_lignum>  (317) 
20

>  <i_i_glide_rotatable_bonds>  (317) 
3

>  <r_i_docking_score>  (317) 
-2.98844

>  <r_i_glide_ligand_efficiency>  (317) 
-0.166024

>  <r_i_glide_ligand_efficiency_sa>  (317) 
-0.435107

>  <r_i_glide_ligand_efficiency_ln>  (317) 
-0.768162

>  <r_i_glide_gscore>  (317) 
-2.98844

>  <r_i_glide_lipo>  (317) 
-0.411129

>  <r_i_glide_hbond>  (317) 
-0.0413957

>  <r_i_glide_metal>  (317) 
-0

>  <r_i_glide_rewards>  (317) 
-1.88201

>  <r_i_glide_evdw>  (317) 
-22.5533

>  <r_i_glide_ecoul>  (317) 
-2.57758

>  <r_i_glide_erotb>  (317) 
0.879951

>  <r_i_glide_esite>  (317) 
-0.0195455

>  <r_i_glide_emodel>  (317) 
-29.2716

>  <r_i_glide_energy>  (317) 
-25.1309

>  <r_i_glide_einternal>  (317) 
0.499876

>  <r_i_glide_intrahb_reward>  (317) 
-0

>  <i_i_glide_confnum>  (317) 
4

>  <i_i_glide_posenum>  (317) 
34

>  <r_i_glide_eff_state_penalty>  (317) 
0

>  <ligand_id>  (317) 
109

>  <original_smiles>  (317) 
O=C(CC1CC1)N1CC2Cc3nccnc3C2C1

>  <smiles>  (317) 
[H]c1nc2c(nc1[H])C1([H])C([H])([H])N(C(=O)C([H])([H])C3([H])C([H])([H])C3([H])[H])C([H])([H])C1([H])C2([H])[H]

$$$$
110:0:0
     RDKit          3D

 40 45  0  0  1  0  0  0  0  0999 V2000
   -4.1833   -8.4282   -4.9438 O   0  0  0  0  0  0  0  0  0  0  0  0
   -4.5832   -9.5954   -5.5277 C   0  0  0  0  0  0  0  0  0  0  0  0
   -3.7444  -10.7337   -5.5207 C   0  0  0  0  0  0  0  0  0  0  0  0
   -4.0603  -11.8780   -6.2904 C   0  0  0  0  0  0  0  0  0  0  0  0
   -5.2997  -11.9643   -6.9593 C   0  0  0  0  0  0  0  0  0  0  0  0
   -6.1800  -10.8819   -6.7542 C   0  0  0  0  0  0  0  0  0  0  0  0
   -5.8012   -9.6591   -6.2280 C   0  0  0  0  0  0  0  0  0  0  0  0
   -6.5508   -8.6343   -6.7264 O   0  0  0  0  0  0  0  0  0  0  0  0
   -7.1681   -9.1849   -7.9128 C   0  0  2  0  0  0  0  0  0  0  0  0
   -8.2878   -8.3100   -8.4632 C   0  0  0  0  0  0  0  0  0  0  0  0
   -8.3987   -6.9717   -8.0316 C   0  0  0  0  0  0  0  0  0  0  0  0
   -9.3768   -6.1466   -8.6057 C   0  0  0  0  0  0  0  0  0  0  0  0
  -10.2112   -6.6935   -9.5953 C   0  0  0  0  0  0  0  0  0  0  0  0
  -10.1200   -7.9719  -10.0182 N   0  0  0  0  0  0  0  0  0  0  0  0
   -9.1790   -8.7696   -9.4668 C   0  0  0  0  0  0  0  0  0  0  0  0
   -9.1297  -10.1966  -10.0238 C   0  0  0  0  0  0  0  0  0  0  0  0
   -9.1963  -11.3466   -8.9831 C   0  0  2  0  0  0  0  0  0  0  0  0
   -9.7902  -10.9417   -7.6365 C   0  0  0  0  0  0  0  0  0  0  0  0
   -8.8309  -10.6200   -6.7540 C   0  0  0  0  0  0  0  0  0  0  0  0
   -7.4850  -10.6390   -7.4526 C   0  0  2  0  0  0  0  0  0  0  0  0
   -7.8088  -11.7352   -8.4548 C   0  0  2  0  0  0  0  0  0  0  0  0
   -6.6081  -12.2769   -9.2115 C   0  0  0  0  0  0  0  0  0  0  0  0
   -5.6455  -12.8803   -8.1451 C   0  0  0  0  0  0  0  0  0  0  0  0
   -3.3691   -8.5267   -4.4600 H   0  0  0  0  0  0  0  0  0  0  0  0
   -2.7901  -10.6831   -5.0148 H   0  0  0  0  0  0  0  0  0  0  0  0
   -3.3152  -12.6546   -6.4124 H   0  0  0  0  0  0  0  0  0  0  0  0
   -6.4086   -9.2293   -8.6979 H   0  0  0  0  0  0  0  0  0  0  0  0
   -7.7304   -6.5691   -7.2858 H   0  0  0  0  0  0  0  0  0  0  0  0
   -9.4824   -5.1209   -8.2925 H   0  0  0  0  0  0  0  0  0  0  0  0
  -10.9650   -6.0828  -10.0670 H   0  0  0  0  0  0  0  0  0  0  0  0
   -9.9904  -10.3190  -10.6827 H   0  0  0  0  0  0  0  0  0  0  0  0
   -8.2509  -10.3098  -10.6618 H   0  0  0  0  0  0  0  0  0  0  0  0
   -9.6929  -12.2298   -9.3869 H   0  0  0  0  0  0  0  0  0  0  0  0
  -10.8479  -10.9575   -7.4343 H   0  0  0  0  0  0  0  0  0  0  0  0
   -8.9708  -10.3214   -5.7277 H   0  0  0  0  0  0  0  0  0  0  0  0
   -8.0446  -12.6209   -7.8552 H   0  0  0  0  0  0  0  0  0  0  0  0
   -6.9060  -13.0387   -9.9332 H   0  0  0  0  0  0  0  0  0  0  0  0
   -6.1323  -11.4657   -9.7523 H   0  0  0  0  0  0  0  0  0  0  0  0
   -4.7156  -13.1534   -8.6398 H   0  0  0  0  0  0  0  0  0  0  0  0
   -6.0569  -13.8027   -7.7361 H   0  0  0  0  0  0  0  0  0  0  0  0
  1  2  1  0
  1 24  1  0
  2  7  2  0
  2  3  1  0
  3  4  2  0
  3 25  1  0
  4  5  1  0
  4 26  1  0
  5 23  1  0
  5  6  2  0
  6 20  1  0
  6  7  1  0
  7  8  1  0
  8  9  1  0
  9 20  1  0
  9 10  1  0
  9 27  1  6
 10 15  2  0
 10 11  1  0
 11 12  2  0
 11 28  1  0
 12 13  1  0
 12 29  1  0
 13 14  2  0
 13 30  1  0
 14 15  1  0
 15 16  1  0
 16 17  1  0
 16 31  1  0
 16 32  1  0
 17 21  1  0
 17 18  1  0
 17 33  1  6
 18 19  2  0
 18 34  1  0
 20 19  1  1
 19 35  1  0
 20 21  1  0
 21 22  1  0
 21 36  1  1
 22 23  1  0
 22 37  1  0
 22 38  1  0
 23 39  1  0
 23 40  1  0
M  END
>  <i_m_ct_stereo_status>  (318) 
1

>  <s_m_source_file>  (318) 
/var/tmp/pbs.5076255.sched01/tmporjl5eer/117expd_qi0.sdf

>  <i_m_source_file_index>  (318) 
21

>  <i_lp_mmshare_version>  (318) 
48012

>  <i_f3d_flags>  (318) 
0

>  <s_epik_input>  (318) 
W0NAQF0xMjNjNGM1W2NIXVtjSF1jKFtPSF0pYzRPW0NAQEhdMWM2YyhuW2NIXVtjSF1bY0hdNilbQ0gyXVtDQEhdKFtDSF09W0NIXTIpW0NASF0zW0NIMl1bQ0gyXTU=

>  <s_epik_cmdline>  (318) 
J2VwaWtfcHl0aG9uJywgJy1waHQnLCAnMi4wJywgJy1waCcsICc3LjAnLCAnLXRuJywgJzgnLCAnLW1hJywgJzIwMCcsICctaW1hZScsICc8aW5maWxlLm1hZT4nLCAnLW9tYWUnLCAnPG91dGZpbGUubWFlPic=

>  <r_lp_tautomer_probability>  (318) 
1

>  <r_epik_Ionization_Penalty>  (318) 
0.0221059

>  <r_epik_Ionization_Penalty_Charging>  (318) 
0

>  <r_epik_Ionization_Penalty_Neutral>  (318) 
0.0221059

>  <r_epik_State_Penalty>  (318) 
0.0158344

>  <r_epik_Charging_Adjusted_Penalty>  (318) 
0.0158344

>  <i_epik_Tot_Q>  (318) 
0

>  <i_epik_Tot_abs_Q>  (318) 
0

>  <s_lp_Force_Field>  (318) 
OPLS3e

>  <r_lp_Energy>  (318) 
72.7736

>  <b_lp_Chiralities_Consistent>  (318) 
1

>  <s_lp_Variant>  (318) 
110:0-1

>  <s_i_glide_gridfile>  (318) 
pfpi4k_grid

>  <i_i_glide_lignum>  (318) 
21

>  <i_i_glide_rotatable_bonds>  (318) 
1

>  <r_i_docking_score>  (318) 
-4.93245

>  <r_i_glide_ligand_efficiency>  (318) 
-0.214455

>  <r_i_glide_ligand_efficiency_sa>  (318) 
-0.60988

>  <r_i_glide_ligand_efficiency_ln>  (318) 
-1.19271

>  <r_i_glide_gscore>  (318) 
-4.93245

>  <r_i_glide_lipo>  (318) 
-1.34475

>  <r_i_glide_hbond>  (318) 
0

>  <r_i_glide_metal>  (318) 
-0

>  <r_i_glide_rewards>  (318) 
-1.68243

>  <r_i_glide_evdw>  (318) 
-28.6172

>  <r_i_glide_ecoul>  (318) 
-3.16276

>  <r_i_glide_erotb>  (318) 
0

>  <r_i_glide_esite>  (318) 
0

>  <r_i_glide_emodel>  (318) 
-40.8675

>  <r_i_glide_energy>  (318) 
-31.78

>  <r_i_glide_einternal>  (318) 
0.0381302

>  <r_i_glide_intrahb_reward>  (318) 
-0

>  <i_i_glide_confnum>  (318) 
1

>  <i_i_glide_posenum>  (318) 
39

>  <r_i_glide_eff_state_penalty>  (318) 
0

>  <ligand_id>  (318) 
110

>  <original_smiles>  (318) 
Oc1ccc2c3c1OC1c4cccnc4CC4C=CC31C4CC2

>  <smiles>  (318) 
[H]Oc1c([H])c([H])c2c3c1OC1([H])c4c(nc([H])c([H])c4[H])C([H])([H])C4([H])C([H])=C([H])C31C4([H])C([H])([H])C2([H])[H]

$$$$
110:0:1
     RDKit          3D

 40 45  0  0  1  0  0  0  0  0999 V2000
   -7.1063  -12.0271   -6.0300 O   0  0  0  0  0  0  0  0  0  0  0  0
   -7.9929  -11.9663   -7.0571 C   0  0  0  0  0  0  0  0  0  0  0  0
   -8.1841  -13.0958   -7.8784 C   0  0  0  0  0  0  0  0  0  0  0  0
   -8.9019  -12.9728   -9.0961 C   0  0  0  0  0  0  0  0  0  0  0  0
   -9.5611  -11.7633   -9.4186 C   0  0  0  0  0  0  0  0  0  0  0  0
   -9.5246  -10.7556   -8.4279 C   0  0  0  0  0  0  0  0  0  0  0  0
   -8.6391  -10.7549   -7.3608 C   0  0  0  0  0  0  0  0  0  0  0  0
   -8.2961   -9.4896   -6.9740 O   0  0  0  0  0  0  0  0  0  0  0  0
   -8.6779   -8.6546   -8.0983 C   0  0  2  0  0  0  0  0  0  0  0  0
   -8.6647   -7.1574   -7.7822 C   0  0  0  0  0  0  0  0  0  0  0  0
   -7.9914   -6.6899   -6.6334 C   0  0  0  0  0  0  0  0  0  0  0  0
   -7.9588   -5.3178   -6.3514 C   0  0  0  0  0  0  0  0  0  0  0  0
   -8.5891   -4.4465   -7.2499 C   0  0  0  0  0  0  0  0  0  0  0  0
   -9.2481   -4.8687   -8.3456 N   0  0  0  0  0  0  0  0  0  0  0  0
   -9.2673   -6.1931   -8.6315 C   0  0  0  0  0  0  0  0  0  0  0  0
   -9.9705   -6.5698   -9.9417 C   0  0  0  0  0  0  0  0  0  0  0  0
  -11.1105   -7.6156   -9.8350 C   0  0  2  0  0  0  0  0  0  0  0  0
  -11.7146   -7.7410   -8.4456 C   0  0  0  0  0  0  0  0  0  0  0  0
  -11.1680   -8.7609   -7.7769 C   0  0  0  0  0  0  0  0  0  0  0  0
  -10.0061   -9.3362   -8.5629 C   0  0  2  0  0  0  0  0  0  0  0  0
  -10.5888   -9.0586   -9.9316 C   0  0  2  0  0  0  0  0  0  0  0  0
   -9.8681   -9.7491  -11.0706 C   0  0  0  0  0  0  0  0  0  0  0  0
   -9.9780  -11.2823  -10.8170 C   0  0  0  0  0  0  0  0  0  0  0  0
   -7.1069  -11.2233   -5.5296 H   0  0  0  0  0  0  0  0  0  0  0  0
   -7.6447  -13.9990   -7.6368 H   0  0  0  0  0  0  0  0  0  0  0  0
   -8.8281  -13.7752   -9.8107 H   0  0  0  0  0  0  0  0  0  0  0  0
   -7.9279   -8.7873   -8.8799 H   0  0  0  0  0  0  0  0  0  0  0  0
   -7.5354   -7.3867   -5.9489 H   0  0  0  0  0  0  0  0  0  0  0  0
   -7.4796   -4.9440   -5.4629 H   0  0  0  0  0  0  0  0  0  0  0  0
   -8.5528   -3.3813   -7.0975 H   0  0  0  0  0  0  0  0  0  0  0  0
  -10.4154   -5.6657  -10.3564 H   0  0  0  0  0  0  0  0  0  0  0  0
   -9.2331   -6.9030  -10.6734 H   0  0  0  0  0  0  0  0  0  0  0  0
  -11.8969   -7.4516  -10.5721 H   0  0  0  0  0  0  0  0  0  0  0  0
  -12.5269   -7.1266   -8.0844 H   0  0  0  0  0  0  0  0  0  0  0  0
  -11.4831   -9.1166   -6.8096 H   0  0  0  0  0  0  0  0  0  0  0  0
  -11.5240   -9.6254   -9.9667 H   0  0  0  0  0  0  0  0  0  0  0  0
  -10.3343   -9.4909  -12.0174 H   0  0  0  0  0  0  0  0  0  0  0  0
   -8.8292   -9.4203  -11.1100 H   0  0  0  0  0  0  0  0  0  0  0  0
   -9.3475  -11.7900  -11.5374 H   0  0  0  0  0  0  0  0  0  0  0  0
  -10.9978  -11.6276  -10.9833 H   0  0  0  0  0  0  0  0  0  0  0  0
  1  2  1  0
  1 24  1  0
  2  7  2  0
  2  3  1  0
  3  4  2  0
  3 25  1  0
  4  5  1  0
  4 26  1  0
  5 23  1  0
  5  6  2  0
  6 20  1  0
  6  7  1  0
  7  8  1  0
  8  9  1  0
  9 20  1  0
  9 10  1  0
  9 27  1  6
 10 15  2  0
 10 11  1  0
 11 12  2  0
 11 28  1  0
 12 13  1  0
 12 29  1  0
 13 14  2  0
 13 30  1  0
 14 15  1  0
 15 16  1  0
 16 17  1  0
 16 31  1  0
 16 32  1  0
 17 21  1  0
 17 18  1  0
 17 33  1  6
 18 19  2  0
 18 34  1  0
 20 19  1  1
 19 35  1  0
 20 21  1  0
 21 22  1  0
 21 36  1  1
 22 23  1  0
 22 37  1  0
 22 38  1  0
 23 39  1  0
 23 40  1  0
M  END
>  <i_m_ct_stereo_status>  (319) 
1

>  <s_m_source_file>  (319) 
/var/tmp/pbs.5076255.sched01/tmporjl5eer/117expd_qi0.sdf

>  <i_m_source_file_index>  (319) 
21

>  <i_lp_mmshare_version>  (319) 
48012

>  <i_f3d_flags>  (319) 
0

>  <s_epik_input>  (319) 
W0NAQF0xMjNjNGM1W2NIXVtjSF1jKFtPSF0pYzRPW0NAQEhdMWM2YyhuW2NIXVtjSF1bY0hdNilbQ0gyXVtDQEhdKFtDSF09W0NIXTIpW0NASF0zW0NIMl1bQ0gyXTU=

>  <s_epik_cmdline>  (319) 
J2VwaWtfcHl0aG9uJywgJy1waHQnLCAnMi4wJywgJy1waCcsICc3LjAnLCAnLXRuJywgJzgnLCAnLW1hJywgJzIwMCcsICctaW1hZScsICc8aW5maWxlLm1hZT4nLCAnLW9tYWUnLCAnPG91dGZpbGUubWFlPic=

>  <r_lp_tautomer_probability>  (319) 
1

>  <r_epik_Ionization_Penalty>  (319) 
0.0221059

>  <r_epik_Ionization_Penalty_Charging>  (319) 
0

>  <r_epik_Ionization_Penalty_Neutral>  (319) 
0.0221059

>  <r_epik_State_Penalty>  (319) 
0.0158344

>  <r_epik_Charging_Adjusted_Penalty>  (319) 
0.0158344

>  <i_epik_Tot_Q>  (319) 
0

>  <i_epik_Tot_abs_Q>  (319) 
0

>  <s_lp_Force_Field>  (319) 
OPLS3e

>  <r_lp_Energy>  (319) 
72.7736

>  <b_lp_Chiralities_Consistent>  (319) 
1

>  <s_lp_Variant>  (319) 
110:0-1

>  <s_i_glide_gridfile>  (319) 
pfpi4k_grid

>  <i_i_glide_lignum>  (319) 
21

>  <i_i_glide_rotatable_bonds>  (319) 
1

>  <r_i_docking_score>  (319) 
-4.41247

>  <r_i_glide_ligand_efficiency>  (319) 
-0.191846

>  <r_i_glide_ligand_efficiency_sa>  (319) 
-0.545585

>  <r_i_glide_ligand_efficiency_ln>  (319) 
-1.06697

>  <r_i_glide_gscore>  (319) 
-4.41247

>  <r_i_glide_lipo>  (319) 
-1.37019

>  <r_i_glide_hbond>  (319) 
0

>  <r_i_glide_metal>  (319) 
-0

>  <r_i_glide_rewards>  (319) 
-1.64908

>  <r_i_glide_evdw>  (319) 
-19.3837

>  <r_i_glide_ecoul>  (319) 
-2.82669

>  <r_i_glide_erotb>  (319) 
0

>  <r_i_glide_esite>  (319) 
0

>  <r_i_glide_emodel>  (319) 
-30.2857

>  <r_i_glide_energy>  (319) 
-22.2104

>  <r_i_glide_einternal>  (319) 
1.79614e-06

>  <r_i_glide_intrahb_reward>  (319) 
-0

>  <i_i_glide_confnum>  (319) 
2

>  <i_i_glide_posenum>  (319) 
11

>  <r_i_glide_eff_state_penalty>  (319) 
0

>  <ligand_id>  (319) 
110

>  <original_smiles>  (319) 
Oc1ccc2c3c1OC1c4cccnc4CC4C=CC31C4CC2

>  <smiles>  (319) 
[H]Oc1c([H])c([H])c2c3c1OC1([H])c4c(nc([H])c([H])c4[H])C([H])([H])C4([H])C([H])=C([H])C31C4([H])C([H])([H])C2([H])[H]

$$$$
110:0:2
     RDKit          3D

 40 45  0  0  1  0  0  0  0  0999 V2000
   -4.1685  -10.2213   -5.8708 O   0  0  0  0  0  0  0  0  0  0  0  0
   -4.9577  -11.0336   -6.6265 C   0  0  0  0  0  0  0  0  0  0  0  0
   -4.4819  -12.2827   -7.0925 C   0  0  0  0  0  0  0  0  0  0  0  0
   -5.2373  -13.0320   -8.0346 C   0  0  0  0  0  0  0  0  0  0  0  0
   -6.5352  -12.6123   -8.4056 C   0  0  0  0  0  0  0  0  0  0  0  0
   -7.0240  -11.4724   -7.7359 C   0  0  0  0  0  0  0  0  0  0  0  0
   -6.2326  -10.5927   -7.0188 C   0  0  0  0  0  0  0  0  0  0  0  0
   -6.7198   -9.3180   -7.0527 O   0  0  0  0  0  0  0  0  0  0  0  0
   -7.6473   -9.3184   -8.1630 C   0  0  2  0  0  0  0  0  0  0  0  0
   -8.5381   -8.0802   -8.1993 C   0  0  0  0  0  0  0  0  0  0  0  0
   -8.1861   -6.9470   -7.4353 C   0  0  0  0  0  0  0  0  0  0  0  0
   -8.9663   -5.7838   -7.5315 C   0  0  0  0  0  0  0  0  0  0  0  0
  -10.0704   -5.7974   -8.3989 C   0  0  0  0  0  0  0  0  0  0  0  0
  -10.4159   -6.8661   -9.1443 N   0  0  0  0  0  0  0  0  0  0  0  0
   -9.6711   -7.9912   -9.0489 C   0  0  0  0  0  0  0  0  0  0  0  0
  -10.1286   -9.1481   -9.9427 C   0  0  0  0  0  0  0  0  0  0  0  0
  -10.3577  -10.5159   -9.2439 C   0  0  2  0  0  0  0  0  0  0  0  0
  -10.5877  -10.4177   -7.7414 C   0  0  0  0  0  0  0  0  0  0  0  0
   -9.4499  -10.6237   -7.0578 C   0  0  0  0  0  0  0  0  0  0  0  0
   -8.2953  -10.7312   -8.0290 C   0  0  2  0  0  0  0  0  0  0  0  0
   -9.0799  -11.3607   -9.1657 C   0  0  2  0  0  0  0  0  0  0  0  0
   -8.2255  -11.9038  -10.2911 C   0  0  0  0  0  0  0  0  0  0  0  0
   -7.3140  -13.0093   -9.6719 C   0  0  0  0  0  0  0  0  0  0  0  0
   -3.3700  -10.6309   -5.5763 H   0  0  0  0  0  0  0  0  0  0  0  0
   -3.4853  -12.6040   -6.8258 H   0  0  0  0  0  0  0  0  0  0  0  0
   -4.7809  -13.8752   -8.5285 H   0  0  0  0  0  0  0  0  0  0  0  0
   -7.0679   -9.2892   -9.0877 H   0  0  0  0  0  0  0  0  0  0  0  0
   -7.3240   -6.9570   -6.7879 H   0  0  0  0  0  0  0  0  0  0  0  0
   -8.7222   -4.9055   -6.9546 H   0  0  0  0  0  0  0  0  0  0  0  0
  -10.6835   -4.9172   -8.5074 H   0  0  0  0  0  0  0  0  0  0  0  0
  -11.0821   -8.8597  -10.3902 H   0  0  0  0  0  0  0  0  0  0  0  0
   -9.4340   -9.2594  -10.7751 H   0  0  0  0  0  0  0  0  0  0  0  0
  -11.1476  -11.0897   -9.7289 H   0  0  0  0  0  0  0  0  0  0  0  0
  -11.5610  -10.2469   -7.3051 H   0  0  0  0  0  0  0  0  0  0  0  0
   -9.3392  -10.6412   -5.9827 H   0  0  0  0  0  0  0  0  0  0  0  0
   -9.4658  -12.3081   -8.7727 H   0  0  0  0  0  0  0  0  0  0  0  0
   -8.8386  -12.3193  -11.0910 H   0  0  0  0  0  0  0  0  0  0  0  0
   -7.6525  -11.0852  -10.7155 H   0  0  0  0  0  0  0  0  0  0  0  0
   -6.5930  -13.3244  -10.4223 H   0  0  0  0  0  0  0  0  0  0  0  0
   -7.9042  -13.8902   -9.4218 H   0  0  0  0  0  0  0  0  0  0  0  0
  1  2  1  0
  1 24  1  0
  2  7  2  0
  2  3  1  0
  3  4  2  0
  3 25  1  0
  4  5  1  0
  4 26  1  0
  5 23  1  0
  5  6  2  0
  6 20  1  0
  6  7  1  0
  7  8  1  0
  8  9  1  0
  9 20  1  0
  9 10  1  0
  9 27  1  6
 10 15  2  0
 10 11  1  0
 11 12  2  0
 11 28  1  0
 12 13  1  0
 12 29  1  0
 13 14  2  0
 13 30  1  0
 14 15  1  0
 15 16  1  0
 16 17  1  0
 16 31  1  0
 16 32  1  0
 17 21  1  0
 17 18  1  0
 17 33  1  6
 18 19  2  0
 18 34  1  0
 20 19  1  1
 19 35  1  0
 20 21  1  0
 21 22  1  0
 21 36  1  1
 22 23  1  0
 22 37  1  0
 22 38  1  0
 23 39  1  0
 23 40  1  0
M  END
>  <i_m_ct_stereo_status>  (320) 
1

>  <s_m_source_file>  (320) 
/var/tmp/pbs.5076255.sched01/tmporjl5eer/117expd_qi0.sdf

>  <i_m_source_file_index>  (320) 
21

>  <i_lp_mmshare_version>  (320) 
48012

>  <i_f3d_flags>  (320) 
0

>  <s_epik_input>  (320) 
W0NAQF0xMjNjNGM1W2NIXVtjSF1jKFtPSF0pYzRPW0NAQEhdMWM2YyhuW2NIXVtjSF1bY0hdNilbQ0gyXVtDQEhdKFtDSF09W0NIXTIpW0NASF0zW0NIMl1bQ0gyXTU=

>  <s_epik_cmdline>  (320) 
J2VwaWtfcHl0aG9uJywgJy1waHQnLCAnMi4wJywgJy1waCcsICc3LjAnLCAnLXRuJywgJzgnLCAnLW1hJywgJzIwMCcsICctaW1hZScsICc8aW5maWxlLm1hZT4nLCAnLW9tYWUnLCAnPG91dGZpbGUubWFlPic=

>  <r_lp_tautomer_probability>  (320) 
1

>  <r_epik_Ionization_Penalty>  (320) 
0.0221059

>  <r_epik_Ionization_Penalty_Charging>  (320) 
0

>  <r_epik_Ionization_Penalty_Neutral>  (320) 
0.0221059

>  <r_epik_State_Penalty>  (320) 
0.0158344

>  <r_epik_Charging_Adjusted_Penalty>  (320) 
0.0158344

>  <i_epik_Tot_Q>  (320) 
0

>  <i_epik_Tot_abs_Q>  (320) 
0

>  <s_lp_Force_Field>  (320) 
OPLS3e

>  <r_lp_Energy>  (320) 
72.7736

>  <b_lp_Chiralities_Consistent>  (320) 
1

>  <s_lp_Variant>  (320) 
110:0-1

>  <s_i_glide_gridfile>  (320) 
pfpi4k_grid

>  <i_i_glide_lignum>  (320) 
21

>  <i_i_glide_rotatable_bonds>  (320) 
1

>  <r_i_docking_score>  (320) 
-3.99133

>  <r_i_glide_ligand_efficiency>  (320) 
-0.173536

>  <r_i_glide_ligand_efficiency_sa>  (320) 
-0.493513

>  <r_i_glide_ligand_efficiency_ln>  (320) 
-0.96514

>  <r_i_glide_gscore>  (320) 
-3.99133

>  <r_i_glide_lipo>  (320) 
-0.997057

>  <r_i_glide_hbond>  (320) 
0

>  <r_i_glide_metal>  (320) 
-0

>  <r_i_glide_rewards>  (320) 
-1.6241

>  <r_i_glide_evdw>  (320) 
-25.3498

>  <r_i_glide_ecoul>  (320) 
-0.684548

>  <r_i_glide_erotb>  (320) 
0

>  <r_i_glide_esite>  (320) 
0

>  <r_i_glide_emodel>  (320) 
-33.2717

>  <r_i_glide_energy>  (320) 
-26.0344

>  <r_i_glide_einternal>  (320) 
0.115618

>  <r_i_glide_intrahb_reward>  (320) 
-0

>  <i_i_glide_confnum>  (320) 
1

>  <i_i_glide_posenum>  (320) 
19

>  <r_i_glide_eff_state_penalty>  (320) 
0

>  <ligand_id>  (320) 
110

>  <original_smiles>  (320) 
Oc1ccc2c3c1OC1c4cccnc4CC4C=CC31C4CC2

>  <smiles>  (320) 
[H]Oc1c([H])c([H])c2c3c1OC1([H])c4c(nc([H])c([H])c4[H])C([H])([H])C4([H])C([H])=C([H])C31C4([H])C([H])([H])C2([H])[H]

$$$$
110:1:0
     RDKit          3D

 41 46  0  0  1  0  0  0  0  0999 V2000
   -5.7179   -6.9027   -5.0685 O   0  0  0  0  0  0  0  0  0  0  0  0
   -5.5867   -8.1990   -5.4725 C   0  0  0  0  0  0  0  0  0  0  0  0
   -4.3717   -8.8930   -5.2841 C   0  0  0  0  0  0  0  0  0  0  0  0
   -4.1772  -10.1723   -5.8686 C   0  0  0  0  0  0  0  0  0  0  0  0
   -5.2351  -10.8322   -6.5268 C   0  0  0  0  0  0  0  0  0  0  0  0
   -6.4820  -10.1740   -6.4728 C   0  0  0  0  0  0  0  0  0  0  0  0
   -6.6440   -8.8447   -6.1352 C   0  0  0  0  0  0  0  0  0  0  0  0
   -7.7188   -8.2806   -6.7629 O   0  0  0  0  0  0  0  0  0  0  0  0
   -8.0011   -9.1923   -7.8524 C   0  0  2  0  0  0  0  0  0  0  0  0
   -9.3426   -8.9254   -8.5306 C   0  0  0  0  0  0  0  0  0  0  0  0
   -9.9889   -7.6859   -8.3219 C   0  0  0  0  0  0  0  0  0  0  0  0
  -11.1776   -7.3906   -9.0074 C   0  0  0  0  0  0  0  0  0  0  0  0
  -11.6932   -8.3377   -9.9093 C   0  0  0  0  0  0  0  0  0  0  0  0
  -11.0555   -9.5152  -10.0898 N   0  0  0  0  0  0  0  0  0  0  0  0
   -9.9135   -9.8522   -9.4455 C   0  0  0  0  0  0  0  0  0  0  0  0
   -9.3015  -11.2168   -9.7820 C   0  0  0  0  0  0  0  0  0  0  0  0
   -8.9326  -12.1266   -8.5828 C   0  0  2  0  0  0  0  0  0  0  0  0
   -9.7085  -11.8133   -7.3126 C   0  0  0  0  0  0  0  0  0  0  0  0
   -9.0087  -11.0138   -6.4911 C   0  0  0  0  0  0  0  0  0  0  0  0
   -7.7369  -10.5765   -7.1908 C   0  0  2  0  0  0  0  0  0  0  0  0
   -7.5393  -11.8331   -8.0194 C   0  0  2  0  0  0  0  0  0  0  0  0
   -6.1916  -11.9311   -8.7108 C   0  0  0  0  0  0  0  0  0  0  0  0
   -5.1142  -11.9447   -7.5821 C   0  0  0  0  0  0  0  0  0  0  0  0
   -6.5924   -6.5708   -5.2137 H   0  0  0  0  0  0  0  0  0  0  0  0
   -3.5466   -8.3851   -4.8070 H   0  0  0  0  0  0  0  0  0  0  0  0
   -3.1773  -10.5791   -5.8956 H   0  0  0  0  0  0  0  0  0  0  0  0
   -7.2431   -9.0285   -8.6212 H   0  0  0  0  0  0  0  0  0  0  0  0
   -9.5662   -6.9572   -7.6440 H   0  0  0  0  0  0  0  0  0  0  0  0
  -11.6896   -6.4523   -8.8453 H   0  0  0  0  0  0  0  0  0  0  0  0
  -12.5896   -8.1803  -10.4877 H   0  0  0  0  0  0  0  0  0  0  0  0
  -10.0406  -11.7654  -10.3649 H   0  0  0  0  0  0  0  0  0  0  0  0
   -8.4379  -11.0869  -10.4369 H   0  0  0  0  0  0  0  0  0  0  0  0
   -9.0130  -13.1842   -8.8347 H   0  0  0  0  0  0  0  0  0  0  0  0
  -10.6824  -12.2282   -7.1165 H   0  0  0  0  0  0  0  0  0  0  0  0
   -9.3125  -10.6587   -5.5162 H   0  0  0  0  0  0  0  0  0  0  0  0
   -7.4203  -12.6467   -7.2977 H   0  0  0  0  0  0  0  0  0  0  0  0
   -6.1234  -12.8384   -9.3134 H   0  0  0  0  0  0  0  0  0  0  0  0
   -6.0664  -11.0812   -9.3784 H   0  0  0  0  0  0  0  0  0  0  0  0
   -4.1344  -11.8686   -8.0425 H   0  0  0  0  0  0  0  0  0  0  0  0
   -5.1335  -12.8922   -7.0481 H   0  0  0  0  0  0  0  0  0  0  0  0
  -11.4453  -10.1756  -10.7607 H   0  0  0  0  0  0  0  0  0  0  0  0
  1  2  1  0
  1 24  1  0
  2  7  2  0
  2  3  1  0
  3  4  2  0
  3 25  1  0
  4  5  1  0
  4 26  1  0
  5 23  1  0
  5  6  2  0
  6 20  1  0
  6  7  1  0
  7  8  1  0
  8  9  1  0
  9 20  1  0
  9 10  1  0
  9 27  1  6
 10 15  2  0
 10 11  1  0
 11 12  2  0
 11 28  1  0
 12 13  1  0
 12 29  1  0
 13 14  2  0
 13 30  1  0
 14 15  1  0
 14 41  1  0
 15 16  1  0
 16 17  1  0
 16 31  1  0
 16 32  1  0
 17 21  1  0
 17 18  1  0
 17 33  1  6
 18 19  2  0
 18 34  1  0
 20 19  1  1
 19 35  1  0
 20 21  1  0
 21 22  1  0
 21 36  1  1
 22 23  1  0
 22 37  1  0
 22 38  1  0
 23 39  1  0
 23 40  1  0
M  CHG  1  14   1
M  END
>  <i_m_ct_stereo_status>  (321) 
1

>  <s_m_source_file>  (321) 
/var/tmp/pbs.5076255.sched01/tmporjl5eer/117expd_qi0.sdf

>  <i_m_source_file_index>  (321) 
22

>  <i_lp_mmshare_version>  (321) 
48012

>  <i_f3d_flags>  (321) 
0

>  <s_epik_input>  (321) 
W0NAQF0xMjNjNGM1W2NIXVtjSF1jKFtPSF0pYzRPW0NAQEhdMWM2YyhuW2NIXVtjSF1bY0hdNilbQ0gyXVtDQEhdKFtDSF09W0NIXTIpW0NASF0zW0NIMl1bQ0gyXTU=

>  <s_epik_cmdline>  (321) 
J2VwaWtfcHl0aG9uJywgJy1waHQnLCAnMi4wJywgJy1waCcsICc3LjAnLCAnLXRuJywgJzgnLCAnLW1hJywgJzIwMCcsICctaW1hZScsICc8aW5maWxlLm1hZT4nLCAnLW9tYWUnLCAnPG91dGZpbGUubWFlPic=

>  <r_lp_tautomer_probability>  (321) 
1

>  <r_epik_Ionization_Penalty>  (321) 
2.02727

>  <r_epik_Ionization_Penalty_Charging>  (321) 
2.02352

>  <r_epik_Ionization_Penalty_Neutral>  (321) 
0.00375077

>  <r_epik_State_Penalty>  (321) 
2.15397

>  <r_epik_Charging_Adjusted_Penalty>  (321) 
4.17749

>  <i_epik_Tot_Q>  (321) 
1

>  <i_epik_Tot_abs_Q>  (321) 
1

>  <s_lp_Force_Field>  (321) 
OPLS3e

>  <r_lp_Energy>  (321) 
76.0875

>  <b_lp_Chiralities_Consistent>  (321) 
1

>  <s_lp_Variant>  (321) 
110:0-2

>  <s_i_glide_gridfile>  (321) 
pfpi4k_grid

>  <i_i_glide_lignum>  (321) 
22

>  <i_i_glide_rotatable_bonds>  (321) 
1

>  <r_i_docking_score>  (321) 
-4.73583

>  <r_i_glide_ligand_efficiency>  (321) 
-0.205906

>  <r_i_glide_ligand_efficiency_sa>  (321) 
-0.585568

>  <r_i_glide_ligand_efficiency_ln>  (321) 
-1.14517

>  <r_i_glide_gscore>  (321) 
-4.73583

>  <r_i_glide_lipo>  (321) 
-1.44107

>  <r_i_glide_hbond>  (321) 
0

>  <r_i_glide_metal>  (321) 
-0

>  <r_i_glide_rewards>  (321) 
-1.55056

>  <r_i_glide_evdw>  (321) 
-26.8707

>  <r_i_glide_ecoul>  (321) 
-2.66879

>  <r_i_glide_erotb>  (321) 
0

>  <r_i_glide_esite>  (321) 
-0.00034905

>  <r_i_glide_emodel>  (321) 
-37.5605

>  <r_i_glide_energy>  (321) 
-29.5395

>  <r_i_glide_einternal>  (321) 
0.00382972

>  <r_i_glide_intrahb_reward>  (321) 
-0

>  <i_i_glide_confnum>  (321) 
1

>  <i_i_glide_posenum>  (321) 
31

>  <r_i_glide_eff_state_penalty>  (321) 
0

>  <ligand_id>  (321) 
110

>  <original_smiles>  (321) 
Oc1ccc2c3c1OC1c4cccnc4CC4C=CC31C4CC2

>  <smiles>  (321) 
[H]Oc1c([H])c([H])c2c3c1OC1([H])c4c([H])c([H])c([H])[n+]([H])c4C([H])([H])C4([H])C([H])=C([H])C31C4([H])C([H])([H])C2([H])[H]

$$$$
110:1:1
     RDKit          3D

 41 46  0  0  1  0  0  0  0  0999 V2000
   -7.5261  -11.4920   -7.6927 O   0  0  0  0  0  0  0  0  0  0  0  0
   -8.0569  -10.6106   -8.5817 C   0  0  0  0  0  0  0  0  0  0  0  0
   -8.2301  -10.9729   -9.9278 C   0  0  0  0  0  0  0  0  0  0  0  0
   -8.6457  -10.0176  -10.8855 C   0  0  0  0  0  0  0  0  0  0  0  0
   -8.9662   -8.6960  -10.5121 C   0  0  0  0  0  0  0  0  0  0  0  0
   -8.9392   -8.4697   -9.1322 C   0  0  0  0  0  0  0  0  0  0  0  0
   -8.3672   -9.2885   -8.1932 C   0  0  0  0  0  0  0  0  0  0  0  0
   -7.9428   -8.6016   -7.0902 O   0  0  0  0  0  0  0  0  0  0  0  0
   -7.9065   -7.2316   -7.5343 C   0  0  2  0  0  0  0  0  0  0  0  0
   -7.6977   -6.2367   -6.3931 C   0  0  0  0  0  0  0  0  0  0  0  0
   -7.1646   -6.6911   -5.1774 C   0  0  0  0  0  0  0  0  0  0  0  0
   -6.8155   -5.7672   -4.1896 C   0  0  0  0  0  0  0  0  0  0  0  0
   -7.1164   -4.4154   -4.3591 C   0  0  0  0  0  0  0  0  0  0  0  0
   -7.6414   -4.0014   -5.5209 N   0  0  0  0  0  0  0  0  0  0  0  0
   -7.8876   -4.8432   -6.5469 C   0  0  0  0  0  0  0  0  0  0  0  0
   -8.3612   -4.2168   -7.8219 C   0  0  0  0  0  0  0  0  0  0  0  0
   -9.5387   -4.9317   -8.4296 C   0  0  2  0  0  0  0  0  0  0  0  0
  -10.5454   -5.5743   -7.5308 C   0  0  0  0  0  0  0  0  0  0  0  0
  -10.4249   -6.8861   -7.6766 C   0  0  0  0  0  0  0  0  0  0  0  0
   -9.1583   -7.1744   -8.4636 C   0  0  2  0  0  0  0  0  0  0  0  0
   -9.2990   -6.0363   -9.4188 C   0  0  2  0  0  0  0  0  0  0  0  0
   -8.4579   -6.0781  -10.6685 C   0  0  0  0  0  0  0  0  0  0  0  0
   -8.8816   -7.4095  -11.3738 C   0  0  0  0  0  0  0  0  0  0  0  0
   -7.6921  -11.2243   -6.8009 H   0  0  0  0  0  0  0  0  0  0  0  0
   -7.8922  -11.9405  -10.2697 H   0  0  0  0  0  0  0  0  0  0  0  0
   -8.5202  -10.2675  -11.9228 H   0  0  0  0  0  0  0  0  0  0  0  0
   -7.0178   -7.1132   -8.1519 H   0  0  0  0  0  0  0  0  0  0  0  0
   -7.0514   -7.7515   -4.9870 H   0  0  0  0  0  0  0  0  0  0  0  0
   -6.4745   -6.1027   -3.2181 H   0  0  0  0  0  0  0  0  0  0  0  0
   -6.9553   -3.6713   -3.5990 H   0  0  0  0  0  0  0  0  0  0  0  0
   -8.6420   -3.1894   -7.6117 H   0  0  0  0  0  0  0  0  0  0  0  0
   -7.6417   -4.1558   -8.6250 H   0  0  0  0  0  0  0  0  0  0  0  0
  -10.1461   -4.2627   -8.9618 H   0  0  0  0  0  0  0  0  0  0  0  0
  -11.2853   -4.9589   -7.0384 H   0  0  0  0  0  0  0  0  0  0  0  0
  -11.0059   -7.6008   -7.1188 H   0  0  0  0  0  0  0  0  0  0  0  0
  -10.2885   -6.1452   -9.8887 H   0  0  0  0  0  0  0  0  0  0  0  0
   -8.6381   -5.2107  -11.3219 H   0  0  0  0  0  0  0  0  0  0  0  0
   -7.4102   -6.0836  -10.3815 H   0  0  0  0  0  0  0  0  0  0  0  0
   -8.1713   -7.5604  -12.1814 H   0  0  0  0  0  0  0  0  0  0  0  0
   -9.8617   -7.2920  -11.8299 H   0  0  0  0  0  0  0  0  0  0  0  0
   -7.7959   -3.0010   -5.6647 H   0  0  0  0  0  0  0  0  0  0  0  0
  1  2  1  0
  1 24  1  0
  2  7  2  0
  2  3  1  0
  3  4  2  0
  3 25  1  0
  4  5  1  0
  4 26  1  0
  5 23  1  0
  5  6  2  0
  6 20  1  0
  6  7  1  0
  7  8  1  0
  8  9  1  0
  9 20  1  0
  9 10  1  0
  9 27  1  6
 10 15  2  0
 10 11  1  0
 11 12  2  0
 11 28  1  0
 12 13  1  0
 12 29  1  0
 13 14  2  0
 13 30  1  0
 14 15  1  0
 14 41  1  0
 15 16  1  0
 16 17  1  0
 16 31  1  0
 16 32  1  0
 17 21  1  0
 17 18  1  0
 17 33  1  6
 18 19  2  0
 18 34  1  0
 20 19  1  1
 19 35  1  0
 20 21  1  0
 21 22  1  0
 21 36  1  6
 22 23  1  0
 22 37  1  0
 22 38  1  0
 23 39  1  0
 23 40  1  0
M  CHG  1  14   1
M  END
>  <i_m_ct_stereo_status>  (322) 
1

>  <s_m_source_file>  (322) 
/var/tmp/pbs.5076255.sched01/tmporjl5eer/117expd_qi0.sdf

>  <i_m_source_file_index>  (322) 
22

>  <i_lp_mmshare_version>  (322) 
48012

>  <i_f3d_flags>  (322) 
0

>  <s_epik_input>  (322) 
W0NAQF0xMjNjNGM1W2NIXVtjSF1jKFtPSF0pYzRPW0NAQEhdMWM2YyhuW2NIXVtjSF1bY0hdNilbQ0gyXVtDQEhdKFtDSF09W0NIXTIpW0NASF0zW0NIMl1bQ0gyXTU=

>  <s_epik_cmdline>  (322) 
J2VwaWtfcHl0aG9uJywgJy1waHQnLCAnMi4wJywgJy1waCcsICc3LjAnLCAnLXRuJywgJzgnLCAnLW1hJywgJzIwMCcsICctaW1hZScsICc8aW5maWxlLm1hZT4nLCAnLW9tYWUnLCAnPG91dGZpbGUubWFlPic=

>  <r_lp_tautomer_probability>  (322) 
1

>  <r_epik_Ionization_Penalty>  (322) 
2.02727

>  <r_epik_Ionization_Penalty_Charging>  (322) 
2.02352

>  <r_epik_Ionization_Penalty_Neutral>  (322) 
0.00375077

>  <r_epik_State_Penalty>  (322) 
2.15397

>  <r_epik_Charging_Adjusted_Penalty>  (322) 
4.17749

>  <i_epik_Tot_Q>  (322) 
1

>  <i_epik_Tot_abs_Q>  (322) 
1

>  <s_lp_Force_Field>  (322) 
OPLS3e

>  <r_lp_Energy>  (322) 
76.0875

>  <b_lp_Chiralities_Consistent>  (322) 
1

>  <s_lp_Variant>  (322) 
110:0-2

>  <s_i_glide_gridfile>  (322) 
pfpi4k_grid

>  <i_i_glide_lignum>  (322) 
22

>  <i_i_glide_rotatable_bonds>  (322) 
1

>  <r_i_docking_score>  (322) 
-4.53902

>  <r_i_glide_ligand_efficiency>  (322) 
-0.197349

>  <r_i_glide_ligand_efficiency_sa>  (322) 
-0.561233

>  <r_i_glide_ligand_efficiency_ln>  (322) 
-1.09758

>  <r_i_glide_gscore>  (322) 
-4.53902

>  <r_i_glide_lipo>  (322) 
-2.54793

>  <r_i_glide_hbond>  (322) 
0

>  <r_i_glide_metal>  (322) 
-0

>  <r_i_glide_rewards>  (322) 
-1.835

>  <r_i_glide_evdw>  (322) 
-0.717378

>  <r_i_glide_ecoul>  (322) 
-0.943788

>  <r_i_glide_erotb>  (322) 
0

>  <r_i_glide_esite>  (322) 
0

>  <r_i_glide_emodel>  (322) 
-5.31244

>  <r_i_glide_energy>  (322) 
-1.66117

>  <r_i_glide_einternal>  (322) 
0.455316

>  <r_i_glide_intrahb_reward>  (322) 
-0

>  <i_i_glide_confnum>  (322) 
1

>  <i_i_glide_posenum>  (322) 
32

>  <r_i_glide_eff_state_penalty>  (322) 
0

>  <ligand_id>  (322) 
110

>  <original_smiles>  (322) 
Oc1ccc2c3c1OC1c4cccnc4CC4C=CC31C4CC2

>  <smiles>  (322) 
[H]Oc1c([H])c([H])c2c3c1OC1([H])c4c([H])c([H])c([H])[n+]([H])c4C([H])([H])C4([H])C([H])=C([H])C31C4([H])C([H])([H])C2([H])[H]

$$$$
110:1:2
     RDKit          3D

 41 46  0  0  1  0  0  0  0  0999 V2000
   -4.0185  -10.4864   -5.9112 O   0  0  0  0  0  0  0  0  0  0  0  0
   -4.8668  -11.2070   -6.6971 C   0  0  0  0  0  0  0  0  0  0  0  0
   -4.4458  -12.4244   -7.2811 C   0  0  0  0  0  0  0  0  0  0  0  0
   -5.2572  -13.0759   -8.2502 C   0  0  0  0  0  0  0  0  0  0  0  0
   -6.5537  -12.5914   -8.5379 C   0  0  0  0  0  0  0  0  0  0  0  0
   -6.9837  -11.4976   -7.7583 C   0  0  0  0  0  0  0  0  0  0  0  0
   -6.1418  -10.7021   -7.0011 C   0  0  0  0  0  0  0  0  0  0  0  0
   -6.5869   -9.4117   -6.9218 O   0  0  0  0  0  0  0  0  0  0  0  0
   -7.5471   -9.3027   -8.0022 C   0  0  2  0  0  0  0  0  0  0  0  0
   -8.3921   -8.0323   -7.9348 C   0  0  0  0  0  0  0  0  0  0  0  0
   -7.9537   -6.9550   -7.1289 C   0  0  0  0  0  0  0  0  0  0  0  0
   -8.6715   -5.7458   -7.1299 C   0  0  0  0  0  0  0  0  0  0  0  0
   -9.8172   -5.6351   -7.9385 C   0  0  0  0  0  0  0  0  0  0  0  0
  -10.2136   -6.6803   -8.6966 N   0  0  0  0  0  0  0  0  0  0  0  0
   -9.5560   -7.8649   -8.7342 C   0  0  0  0  0  0  0  0  0  0  0  0
  -10.1179   -8.9396   -9.6710 C   0  0  0  0  0  0  0  0  0  0  0  0
  -10.3420  -10.3479   -9.0594 C   0  0  2  0  0  0  0  0  0  0  0  0
  -10.5084  -10.3521   -7.5460 C   0  0  0  0  0  0  0  0  0  0  0  0
   -9.3519  -10.6317   -6.9226 C   0  0  0  0  0  0  0  0  0  0  0  0
   -8.2391  -10.6985   -7.9474 C   0  0  2  0  0  0  0  0  0  0  0  0
   -9.0839  -11.2193   -9.0966 C   0  0  2  0  0  0  0  0  0  0  0  0
   -8.2934  -11.6940  -10.2969 C   0  0  0  0  0  0  0  0  0  0  0  0
   -7.3875  -12.8660   -9.8024 C   0  0  0  0  0  0  0  0  0  0  0  0
   -4.4370   -9.7638   -5.4671 H   0  0  0  0  0  0  0  0  0  0  0  0
   -3.4498  -12.7855   -7.0701 H   0  0  0  0  0  0  0  0  0  0  0  0
   -4.8431  -13.8917   -8.8224 H   0  0  0  0  0  0  0  0  0  0  0  0
   -6.9905   -9.2308   -8.9395 H   0  0  0  0  0  0  0  0  0  0  0  0
   -7.0665   -7.0491   -6.5197 H   0  0  0  0  0  0  0  0  0  0  0  0
   -8.3508   -4.9211   -6.5108 H   0  0  0  0  0  0  0  0  0  0  0  0
  -10.4248   -4.7464   -7.9942 H   0  0  0  0  0  0  0  0  0  0  0  0
  -11.0940   -8.5927  -10.0110 H   0  0  0  0  0  0  0  0  0  0  0  0
   -9.4999   -9.0087  -10.5678 H   0  0  0  0  0  0  0  0  0  0  0  0
  -11.1655  -10.8699   -9.5466 H   0  0  0  0  0  0  0  0  0  0  0  0
  -11.4598  -10.1874   -7.0641 H   0  0  0  0  0  0  0  0  0  0  0  0
   -9.1997  -10.7103   -5.8548 H   0  0  0  0  0  0  0  0  0  0  0  0
   -9.4772  -12.1838   -8.7620 H   0  0  0  0  0  0  0  0  0  0  0  0
   -8.9498  -12.0347  -11.0984 H   0  0  0  0  0  0  0  0  0  0  0  0
   -7.7245  -10.8556  -10.6876 H   0  0  0  0  0  0  0  0  0  0  0  0
   -6.7033  -13.1377  -10.6004 H   0  0  0  0  0  0  0  0  0  0  0  0
   -7.9922  -13.7482   -9.5995 H   0  0  0  0  0  0  0  0  0  0  0  0
  -11.0475   -6.5713   -9.2749 H   0  0  0  0  0  0  0  0  0  0  0  0
  1  2  1  0
  1 24  1  0
  2  7  2  0
  2  3  1  0
  3  4  2  0
  3 25  1  0
  4  5  1  0
  4 26  1  0
  5 23  1  0
  5  6  2  0
  6 20  1  0
  6  7  1  0
  7  8  1  0
  8  9  1  0
  9 20  1  0
  9 10  1  0
  9 27  1  6
 10 15  2  0
 10 11  1  0
 11 12  2  0
 11 28  1  0
 12 13  1  0
 12 29  1  0
 13 14  2  0
 13 30  1  0
 14 15  1  0
 14 41  1  0
 15 16  1  0
 16 17  1  0
 16 31  1  0
 16 32  1  0
 17 21  1  0
 17 18  1  0
 17 33  1  6
 18 19  2  0
 18 34  1  0
 20 19  1  1
 19 35  1  0
 20 21  1  0
 21 22  1  0
 21 36  1  1
 22 23  1  0
 22 37  1  0
 22 38  1  0
 23 39  1  0
 23 40  1  0
M  CHG  1  14   1
M  END
>  <i_m_ct_stereo_status>  (323) 
1

>  <s_m_source_file>  (323) 
/var/tmp/pbs.5076255.sched01/tmporjl5eer/117expd_qi0.sdf

>  <i_m_source_file_index>  (323) 
22

>  <i_lp_mmshare_version>  (323) 
48012

>  <i_f3d_flags>  (323) 
0

>  <s_epik_input>  (323) 
W0NAQF0xMjNjNGM1W2NIXVtjSF1jKFtPSF0pYzRPW0NAQEhdMWM2YyhuW2NIXVtjSF1bY0hdNilbQ0gyXVtDQEhdKFtDSF09W0NIXTIpW0NASF0zW0NIMl1bQ0gyXTU=

>  <s_epik_cmdline>  (323) 
J2VwaWtfcHl0aG9uJywgJy1waHQnLCAnMi4wJywgJy1waCcsICc3LjAnLCAnLXRuJywgJzgnLCAnLW1hJywgJzIwMCcsICctaW1hZScsICc8aW5maWxlLm1hZT4nLCAnLW9tYWUnLCAnPG91dGZpbGUubWFlPic=

>  <r_lp_tautomer_probability>  (323) 
1

>  <r_epik_Ionization_Penalty>  (323) 
2.02727

>  <r_epik_Ionization_Penalty_Charging>  (323) 
2.02352

>  <r_epik_Ionization_Penalty_Neutral>  (323) 
0.00375077

>  <r_epik_State_Penalty>  (323) 
2.15397

>  <r_epik_Charging_Adjusted_Penalty>  (323) 
4.17749

>  <i_epik_Tot_Q>  (323) 
1

>  <i_epik_Tot_abs_Q>  (323) 
1

>  <s_lp_Force_Field>  (323) 
OPLS3e

>  <r_lp_Energy>  (323) 
76.0875

>  <b_lp_Chiralities_Consistent>  (323) 
1

>  <s_lp_Variant>  (323) 
110:0-2

>  <s_i_glide_gridfile>  (323) 
pfpi4k_grid

>  <i_i_glide_lignum>  (323) 
22

>  <i_i_glide_rotatable_bonds>  (323) 
1

>  <r_i_docking_score>  (323) 
-3.96675

>  <r_i_glide_ligand_efficiency>  (323) 
-0.172468

>  <r_i_glide_ligand_efficiency_sa>  (323) 
-0.490475

>  <r_i_glide_ligand_efficiency_ln>  (323) 
-0.959197

>  <r_i_glide_gscore>  (323) 
-3.96675

>  <r_i_glide_lipo>  (323) 
-1.11945

>  <r_i_glide_hbond>  (323) 
0

>  <r_i_glide_metal>  (323) 
-0

>  <r_i_glide_rewards>  (323) 
-1.62556

>  <r_i_glide_evdw>  (323) 
-24.0345

>  <r_i_glide_ecoul>  (323) 
-0.0809545

>  <r_i_glide_erotb>  (323) 
0

>  <r_i_glide_esite>  (323) 
-0.00787875

>  <r_i_glide_emodel>  (323) 
-30.6926

>  <r_i_glide_energy>  (323) 
-24.1155

>  <r_i_glide_einternal>  (323) 
0.161981

>  <r_i_glide_intrahb_reward>  (323) 
-0

>  <i_i_glide_confnum>  (323) 
1

>  <i_i_glide_posenum>  (323) 
5

>  <r_i_glide_eff_state_penalty>  (323) 
0

>  <ligand_id>  (323) 
110

>  <original_smiles>  (323) 
Oc1ccc2c3c1OC1c4cccnc4CC4C=CC31C4CC2

>  <smiles>  (323) 
[H]Oc1c([H])c([H])c2c3c1OC1([H])c4c([H])c([H])c([H])[n+]([H])c4C([H])([H])C4([H])C([H])=C([H])C31C4([H])C([H])([H])C2([H])[H]

$$$$
111:0:0
     RDKit          3D

 89 94  0  0  1  0  0  0  0  0999 V2000
   -1.0270   -9.3996    2.4804 C   0  0  0  0  0  0  0  0  0  0  0  0
    0.3656   -9.1731    3.1088 C   0  0  2  0  0  0  0  0  0  0  0  0
    0.7342  -10.4128    3.9813 C   0  0  0  0  0  0  0  0  0  0  0  0
    1.8537  -10.2001    5.0244 C   0  0  0  0  0  0  0  0  0  0  0  0
    1.5813   -8.9267    5.8544 C   0  0  1  0  0  0  0  0  0  0  0  0
    0.2276   -9.1814    6.5924 C   0  0  0  0  0  0  0  0  0  0  0  0
    2.6552   -8.6528    6.9247 C   0  0  0  0  0  0  0  0  0  0  0  0
    2.4051   -7.3179    7.6873 C   0  0  0  0  0  0  0  0  0  0  0  0
    1.9066   -6.0947    6.8300 C   0  0  2  0  0  0  0  0  0  0  0  0
    0.3743   -5.8877    7.0060 C   0  0  0  0  0  0  0  0  0  0  0  0
    2.2002   -6.4200    5.3550 C   0  0  0  0  0  0  0  0  0  0  0  0
    3.0940   -5.7124    4.6229 C   0  0  0  0  0  0  0  0  0  0  0  0
    3.8904   -4.6191    5.1954 C   0  0  0  0  0  0  0  0  0  0  0  0
    4.3671   -3.7359    4.4933 O   0  0  0  0  0  0  0  0  0  0  0  0
    4.0778   -4.6611    6.7307 C   0  0  2  0  0  0  0  0  0  0  0  0
    2.6643   -4.7944    7.3419 C   0  0  1  0  0  0  0  0  0  0  0  0
    1.9222   -3.4273    7.2338 C   0  0  0  0  0  0  0  0  0  0  0  0
    2.8114   -2.1772    7.0135 C   0  0  0  0  0  0  0  0  0  0  0  0
    4.2250   -2.1690    7.6743 C   0  0  1  0  0  0  0  0  0  0  0  0
    4.9581   -3.5651    7.4721 C   0  0  1  0  0  0  0  0  0  0  0  0
    5.2515   -4.1814    8.8737 C   0  0  0  0  0  0  0  0  0  0  0  0
    6.3507   -3.3980    6.8001 C   0  0  0  0  0  0  0  0  0  0  0  0
    7.2498   -2.3631    7.4875 C   0  0  0  0  0  0  0  0  0  0  0  0
    6.6029   -0.9787    7.7495 C   0  0  2  0  0  0  0  0  0  0  0  0
    7.0518   -0.3691    9.1296 C   0  0  0  0  0  0  0  0  0  0  0  0
    6.6184   -1.2055   10.3585 C   0  0  0  0  0  0  0  0  0  0  0  0
    8.5904   -0.2179    9.1644 C   0  0  0  0  0  0  0  0  0  0  0  0
    6.4611    1.0424    9.2658 C   0  0  0  0  0  0  0  0  0  0  0  0
    4.9386    0.9975    9.2621 C   0  0  0  0  0  0  0  0  0  0  0  0
    4.4271    0.4550    7.9242 C   0  0  0  0  0  0  0  0  0  0  0  0
    5.0747   -0.8567    7.3342 C   0  0  2  0  0  0  0  0  0  0  0  0
    5.0260   -0.5730    5.7989 C   0  0  0  0  0  0  0  0  0  0  0  0
    1.6577   -7.7642    4.8084 C   0  0  2  0  0  0  0  0  0  0  0  0
    0.4675   -7.7743    3.8144 C   0  0  1  0  0  0  0  0  0  0  0  0
    0.5791   -6.6568    2.7555 C   0  0  0  0  0  0  0  0  0  0  0  0
   -1.8035   -9.4176    3.2478 H   0  0  0  0  0  0  0  0  0  0  0  0
   -1.0627  -10.3600    1.9644 H   0  0  0  0  0  0  0  0  0  0  0  0
   -1.2909   -8.6352    1.7501 H   0  0  0  0  0  0  0  0  0  0  0  0
    1.0856   -9.1751    2.2890 H   0  0  0  0  0  0  0  0  0  0  0  0
   -0.1581  -10.7676    4.4936 H   0  0  0  0  0  0  0  0  0  0  0  0
    1.0201  -11.2394    3.3296 H   0  0  0  0  0  0  0  0  0  0  0  0
    1.9232  -11.0732    5.6752 H   0  0  0  0  0  0  0  0  0  0  0  0
    2.8214  -10.1498    4.5256 H   0  0  0  0  0  0  0  0  0  0  0  0
    0.0843   -8.5789    7.4851 H   0  0  0  0  0  0  0  0  0  0  0  0
    0.1781  -10.2118    6.9522 H   0  0  0  0  0  0  0  0  0  0  0  0
   -0.6468   -9.0453    5.9586 H   0  0  0  0  0  0  0  0  0  0  0  0
    2.7104   -9.4859    7.6291 H   0  0  0  0  0  0  0  0  0  0  0  0
    3.6335   -8.6081    6.4415 H   0  0  0  0  0  0  0  0  0  0  0  0
    1.7151   -7.4902    8.5132 H   0  0  0  0  0  0  0  0  0  0  0  0
    3.3484   -7.0817    8.1806 H   0  0  0  0  0  0  0  0  0  0  0  0
    0.0975   -5.7466    8.0515 H   0  0  0  0  0  0  0  0  0  0  0  0
   -0.2075   -6.7066    6.6099 H   0  0  0  0  0  0  0  0  0  0  0  0
   -0.0121   -5.0454    6.4399 H   0  0  0  0  0  0  0  0  0  0  0  0
    3.3341   -6.0094    3.6162 H   0  0  0  0  0  0  0  0  0  0  0  0
    4.5909   -5.6097    6.8891 H   0  0  0  0  0  0  0  0  0  0  0  0
    2.7565   -4.9444    8.4146 H   0  0  0  0  0  0  0  0  0  0  0  0
    1.2337   -3.4224    6.3909 H   0  0  0  0  0  0  0  0  0  0  0  0
    1.3143   -3.2877    8.1307 H   0  0  0  0  0  0  0  0  0  0  0  0
    2.9168   -2.0720    5.9359 H   0  0  0  0  0  0  0  0  0  0  0  0
    2.2310   -1.3132    7.3265 H   0  0  0  0  0  0  0  0  0  0  0  0
    4.0108   -2.0872    8.7397 H   0  0  0  0  0  0  0  0  0  0  0  0
    5.9769   -3.6174    9.4443 H   0  0  0  0  0  0  0  0  0  0  0  0
    5.6489   -5.1942    8.7909 H   0  0  0  0  0  0  0  0  0  0  0  0
    4.3729   -4.2214    9.5138 H   0  0  0  0  0  0  0  0  0  0  0  0
    6.8669   -4.3568    6.7797 H   0  0  0  0  0  0  0  0  0  0  0  0
    6.2942   -3.1293    5.7530 H   0  0  0  0  0  0  0  0  0  0  0  0
    7.6389   -2.7952    8.4055 H   0  0  0  0  0  0  0  0  0  0  0  0
    8.1388   -2.2151    6.8763 H   0  0  0  0  0  0  0  0  0  0  0  0
    7.1153   -0.3264    7.0419 H   0  0  0  0  0  0  0  0  0  0  0  0
    6.7062   -0.6242   11.2785 H   0  0  0  0  0  0  0  0  0  0  0  0
    7.2344   -2.0958   10.4937 H   0  0  0  0  0  0  0  0  0  0  0  0
    5.5792   -1.5265   10.2862 H   0  0  0  0  0  0  0  0  0  0  0  0
    8.9175    0.2782   10.0779 H   0  0  0  0  0  0  0  0  0  0  0  0
    8.9530    0.3822    8.3304 H   0  0  0  0  0  0  0  0  0  0  0  0
    9.1036   -1.1783    9.1294 H   0  0  0  0  0  0  0  0  0  0  0  0
    6.8196    1.5312   10.1724 H   0  0  0  0  0  0  0  0  0  0  0  0
    6.7957    1.6653    8.4339 H   0  0  0  0  0  0  0  0  0  0  0  0
    4.5449    0.4307   10.1037 H   0  0  0  0  0  0  0  0  0  0  0  0
    4.5594    2.0109    9.3996 H   0  0  0  0  0  0  0  0  0  0  0  0
    3.3480    0.3645    8.0023 H   0  0  0  0  0  0  0  0  0  0  0  0
    4.5731    1.2794    7.2245 H   0  0  0  0  0  0  0  0  0  0  0  0
    5.6893    0.2463    5.5204 H   0  0  0  0  0  0  0  0  0  0  0  0
    4.0344   -0.2563    5.4765 H   0  0  0  0  0  0  0  0  0  0  0  0
    5.3025   -1.4145    5.1748 H   0  0  0  0  0  0  0  0  0  0  0  0
    2.4948   -8.0353    4.1655 H   0  0  0  0  0  0  0  0  0  0  0  0
   -0.4498   -7.5883    4.3689 H   0  0  0  0  0  0  0  0  0  0  0  0
    1.4832   -6.7765    2.1583 H   0  0  0  0  0  0  0  0  0  0  0  0
    0.6092   -5.6705    3.2155 H   0  0  0  0  0  0  0  0  0  0  0  0
   -0.2655   -6.6663    2.0695 H   0  0  0  0  0  0  0  0  0  0  0  0
  1  2  1  0
  1 36  1  0
  1 37  1  0
  1 38  1  0
  2 34  1  0
  2  3  1  0
  2 39  1  6
  3  4  1  0
  3 40  1  0
  3 41  1  0
  4  5  1  0
  4 42  1  0
  4 43  1  0
  5 33  1  0
  5  6  1  1
  5  7  1  0
  6 44  1  0
  6 45  1  0
  6 46  1  0
  7  8  1  0
  7 47  1  0
  7 48  1  0
  8  9  1  0
  8 49  1  0
  8 50  1  0
  9 16  1  0
  9 10  1  6
  9 11  1  0
 10 51  1  0
 10 52  1  0
 10 53  1  0
 11 12  2  0
 11 33  1  0
 12 13  1  0
 12 54  1  0
 13 14  2  0
 13 15  1  0
 15 20  1  0
 15 16  1  0
 15 55  1  6
 16 17  1  0
 16 56  1  1
 17 18  1  0
 17 57  1  0
 17 58  1  0
 18 19  1  0
 18 59  1  0
 18 60  1  0
 19 31  1  0
 19 20  1  0
 19 61  1  1
 20 21  1  1
 20 22  1  0
 21 62  1  0
 21 63  1  0
 21 64  1  0
 22 23  1  0
 22 65  1  0
 22 66  1  0
 23 24  1  0
 23 67  1  0
 23 68  1  0
 24 31  1  0
 24 25  1  0
 24 69  1  6
 25 26  1  0
 25 27  1  0
 25 28  1  0
 26 70  1  0
 26 71  1  0
 26 72  1  0
 27 73  1  0
 27 74  1  0
 27 75  1  0
 28 29  1  0
 28 76  1  0
 28 77  1  0
 29 30  1  0
 29 78  1  0
 29 79  1  0
 30 31  1  0
 30 80  1  0
 30 81  1  0
 31 32  1  6
 32 82  1  0
 32 83  1  0
 32 84  1  0
 33 34  1  0
 33 85  1  6
 34 35  1  0
 34 86  1  1
 35 87  1  0
 35 88  1  0
 35 89  1  0
M  END
>  <i_m_ct_stereo_status>  (324) 
1

>  <s_m_source_file>  (324) 
/var/tmp/pbs.5076255.sched01/tmporjl5eer/117expd_qi0.sdf

>  <i_m_source_file_index>  (324) 
23

>  <i_lp_mmshare_version>  (324) 
48012

>  <i_f3d_flags>  (324) 
0

>  <s_epik_input>  (324) 
W0NIMl0xW0NIMl1bQ0BASF0oW0NIM10pW0NASF0oW0NIM10pW0NASF0oW0NAQF0xMltDSDNdKUM9M1tDQEBdKFtDSDNdKShbQ0gyXVtDSDJdMilbQ0BIXTRbQ0BASF0oQyg9TylbQ0hdMylbQ0BdNShbQ0gzXSlbQ0BIXShbQ0gyXVtDSDJdNClbQ0BdNihbQ0gzXSlbQ0BIXShbQ0gyXVtDSDJdNSlDKFtDSDNdKShbQ0gzXSlbQ0gyXVtDSDJdW0NIMl02

>  <s_epik_cmdline>  (324) 
J2VwaWtfcHl0aG9uJywgJy1waHQnLCAnMi4wJywgJy1waCcsICc3LjAnLCAnLXRuJywgJzgnLCAnLW1hJywgJzIwMCcsICctaW1hZScsICc8aW5maWxlLm1hZT4nLCAnLW9tYWUnLCAnPG91dGZpbGUubWFlPic=

>  <r_lp_tautomer_probability>  (324) 
1

>  <r_epik_Ionization_Penalty>  (324) 
0

>  <r_epik_Ionization_Penalty_Charging>  (324) 
0

>  <r_epik_Ionization_Penalty_Neutral>  (324) 
0

>  <r_epik_State_Penalty>  (324) 
-0

>  <r_epik_Charging_Adjusted_Penalty>  (324) 
0

>  <i_epik_Tot_Q>  (324) 
0

>  <i_epik_Tot_abs_Q>  (324) 
0

>  <s_lp_Force_Field>  (324) 
OPLS3e

>  <r_lp_Energy>  (324) 
129.9

>  <b_lp_Chiralities_Consistent>  (324) 
1

>  <s_lp_Variant>  (324) 
111:0-1

>  <s_i_glide_gridfile>  (324) 
pfpi4k_grid

>  <i_i_glide_lignum>  (324) 
23

>  <i_i_glide_rotatable_bonds>  (324) 
0

>  <r_i_docking_score>  (324) 
-1.79263

>  <r_i_glide_ligand_efficiency>  (324) 
-0.051218

>  <r_i_glide_ligand_efficiency_sa>  (324) 
-0.167537

>  <r_i_glide_ligand_efficiency_ln>  (324) 
-0.393522

>  <r_i_glide_gscore>  (324) 
-1.79263

>  <r_i_glide_lipo>  (324) 
-0.426509

>  <r_i_glide_hbond>  (324) 
0

>  <r_i_glide_metal>  (324) 
-0

>  <r_i_glide_rewards>  (324) 
-0.1446

>  <r_i_glide_evdw>  (324) 
-24.8674

>  <r_i_glide_ecoul>  (324) 
0.145684

>  <r_i_glide_erotb>  (324) 
0

>  <r_i_glide_esite>  (324) 
0

>  <r_i_glide_emodel>  (324) 
-27.4127

>  <r_i_glide_energy>  (324) 
-24.7218

>  <r_i_glide_einternal>  (324) 
0

>  <r_i_glide_intrahb_reward>  (324) 
-0

>  <i_i_glide_confnum>  (324) 
2

>  <i_i_glide_posenum>  (324) 
10

>  <r_i_glide_eff_state_penalty>  (324) 
0

>  <ligand_id>  (324) 
111

>  <original_smiles>  (324) 
CC1CCC2(C)CCC3(C)C(=CC(=O)C4C3CCC3C4(C)CCC4C(C)(C)CCCC43C)C2C1C

>  <smiles>  (324) 
[H]C1=C2C3([H])C([H])(C([H])([H])[H])C([H])(C([H])([H])[H])C([H])([H])C([H])([H])C3(C([H])([H])[H])C([H])([H])C([H])([H])C2(C([H])([H])[H])C2([H])C([H])([H])C([H])([H])C3([H])C(C([H])([H])[H])(C([H])([H])C([H])([H])C4([H])C(C([H])([H])[H])(C([H])([H])[H])C([H])([H])C([H])([H])C([H])([H])C43C([H])([H])[H])C2([H])C1=O

$$$$
111:0:1
     RDKit          3D

 89 94  0  0  1  0  0  0  0  0999 V2000
    0.6345   -9.6683    5.0986 C   0  0  0  0  0  0  0  0  0  0  0  0
    1.5643   -8.4362    5.1446 C   0  0  2  0  0  0  0  0  0  0  0  0
    2.5381   -8.5898    6.3523 C   0  0  0  0  0  0  0  0  0  0  0  0
    3.2416   -7.2971    6.8221 C   0  0  0  0  0  0  0  0  0  0  0  0
    2.2105   -6.1649    7.0144 C   0  0  1  0  0  0  0  0  0  0  0  0
    1.2342   -6.6641    8.1271 C   0  0  0  0  0  0  0  0  0  0  0  0
    2.8358   -4.8410    7.4960 C   0  0  0  0  0  0  0  0  0  0  0  0
    1.7893   -3.6931    7.6014 C   0  0  0  0  0  0  0  0  0  0  0  0
    0.7131   -3.6121    6.4582 C   0  0  2  0  0  0  0  0  0  0  0  0
   -0.6403   -4.2064    6.9404 C   0  0  0  0  0  0  0  0  0  0  0  0
    1.2324   -4.4514    5.2767 C   0  0  0  0  0  0  0  0  0  0  0  0
    1.5665   -3.8958    4.0866 C   0  0  0  0  0  0  0  0  0  0  0  0
    1.5118   -2.4468    3.8532 C   0  0  0  0  0  0  0  0  0  0  0  0
    1.4093   -1.9823    2.7262 O   0  0  0  0  0  0  0  0  0  0  0  0
    1.5900   -1.5601    5.1171 C   0  0  2  0  0  0  0  0  0  0  0  0
    0.5055   -2.0794    6.0866 C   0  0  1  0  0  0  0  0  0  0  0  0
   -0.8963   -1.6346    5.5776 C   0  0  0  0  0  0  0  0  0  0  0  0
   -0.9283   -0.4496    4.5833 C   0  0  0  0  0  0  0  0  0  0  0  0
    0.1521    0.6607    4.7413 C   0  0  1  0  0  0  0  0  0  0  0  0
    1.5869    0.0249    4.9996 C   0  0  1  0  0  0  0  0  0  0  0  0
    2.1021    0.5181    6.3862 C   0  0  0  0  0  0  0  0  0  0  0  0
    2.6407    0.5231    3.9693 C   0  0  0  0  0  0  0  0  0  0  0  0
    2.6943    2.0489    3.8282 C   0  0  0  0  0  0  0  0  0  0  0  0
    1.3309    2.7530    3.5966 C   0  0  2  0  0  0  0  0  0  0  0  0
    1.2353    4.1260    4.3630 C   0  0  0  0  0  0  0  0  0  0  0  0
    1.3157    3.9954    5.9033 C   0  0  0  0  0  0  0  0  0  0  0  0
    2.3682    5.0726    3.8971 C   0  0  0  0  0  0  0  0  0  0  0  0
   -0.0917    4.8095    3.9999 C   0  0  0  0  0  0  0  0  0  0  0  0
   -1.2782    3.9591    4.4348 C   0  0  0  0  0  0  0  0  0  0  0  0
   -1.2759    2.6214    3.6887 C   0  0  0  0  0  0  0  0  0  0  0  0
    0.0649    1.7944    3.6137 C   0  0  2  0  0  0  0  0  0  0  0  0
   -0.0461    1.1388    2.1988 C   0  0  0  0  0  0  0  0  0  0  0  0
    1.6405   -5.9162    5.5777 C   0  0  2  0  0  0  0  0  0  0  0  0
    0.7618   -7.0895    5.0712 C   0  0  1  0  0  0  0  0  0  0  0  0
    0.2499   -6.8553    3.6354 C   0  0  0  0  0  0  0  0  0  0  0  0
   -0.0367   -9.6895    5.9597 H   0  0  0  0  0  0  0  0  0  0  0  0
    1.2094  -10.5967    5.1219 H   0  0  0  0  0  0  0  0  0  0  0  0
    0.0153   -9.6971    4.2016 H   0  0  0  0  0  0  0  0  0  0  0  0
    2.1945   -8.4795    4.2551 H   0  0  0  0  0  0  0  0  0  0  0  0
    2.0064   -9.0327    7.1934 H   0  0  0  0  0  0  0  0  0  0  0  0
    3.3025   -9.3244    6.0953 H   0  0  0  0  0  0  0  0  0  0  0  0
    3.7844   -7.4878    7.7479 H   0  0  0  0  0  0  0  0  0  0  0  0
    4.0114   -7.0108    6.1055 H   0  0  0  0  0  0  0  0  0  0  0  0
    0.7052   -5.8695    8.6469 H   0  0  0  0  0  0  0  0  0  0  0  0
    1.7857   -7.1804    8.9159 H   0  0  0  0  0  0  0  0  0  0  0  0
    0.4892   -7.3712    7.7660 H   0  0  0  0  0  0  0  0  0  0  0  0
    3.3338   -4.9807    8.4576 H   0  0  0  0  0  0  0  0  0  0  0  0
    3.6190   -4.5424    6.7957 H   0  0  0  0  0  0  0  0  0  0  0  0
    1.2883   -3.7385    8.5679 H   0  0  0  0  0  0  0  0  0  0  0  0
    2.3673   -2.7705    7.6485 H   0  0  0  0  0  0  0  0  0  0  0  0
   -1.0152   -3.7067    7.8335 H   0  0  0  0  0  0  0  0  0  0  0  0
   -0.6029   -5.2686    7.1393 H   0  0  0  0  0  0  0  0  0  0  0  0
   -1.4033   -4.1533    6.1761 H   0  0  0  0  0  0  0  0  0  0  0  0
    2.0004   -4.4946    3.3040 H   0  0  0  0  0  0  0  0  0  0  0  0
    2.5586   -1.8251    5.5422 H   0  0  0  0  0  0  0  0  0  0  0  0
    0.6015   -1.5596    7.0361 H   0  0  0  0  0  0  0  0  0  0  0  0
   -1.3776   -2.4490    5.0423 H   0  0  0  0  0  0  0  0  0  0  0  0
   -1.5252   -1.4005    6.4358 H   0  0  0  0  0  0  0  0  0  0  0  0
   -0.8180   -0.8943    3.6020 H   0  0  0  0  0  0  0  0  0  0  0  0
   -1.9325   -0.0325    4.5972 H   0  0  0  0  0  0  0  0  0  0  0  0
   -0.1323    1.1688    5.6620 H   0  0  0  0  0  0  0  0  0  0  0  0
    2.3082    1.5805    6.4091 H   0  0  0  0  0  0  0  0  0  0  0  0
    3.0308    0.0208    6.6685 H   0  0  0  0  0  0  0  0  0  0  0  0
    1.3850    0.3630    7.1880 H   0  0  0  0  0  0  0  0  0  0  0  0
    3.6292    0.1603    4.2484 H   0  0  0  0  0  0  0  0  0  0  0  0
    2.5011    0.1163    2.9757 H   0  0  0  0  0  0  0  0  0  0  0  0
    3.2071    2.4616    4.6916 H   0  0  0  0  0  0  0  0  0  0  0  0
    3.3561    2.2917    2.9968 H   0  0  0  0  0  0  0  0  0  0  0  0
    1.3933    3.0830    2.5584 H   0  0  0  0  0  0  0  0  0  0  0  0
    0.9836    4.9138    6.3904 H   0  0  0  0  0  0  0  0  0  0  0  0
    2.3309    3.8102    6.2530 H   0  0  0  0  0  0  0  0  0  0  0  0
    0.6824    3.1923    6.2779 H   0  0  0  0  0  0  0  0  0  0  0  0
    2.2718    6.0592    4.3544 H   0  0  0  0  0  0  0  0  0  0  0  0
    2.3481    5.2136    2.8143 H   0  0  0  0  0  0  0  0  0  0  0  0
    3.3573    4.6950    4.1598 H   0  0  0  0  0  0  0  0  0  0  0  0
   -0.1495    5.8063    4.4406 H   0  0  0  0  0  0  0  0  0  0  0  0
   -0.1418    4.9583    2.9192 H   0  0  0  0  0  0  0  0  0  0  0  0
   -1.3065    3.8208    5.5135 H   0  0  0  0  0  0  0  0  0  0  0  0
   -2.1962    4.4915    4.1888 H   0  0  0  0  0  0  0  0  0  0  0  0
   -2.0908    2.0239    4.0868 H   0  0  0  0  0  0  0  0  0  0  0  0
   -1.6024    2.8733    2.6780 H   0  0  0  0  0  0  0  0  0  0  0  0
    0.0077    1.8870    1.4045 H   0  0  0  0  0  0  0  0  0  0  0  0
   -1.0082    0.6459    2.0514 H   0  0  0  0  0  0  0  0  0  0  0  0
    0.7201    0.4063    1.9724 H   0  0  0  0  0  0  0  0  0  0  0  0
    2.5111   -5.9849    4.9257 H   0  0  0  0  0  0  0  0  0  0  0  0
   -0.1205   -7.1645    5.7033 H   0  0  0  0  0  0  0  0  0  0  0  0
    1.0790   -6.7665    2.9313 H   0  0  0  0  0  0  0  0  0  0  0  0
   -0.3421   -5.9454    3.5773 H   0  0  0  0  0  0  0  0  0  0  0  0
   -0.3831   -7.6730    3.2921 H   0  0  0  0  0  0  0  0  0  0  0  0
  1  2  1  0
  1 36  1  0
  1 37  1  0
  1 38  1  0
  2 34  1  0
  2  3  1  0
  2 39  1  6
  3  4  1  0
  3 40  1  0
  3 41  1  0
  4  5  1  0
  4 42  1  0
  4 43  1  0
  5 33  1  0
  5  6  1  1
  5  7  1  0
  6 44  1  0
  6 45  1  0
  6 46  1  0
  7  8  1  0
  7 47  1  0
  7 48  1  0
  8  9  1  0
  8 49  1  0
  8 50  1  0
  9 16  1  0
  9 10  1  1
  9 11  1  0
 10 51  1  0
 10 52  1  0
 10 53  1  0
 11 12  2  0
 11 33  1  0
 12 13  1  0
 12 54  1  0
 13 14  2  0
 13 15  1  0
 15 20  1  0
 15 16  1  0
 15 55  1  1
 16 17  1  0
 16 56  1  1
 17 18  1  0
 17 57  1  0
 17 58  1  0
 18 19  1  0
 18 59  1  0
 18 60  1  0
 19 31  1  0
 19 20  1  0
 19 61  1  1
 20 21  1  1
 20 22  1  0
 21 62  1  0
 21 63  1  0
 21 64  1  0
 22 23  1  0
 22 65  1  0
 22 66  1  0
 23 24  1  0
 23 67  1  0
 23 68  1  0
 24 31  1  0
 24 25  1  0
 24 69  1  6
 25 26  1  0
 25 27  1  0
 25 28  1  0
 26 70  1  0
 26 71  1  0
 26 72  1  0
 27 73  1  0
 27 74  1  0
 27 75  1  0
 28 29  1  0
 28 76  1  0
 28 77  1  0
 29 30  1  0
 29 78  1  0
 29 79  1  0
 30 31  1  0
 30 80  1  0
 30 81  1  0
 31 32  1  6
 32 82  1  0
 32 83  1  0
 32 84  1  0
 33 34  1  0
 33 85  1  6
 34 35  1  0
 34 86  1  1
 35 87  1  0
 35 88  1  0
 35 89  1  0
M  END
>  <i_m_ct_stereo_status>  (325) 
1

>  <s_m_source_file>  (325) 
/var/tmp/pbs.5076255.sched01/tmporjl5eer/117expd_qi0.sdf

>  <i_m_source_file_index>  (325) 
23

>  <i_lp_mmshare_version>  (325) 
48012

>  <i_f3d_flags>  (325) 
0

>  <s_epik_input>  (325) 
W0NIMl0xW0NIMl1bQ0BASF0oW0NIM10pW0NASF0oW0NIM10pW0NASF0oW0NAQF0xMltDSDNdKUM9M1tDQEBdKFtDSDNdKShbQ0gyXVtDSDJdMilbQ0BIXTRbQ0BASF0oQyg9TylbQ0hdMylbQ0BdNShbQ0gzXSlbQ0BIXShbQ0gyXVtDSDJdNClbQ0BdNihbQ0gzXSlbQ0BIXShbQ0gyXVtDSDJdNSlDKFtDSDNdKShbQ0gzXSlbQ0gyXVtDSDJdW0NIMl02

>  <s_epik_cmdline>  (325) 
J2VwaWtfcHl0aG9uJywgJy1waHQnLCAnMi4wJywgJy1waCcsICc3LjAnLCAnLXRuJywgJzgnLCAnLW1hJywgJzIwMCcsICctaW1hZScsICc8aW5maWxlLm1hZT4nLCAnLW9tYWUnLCAnPG91dGZpbGUubWFlPic=

>  <r_lp_tautomer_probability>  (325) 
1

>  <r_epik_Ionization_Penalty>  (325) 
0

>  <r_epik_Ionization_Penalty_Charging>  (325) 
0

>  <r_epik_Ionization_Penalty_Neutral>  (325) 
0

>  <r_epik_State_Penalty>  (325) 
-0

>  <r_epik_Charging_Adjusted_Penalty>  (325) 
0

>  <i_epik_Tot_Q>  (325) 
0

>  <i_epik_Tot_abs_Q>  (325) 
0

>  <s_lp_Force_Field>  (325) 
OPLS3e

>  <r_lp_Energy>  (325) 
129.9

>  <b_lp_Chiralities_Consistent>  (325) 
1

>  <s_lp_Variant>  (325) 
111:0-1

>  <s_i_glide_gridfile>  (325) 
pfpi4k_grid

>  <i_i_glide_lignum>  (325) 
23

>  <i_i_glide_rotatable_bonds>  (325) 
0

>  <r_i_docking_score>  (325) 
-1.45945

>  <r_i_glide_ligand_efficiency>  (325) 
-0.0416987

>  <r_i_glide_ligand_efficiency_sa>  (325) 
-0.136399

>  <r_i_glide_ligand_efficiency_ln>  (325) 
-0.320382

>  <r_i_glide_gscore>  (325) 
-1.45945

>  <r_i_glide_lipo>  (325) 
-0.00638958

>  <r_i_glide_hbond>  (325) 
0

>  <r_i_glide_metal>  (325) 
-0

>  <r_i_glide_rewards>  (325) 
-0.177137

>  <r_i_glide_evdw>  (325) 
-30.987

>  <r_i_glide_ecoul>  (325) 
1.82282

>  <r_i_glide_erotb>  (325) 
0

>  <r_i_glide_esite>  (325) 
0

>  <r_i_glide_emodel>  (325) 
-31.2382

>  <r_i_glide_energy>  (325) 
-29.1642

>  <r_i_glide_einternal>  (325) 
0

>  <r_i_glide_intrahb_reward>  (325) 
-0

>  <i_i_glide_confnum>  (325) 
1

>  <i_i_glide_posenum>  (325) 
1

>  <r_i_glide_eff_state_penalty>  (325) 
0

>  <ligand_id>  (325) 
111

>  <original_smiles>  (325) 
CC1CCC2(C)CCC3(C)C(=CC(=O)C4C3CCC3C4(C)CCC4C(C)(C)CCCC43C)C2C1C

>  <smiles>  (325) 
[H]C1=C2C3([H])C([H])(C([H])([H])[H])C([H])(C([H])([H])[H])C([H])([H])C([H])([H])C3(C([H])([H])[H])C([H])([H])C([H])([H])C2(C([H])([H])[H])C2([H])C([H])([H])C([H])([H])C3([H])C(C([H])([H])[H])(C([H])([H])C([H])([H])C4([H])C(C([H])([H])[H])(C([H])([H])[H])C([H])([H])C([H])([H])C([H])([H])C43C([H])([H])[H])C2([H])C1=O

$$$$
111:0:2
     RDKit          3D

 89 94  0  0  1  0  0  0  0  0999 V2000
   -0.4332   -9.7779    2.5365 C   0  0  0  0  0  0  0  0  0  0  0  0
    0.8405   -9.0996    3.0767 C   0  0  2  0  0  0  0  0  0  0  0  0
    1.4748  -10.0175    4.1667 C   0  0  0  0  0  0  0  0  0  0  0  0
    2.4894   -9.3375    5.1122 C   0  0  0  0  0  0  0  0  0  0  0  0
    1.8982   -8.0312    5.6839 C   0  0  1  0  0  0  0  0  0  0  0  0
    0.6342   -8.4605    6.4960 C   0  0  0  0  0  0  0  0  0  0  0  0
    2.8503   -7.2962    6.6481 C   0  0  0  0  0  0  0  0  0  0  0  0
    2.2644   -5.9416    7.1446 C   0  0  0  0  0  0  0  0  0  0  0  0
    1.4967   -5.0733    6.0818 C   0  0  2  0  0  0  0  0  0  0  0  0
   -0.0401   -5.2221    6.2595 C   0  0  0  0  0  0  0  0  0  0  0  0
    1.8896   -5.5972    4.6892 C   0  0  0  0  0  0  0  0  0  0  0  0
    2.5941   -4.8478    3.8066 C   0  0  0  0  0  0  0  0  0  0  0  0
    3.0846   -3.5026    4.1326 C   0  0  0  0  0  0  0  0  0  0  0  0
    3.3432   -2.6849    3.2584 O   0  0  0  0  0  0  0  0  0  0  0  0
    3.2442   -3.1957    5.6398 C   0  0  2  0  0  0  0  0  0  0  0  0
    1.8955   -3.5501    6.3048 C   0  0  1  0  0  0  0  0  0  0  0  0
    0.8405   -2.4566    5.9533 C   0  0  0  0  0  0  0  0  0  0  0  0
    1.3974   -1.0940    5.4697 C   0  0  0  0  0  0  0  0  0  0  0  0
    2.7491   -0.6093    6.0785 C   0  0  1  0  0  0  0  0  0  0  0  0
    3.8082   -1.7929    6.1300 C   0  0  1  0  0  0  0  0  0  0  0  0
    4.2175   -2.0333    7.6159 C   0  0  0  0  0  0  0  0  0  0  0  0
    5.1285   -1.4237    5.3990 C   0  0  0  0  0  0  0  0  0  0  0  0
    5.7368   -0.0864    5.8418 C   0  0  0  0  0  0  0  0  0  0  0  0
    4.7602    1.1196    5.8524 C   0  0  2  0  0  0  0  0  0  0  0  0
    5.0165    2.0801    7.0741 C   0  0  0  0  0  0  0  0  0  0  0  0
    4.7803    1.4194    8.4538 C   0  0  0  0  0  0  0  0  0  0  0  0
    6.4687    2.6134    7.0374 C   0  0  0  0  0  0  0  0  0  0  0  0
    4.0921    3.3010    6.9489 C   0  0  0  0  0  0  0  0  0  0  0  0
    2.6291    2.8827    6.9976 C   0  0  0  0  0  0  0  0  0  0  0  0
    2.2955    1.9807    5.8058 C   0  0  0  0  0  0  0  0  0  0  0  0
    3.2586    0.7793    5.4662 C   0  0  2  0  0  0  0  0  0  0  0  0
    3.1727    0.7363    3.9064 C   0  0  0  0  0  0  0  0  0  0  0  0
    1.7065   -7.1139    4.4292 C   0  0  2  0  0  0  0  0  0  0  0  0
    0.5777   -7.6106    3.4906 C   0  0  1  0  0  0  0  0  0  0  0  0
    0.4333   -6.7304    2.2312 C   0  0  0  0  0  0  0  0  0  0  0  0
   -1.2070   -9.8410    3.3029 H   0  0  0  0  0  0  0  0  0  0  0  0
   -0.2034  -10.7952    2.2148 H   0  0  0  0  0  0  0  0  0  0  0  0
   -0.8644   -9.2572    1.6809 H   0  0  0  0  0  0  0  0  0  0  0  0
    1.5596   -9.0831    2.2566 H   0  0  0  0  0  0  0  0  0  0  0  0
    0.6864  -10.4763    4.7627 H   0  0  0  0  0  0  0  0  0  0  0  0
    1.9710  -10.8569    3.6772 H   0  0  0  0  0  0  0  0  0  0  0  0
    2.7624  -10.0239    5.9145 H   0  0  0  0  0  0  0  0  0  0  0  0
    3.4222   -9.1483    4.5817 H   0  0  0  0  0  0  0  0  0  0  0  0
    0.3309   -7.7484    7.2594 H   0  0  0  0  0  0  0  0  0  0  0  0
    0.8300   -9.3831    7.0487 H   0  0  0  0  0  0  0  0  0  0  0  0
   -0.2354   -8.6637    5.8723 H   0  0  0  0  0  0  0  0  0  0  0  0
    3.0953   -7.9323    7.5012 H   0  0  0  0  0  0  0  0  0  0  0  0
    3.7965   -7.1062    6.1367 H   0  0  0  0  0  0  0  0  0  0  0  0
    1.6196   -6.1120    8.0062 H   0  0  0  0  0  0  0  0  0  0  0  0
    3.1086   -5.3873    7.5537 H   0  0  0  0  0  0  0  0  0  0  0  0
   -0.3662   -4.9445    7.2626 H   0  0  0  0  0  0  0  0  0  0  0  0
   -0.4077   -6.2168    6.0476 H   0  0  0  0  0  0  0  0  0  0  0  0
   -0.5880   -4.6224    5.5440 H   0  0  0  0  0  0  0  0  0  0  0  0
    2.9202   -5.2666    2.8704 H   0  0  0  0  0  0  0  0  0  0  0  0
    3.9724   -3.9388    5.9662 H   0  0  0  0  0  0  0  0  0  0  0  0
    1.9988   -3.4587    7.3831 H   0  0  0  0  0  0  0  0  0  0  0  0
    0.1925   -2.7835    5.1423 H   0  0  0  0  0  0  0  0  0  0  0  0
    0.1974   -2.2987    6.8216 H   0  0  0  0  0  0  0  0  0  0  0  0
    1.4994   -1.1784    4.3901 H   0  0  0  0  0  0  0  0  0  0  0  0
    0.6158   -0.3549    5.6232 H   0  0  0  0  0  0  0  0  0  0  0  0
    2.5003   -0.3753    7.1131 H   0  0  0  0  0  0  0  0  0  0  0  0
    4.7720   -1.2077    8.0435 H   0  0  0  0  0  0  0  0  0  0  0  0
    4.8540   -2.9132    7.7185 H   0  0  0  0  0  0  0  0  0  0  0  0
    3.3649   -2.1612    8.2776 H   0  0  0  0  0  0  0  0  0  0  0  0
    5.8595   -2.2149    5.5564 H   0  0  0  0  0  0  0  0  0  0  0  0
    5.0326   -1.3877    4.3214 H   0  0  0  0  0  0  0  0  0  0  0  0
    6.2029   -0.2203    6.8135 H   0  0  0  0  0  0  0  0  0  0  0  0
    6.5745    0.1467    5.1833 H   0  0  0  0  0  0  0  0  0  0  0  0
    5.1049    1.7287    5.0176 H   0  0  0  0  0  0  0  0  0  0  0  0
    4.7071    2.1736    9.2396 H   0  0  0  0  0  0  0  0  0  0  0  0
    5.5926    0.7519    8.7403 H   0  0  0  0  0  0  0  0  0  0  0  0
    3.8536    0.8470    8.4776 H   0  0  0  0  0  0  0  0  0  0  0  0
    6.6400    3.3427    7.8318 H   0  0  0  0  0  0  0  0  0  0  0  0
    6.6883    3.1071    6.0889 H   0  0  0  0  0  0  0  0  0  0  0  0
    7.2042    1.8191    7.1719 H   0  0  0  0  0  0  0  0  0  0  0  0
    4.3011    4.0310    7.7335 H   0  0  0  0  0  0  0  0  0  0  0  0
    4.2796    3.8113    6.0026 H   0  0  0  0  0  0  0  0  0  0  0  0
    2.3705    2.4118    7.9437 H   0  0  0  0  0  0  0  0  0  0  0  0
    2.0088    3.7789    6.9462 H   0  0  0  0  0  0  0  0  0  0  0  0
    1.2704    1.6448    5.9295 H   0  0  0  0  0  0  0  0  0  0  0  0
    2.2492    2.6624    4.9544 H   0  0  0  0  0  0  0  0  0  0  0  0
    3.6154    1.6276    3.4565 H   0  0  0  0  0  0  0  0  0  0  0  0
    2.1396    0.7290    3.5550 H   0  0  0  0  0  0  0  0  0  0  0  0
    3.6655   -0.1137    3.4485 H   0  0  0  0  0  0  0  0  0  0  0  0
    2.5977   -7.2900    3.8276 H   0  0  0  0  0  0  0  0  0  0  0  0
   -0.3698   -7.5523    4.0220 H   0  0  0  0  0  0  0  0  0  0  0  0
    1.3512   -6.7406    1.6408 H   0  0  0  0  0  0  0  0  0  0  0  0
    0.2163   -5.6979    2.4959 H   0  0  0  0  0  0  0  0  0  0  0  0
   -0.3723   -7.0766    1.5844 H   0  0  0  0  0  0  0  0  0  0  0  0
  1  2  1  0
  1 36  1  0
  1 37  1  0
  1 38  1  0
  2 34  1  0
  2  3  1  0
  2 39  1  6
  3  4  1  0
  3 40  1  0
  3 41  1  0
  4  5  1  0
  4 42  1  0
  4 43  1  0
  5 33  1  0
  5  6  1  1
  5  7  1  0
  6 44  1  0
  6 45  1  0
  6 46  1  0
  7  8  1  0
  7 47  1  0
  7 48  1  0
  8  9  1  0
  8 49  1  0
  8 50  1  0
  9 16  1  0
  9 10  1  1
  9 11  1  0
 10 51  1  0
 10 52  1  0
 10 53  1  0
 11 12  2  0
 11 33  1  0
 12 13  1  0
 12 54  1  0
 13 14  2  0
 13 15  1  0
 15 20  1  0
 15 16  1  0
 15 55  1  1
 16 17  1  0
 16 56  1  1
 17 18  1  0
 17 57  1  0
 17 58  1  0
 18 19  1  0
 18 59  1  0
 18 60  1  0
 19 31  1  0
 19 20  1  0
 19 61  1  1
 20 21  1  1
 20 22  1  0
 21 62  1  0
 21 63  1  0
 21 64  1  0
 22 23  1  0
 22 65  1  0
 22 66  1  0
 23 24  1  0
 23 67  1  0
 23 68  1  0
 24 31  1  0
 24 25  1  0
 24 69  1  6
 25 26  1  0
 25 27  1  0
 25 28  1  0
 26 70  1  0
 26 71  1  0
 26 72  1  0
 27 73  1  0
 27 74  1  0
 27 75  1  0
 28 29  1  0
 28 76  1  0
 28 77  1  0
 29 30  1  0
 29 78  1  0
 29 79  1  0
 30 31  1  0
 30 80  1  0
 30 81  1  0
 31 32  1  6
 32 82  1  0
 32 83  1  0
 32 84  1  0
 33 34  1  0
 33 85  1  6
 34 35  1  0
 34 86  1  1
 35 87  1  0
 35 88  1  0
 35 89  1  0
M  END
>  <i_m_ct_stereo_status>  (326) 
1

>  <s_m_source_file>  (326) 
/var/tmp/pbs.5076255.sched01/tmporjl5eer/117expd_qi0.sdf

>  <i_m_source_file_index>  (326) 
23

>  <i_lp_mmshare_version>  (326) 
48012

>  <i_f3d_flags>  (326) 
0

>  <s_epik_input>  (326) 
W0NIMl0xW0NIMl1bQ0BASF0oW0NIM10pW0NASF0oW0NIM10pW0NASF0oW0NAQF0xMltDSDNdKUM9M1tDQEBdKFtDSDNdKShbQ0gyXVtDSDJdMilbQ0BIXTRbQ0BASF0oQyg9TylbQ0hdMylbQ0BdNShbQ0gzXSlbQ0BIXShbQ0gyXVtDSDJdNClbQ0BdNihbQ0gzXSlbQ0BIXShbQ0gyXVtDSDJdNSlDKFtDSDNdKShbQ0gzXSlbQ0gyXVtDSDJdW0NIMl02

>  <s_epik_cmdline>  (326) 
J2VwaWtfcHl0aG9uJywgJy1waHQnLCAnMi4wJywgJy1waCcsICc3LjAnLCAnLXRuJywgJzgnLCAnLW1hJywgJzIwMCcsICctaW1hZScsICc8aW5maWxlLm1hZT4nLCAnLW9tYWUnLCAnPG91dGZpbGUubWFlPic=

>  <r_lp_tautomer_probability>  (326) 
1

>  <r_epik_Ionization_Penalty>  (326) 
0

>  <r_epik_Ionization_Penalty_Charging>  (326) 
0

>  <r_epik_Ionization_Penalty_Neutral>  (326) 
0

>  <r_epik_State_Penalty>  (326) 
-0

>  <r_epik_Charging_Adjusted_Penalty>  (326) 
0

>  <i_epik_Tot_Q>  (326) 
0

>  <i_epik_Tot_abs_Q>  (326) 
0

>  <s_lp_Force_Field>  (326) 
OPLS3e

>  <r_lp_Energy>  (326) 
129.9

>  <b_lp_Chiralities_Consistent>  (326) 
1

>  <s_lp_Variant>  (326) 
111:0-1

>  <s_i_glide_gridfile>  (326) 
pfpi4k_grid

>  <i_i_glide_lignum>  (326) 
23

>  <i_i_glide_rotatable_bonds>  (326) 
0

>  <r_i_docking_score>  (326) 
-1.44458

>  <r_i_glide_ligand_efficiency>  (326) 
-0.0412738

>  <r_i_glide_ligand_efficiency_sa>  (326) 
-0.135009

>  <r_i_glide_ligand_efficiency_ln>  (326) 
-0.317118

>  <r_i_glide_gscore>  (326) 
-1.44458

>  <r_i_glide_lipo>  (326) 
-0.166727

>  <r_i_glide_hbond>  (326) 
0

>  <r_i_glide_metal>  (326) 
-0

>  <r_i_glide_rewards>  (326) 
-0.144636

>  <r_i_glide_evdw>  (326) 
-23.5245

>  <r_i_glide_ecoul>  (326) 
0.286686

>  <r_i_glide_erotb>  (326) 
0

>  <r_i_glide_esite>  (326) 
0

>  <r_i_glide_emodel>  (326) 
-25.3045

>  <r_i_glide_energy>  (326) 
-23.2378

>  <r_i_glide_einternal>  (326) 
0

>  <r_i_glide_intrahb_reward>  (326) 
-0

>  <i_i_glide_confnum>  (326) 
1

>  <i_i_glide_posenum>  (326) 
13

>  <r_i_glide_eff_state_penalty>  (326) 
0

>  <ligand_id>  (326) 
111

>  <original_smiles>  (326) 
CC1CCC2(C)CCC3(C)C(=CC(=O)C4C3CCC3C4(C)CCC4C(C)(C)CCCC43C)C2C1C

>  <smiles>  (326) 
[H]C1=C2C3([H])C([H])(C([H])([H])[H])C([H])(C([H])([H])[H])C([H])([H])C([H])([H])C3(C([H])([H])[H])C([H])([H])C([H])([H])C2(C([H])([H])[H])C2([H])C([H])([H])C([H])([H])C3([H])C(C([H])([H])[H])(C([H])([H])C([H])([H])C4([H])C(C([H])([H])[H])(C([H])([H])[H])C([H])([H])C([H])([H])C([H])([H])C43C([H])([H])[H])C2([H])C1=O

$$$$
112:0:0
     RDKit          3D

 75 80  0  0  1  0  0  0  0  0999 V2000
    1.1010   -5.0153    6.2057 C   0  0  0  0  0  0  0  0  0  0  0  0
    0.5294   -5.4278    4.8287 C   0  0  2  0  0  0  0  0  0  0  0  0
   -0.7451   -6.2613    5.0883 C   0  0  0  0  0  0  0  0  0  0  0  0
   -0.2510   -7.7087    5.2113 C   0  0  0  0  0  0  0  0  0  0  0  0
    0.9591   -7.7914    4.2747 C   0  0  1  0  0  0  0  0  0  0  0  0
    0.7230   -7.9615    2.7744 C   0  0  0  0  0  0  0  0  0  0  0  0
    1.7654   -8.8051    2.0097 C   0  0  0  0  0  0  0  0  0  0  0  0
   -0.6553   -8.3522    2.2569 C   0  0  0  0  0  0  0  0  0  0  0  0
    0.9073   -6.5152    2.5920 O   0  0  0  0  0  0  0  0  0  0  0  0
    1.4102   -6.3678    3.9685 C   0  0  1  0  0  0  0  0  0  0  0  0
    2.9493   -6.0530    3.9661 C   0  0  0  0  0  0  0  0  0  0  0  0
    3.5353   -5.2314    2.7585 C   0  0  1  0  0  0  0  0  0  0  0  0
    3.5198   -6.1422    1.4395 C   0  0  0  0  0  0  0  0  0  0  0  0
    4.8515   -6.6340    0.6421 C   0  0  0  0  0  0  0  0  0  0  0  0
    6.2491   -5.9073    0.5906 C   0  0  1  0  0  0  0  0  0  0  0  0
    6.2413   -4.4997   -0.0714 C   0  0  0  0  0  0  0  0  0  0  0  0
    5.2468   -3.7283    0.8056 C   0  0  1  0  0  0  0  0  0  0  0  0
    5.3201   -2.3705    1.2084 O   0  0  0  0  0  0  0  0  0  0  0  0
    4.2037   -1.9659    2.0680 C   0  0  0  0  0  0  0  0  0  0  0  0
    4.6159   -1.7713    3.5409 C   0  0  0  0  0  0  0  0  0  0  0  0
    3.8580   -0.5716    1.5098 C   0  0  0  0  0  0  0  0  0  0  0  0
    2.9217   -2.8969    1.9473 C   0  0  1  0  0  0  0  0  0  0  0  0
    2.6508   -3.2289    0.5057 C   0  0  0  0  0  0  0  0  0  0  0  0
    3.9435   -3.7262   -0.1469 C   0  0  1  0  0  0  0  0  0  0  0  0
    4.0788   -2.9398   -1.4703 C   0  0  0  0  0  0  0  0  0  0  0  0
    2.7419   -4.0829    2.7440 O   0  0  0  0  0  0  0  0  0  0  0  0
    5.6933   -4.4448    2.2002 C   0  0  1  0  0  0  0  0  0  0  0  0
    4.7844   -4.8878    3.1609 O   0  0  0  0  0  0  0  0  0  0  0  0
    6.7132   -5.5919    1.9904 C   0  0  0  0  0  0  0  0  0  0  0  0
    6.6408   -6.8039    2.9620 C   0  0  0  0  0  0  0  0  0  0  0  0
    8.1999   -5.1193    2.0507 C   0  0  0  0  0  0  0  0  0  0  0  0
    1.4002   -5.8889    6.7943 H   0  0  0  0  0  0  0  0  0  0  0  0
    0.3535   -4.4818    6.8036 H   0  0  0  0  0  0  0  0  0  0  0  0
    1.9515   -4.3444    6.1333 H   0  0  0  0  0  0  0  0  0  0  0  0
    0.2726   -4.5075    4.2845 H   0  0  0  0  0  0  0  0  0  0  0  0
   -1.3225   -5.9307    5.9610 H   0  0  0  0  0  0  0  0  0  0  0  0
   -1.3952   -6.1861    4.2275 H   0  0  0  0  0  0  0  0  0  0  0  0
    0.0654   -7.9062    6.2298 H   0  0  0  0  0  0  0  0  0  0  0  0
   -1.0312   -8.4416    4.9601 H   0  0  0  0  0  0  0  0  0  0  0  0
    1.7463   -8.4324    4.6445 H   0  0  0  0  0  0  0  0  0  0  0  0
    1.5498   -9.8717    2.0511 H   0  0  0  0  0  0  0  0  0  0  0  0
    2.7576   -8.6945    2.4064 H   0  0  0  0  0  0  0  0  0  0  0  0
    1.7868   -8.5218    0.9507 H   0  0  0  0  0  0  0  0  0  0  0  0
   -0.8484   -9.4115    2.4769 H   0  0  0  0  0  0  0  0  0  0  0  0
   -0.7368   -8.2352    1.1739 H   0  0  0  0  0  0  0  0  0  0  0  0
   -1.4698   -7.7784    2.6966 H   0  0  0  0  0  0  0  0  0  0  0  0
    3.2281   -5.4970    4.8590 H   0  0  0  0  0  0  0  0  0  0  0  0
    3.5255   -6.9671    4.0659 H   0  0  0  0  0  0  0  0  0  0  0  0
    3.2808   -7.0288    1.8125 H   0  0  0  0  0  0  0  0  0  0  0  0
    2.6996   -5.8688    0.7733 H   0  0  0  0  0  0  0  0  0  0  0  0
    5.0424   -7.6616    0.9630 H   0  0  0  0  0  0  0  0  0  0  0  0
    4.5537   -6.7961   -0.3871 H   0  0  0  0  0  0  0  0  0  0  0  0
    6.9949   -6.5316    0.1001 H   0  0  0  0  0  0  0  0  0  0  0  0
    7.2288   -4.0229   -0.0931 H   0  0  0  0  0  0  0  0  0  0  0  0
    5.9698   -4.6282   -1.1082 H   0  0  0  0  0  0  0  0  0  0  0  0
    3.8479   -1.2240    4.0950 H   0  0  0  0  0  0  0  0  0  0  0  0
    5.5443   -1.1939    3.6104 H   0  0  0  0  0  0  0  0  0  0  0  0
    4.7679   -2.6918    4.0927 H   0  0  0  0  0  0  0  0  0  0  0  0
    2.9827   -0.1426    2.0011 H   0  0  0  0  0  0  0  0  0  0  0  0
    3.6481   -0.5908    0.4471 H   0  0  0  0  0  0  0  0  0  0  0  0
    4.6889    0.1220    1.6538 H   0  0  0  0  0  0  0  0  0  0  0  0
    2.0722   -2.3135    2.2965 H   0  0  0  0  0  0  0  0  0  0  0  0
    1.8342   -3.9365    0.3860 H   0  0  0  0  0  0  0  0  0  0  0  0
    2.2938   -2.3166    0.0307 H   0  0  0  0  0  0  0  0  0  0  0  0
    3.7470   -4.7063   -0.5674 H   0  0  0  0  0  0  0  0  0  0  0  0
    4.3346   -1.8918   -1.3105 H   0  0  0  0  0  0  0  0  0  0  0  0
    3.1341   -2.9661   -2.0207 H   0  0  0  0  0  0  0  0  0  0  0  0
    4.8074   -3.3517   -2.1765 H   0  0  0  0  0  0  0  0  0  0  0  0
    6.2332   -3.7046    2.7670 H   0  0  0  0  0  0  0  0  0  0  0  0
    6.9469   -6.5239    3.9663 H   0  0  0  0  0  0  0  0  0  0  0  0
    7.3040   -7.6062    2.6345 H   0  0  0  0  0  0  0  0  0  0  0  0
    5.6452   -7.2459    3.0626 H   0  0  0  0  0  0  0  0  0  0  0  0
    8.5641   -5.0956    3.0782 H   0  0  0  0  0  0  0  0  0  0  0  0
    8.3603   -4.1201    1.6594 H   0  0  0  0  0  0  0  0  0  0  0  0
    8.8545   -5.8079    1.5138 H   0  0  0  0  0  0  0  0  0  0  0  0
  1  2  1  0
  1 32  1  0
  1 33  1  0
  1 34  1  0
  2 10  1  0
  2  3  1  0
  2 35  1  6
  3  4  1  0
  3 36  1  0
  3 37  1  0
  4  5  1  0
  4 38  1  0
  4 39  1  0
  5 10  1  0
  5  6  1  0
  5 40  1  1
  6  7  1  0
  6  8  1  0
  6  9  1  0
  7 41  1  0
  7 42  1  0
  7 43  1  0
  8 44  1  0
  8 45  1  0
  8 46  1  0
  9 10  1  0
 10 11  1  6
 12 11  1  1
 11 47  1  0
 11 48  1  0
 12 26  1  0
 12 28  1  0
 12 13  1  0
 13 14  1  0
 13 49  1  0
 13 50  1  0
 14 15  1  0
 14 51  1  0
 14 52  1  0
 15 29  1  0
 15 16  1  0
 15 53  1  6
 17 16  1  6
 16 54  1  0
 16 55  1  0
 17 24  1  0
 17 18  1  0
 17 27  1  0
 18 19  1  0
 19 20  1  0
 19 21  1  0
 19 22  1  0
 20 56  1  0
 20 57  1  0
 20 58  1  0
 21 59  1  0
 21 60  1  0
 21 61  1  0
 22 23  1  0
 22 26  1  0
 22 62  1  1
 23 24  1  0
 23 63  1  0
 23 64  1  0
 24 25  1  0
 24 65  1  6
 25 66  1  0
 25 67  1  0
 25 68  1  0
 27 28  1  0
 27 29  1  0
 27 69  1  1
 29 30  1  0
 29 31  1  0
 30 70  1  0
 30 71  1  0
 30 72  1  0
 31 73  1  0
 31 74  1  0
 31 75  1  0
M  END
>  <i_m_ct_stereo_status>  (327) 
1

>  <s_m_source_file>  (327) 
/var/tmp/pbs.5076255.sched01/tmporjl5eer/117expd_qi0.sdf

>  <i_m_source_file_index>  (327) 
24

>  <i_lp_mmshare_version>  (327) 
48012

>  <i_f3d_flags>  (327) 
0

>  <s_epik_input>  (327) 
W0NIM11bQ0BASF0xW0NIMl1bQ0gyXVtDQEBIXShDKE8yKShbQ0gzXSlbQ0gzXSlbQ0BdMTJbQ0gyXVtDQEBdKE9bQ0BASF0zW0NAXTQ1NikoW0NIMl1bQ0gyXVtDQEBIXShbQ0gyXTQpQzMoW0NIM10pW0NIM10pT1tDQEBIXShDKE81KShbQ0gzXSlbQ0gzXSlbQ0gyXVtDQEhdNltDSDNd

>  <s_epik_cmdline>  (327) 
J2VwaWtfcHl0aG9uJywgJy1waHQnLCAnMi4wJywgJy1waCcsICc3LjAnLCAnLXRuJywgJzgnLCAnLW1hJywgJzIwMCcsICctaW1hZScsICc8aW5maWxlLm1hZT4nLCAnLW9tYWUnLCAnPG91dGZpbGUubWFlPic=

>  <r_lp_tautomer_probability>  (327) 
1

>  <r_epik_Ionization_Penalty>  (327) 
2.53648e-11

>  <r_epik_Ionization_Penalty_Charging>  (327) 
0

>  <r_epik_Ionization_Penalty_Neutral>  (327) 
2.53648e-11

>  <r_epik_State_Penalty>  (327) 
-0

>  <r_epik_Charging_Adjusted_Penalty>  (327) 
0

>  <i_epik_Tot_Q>  (327) 
0

>  <i_epik_Tot_abs_Q>  (327) 
0

>  <s_lp_Force_Field>  (327) 
OPLS3e

>  <r_lp_Energy>  (327) 
136.456

>  <b_lp_Chiralities_Consistent>  (327) 
1

>  <s_lp_Variant>  (327) 
112:0-1

>  <s_i_glide_gridfile>  (327) 
pfpi4k_grid

>  <i_i_glide_lignum>  (327) 
24

>  <i_i_glide_rotatable_bonds>  (327) 
2

>  <r_i_docking_score>  (327) 
-2.05953

>  <r_i_glide_ligand_efficiency>  (327) 
-0.0664365

>  <r_i_glide_ligand_efficiency_sa>  (327) 
-0.208702

>  <r_i_glide_ligand_efficiency_ln>  (327) 
-0.464488

>  <r_i_glide_gscore>  (327) 
-2.05953

>  <r_i_glide_lipo>  (327) 
-0.539991

>  <r_i_glide_hbond>  (327) 
0

>  <r_i_glide_metal>  (327) 
-0

>  <r_i_glide_rewards>  (327) 
-0.459301

>  <r_i_glide_evdw>  (327) 
-20.5372

>  <r_i_glide_ecoul>  (327) 
-1.64012

>  <r_i_glide_erotb>  (327) 
0.212639

>  <r_i_glide_esite>  (327) 
0

>  <r_i_glide_emodel>  (327) 
-20.4329

>  <r_i_glide_energy>  (327) 
-22.1774

>  <r_i_glide_einternal>  (327) 
2.82193

>  <r_i_glide_intrahb_reward>  (327) 
-0

>  <i_i_glide_confnum>  (327) 
3

>  <i_i_glide_posenum>  (327) 
13

>  <r_i_glide_eff_state_penalty>  (327) 
0

>  <ligand_id>  (327) 
112

>  <original_smiles>  (327) 
CC1CCC2C(C)(C)OC12CC12CCC3CC4(OC(C)(C)C(CC4C)O1)C(O2)C3(C)C

>  <smiles>  (327) 
[H]C([H])([H])C1([H])C([H])([H])C2([H])OC3(C([H])([H])C45OC(C([H])([H])[H])(C([H])([H])[H])C4([H])C([H])([H])C([H])([H])C5([H])C([H])([H])[H])OC4([H])C1(OC2(C([H])([H])[H])C([H])([H])[H])C([H])([H])C([H])(C([H])([H])C3([H])[H])C4(C([H])([H])[H])C([H])([H])[H]

$$$$
112:0:1
     RDKit          3D

 75 80  0  0  1  0  0  0  0  0999 V2000
    4.6932   -6.2253    0.1638 C   0  0  0  0  0  0  0  0  0  0  0  0
    3.8249   -4.9473    0.1281 C   0  0  2  0  0  0  0  0  0  0  0  0
    4.3019   -4.0930   -1.0615 C   0  0  0  0  0  0  0  0  0  0  0  0
    5.4104   -3.2021   -0.4871 C   0  0  0  0  0  0  0  0  0  0  0  0
    5.0137   -2.9703    0.9707 C   0  0  1  0  0  0  0  0  0  0  0  0
    3.9372   -1.9361    1.3047 C   0  0  0  0  0  0  0  0  0  0  0  0
    4.0210   -1.2261    2.6559 C   0  0  0  0  0  0  0  0  0  0  0  0
    3.5388   -0.9039    0.2488 C   0  0  0  0  0  0  0  0  0  0  0  0
    2.9376   -2.9891    1.3550 O   0  0  0  0  0  0  0  0  0  0  0  0
    3.9723   -4.0211    1.3576 C   0  0  1  0  0  0  0  0  0  0  0  0
    4.0573   -4.7379    2.7390 C   0  0  0  0  0  0  0  0  0  0  0  0
    2.7947   -5.4752    3.2897 C   0  0  1  0  0  0  0  0  0  0  0  0
    1.6463   -4.4139    3.6558 C   0  0  0  0  0  0  0  0  0  0  0  0
    1.0038   -4.2369    5.1195 C   0  0  0  0  0  0  0  0  0  0  0  0
    0.9994   -5.2987    6.2959 C   0  0  1  0  0  0  0  0  0  0  0  0
    0.1680   -6.5837    6.0566 C   0  0  0  0  0  0  0  0  0  0  0  0
    0.8567   -7.1772    4.8186 C   0  0  1  0  0  0  0  0  0  0  0  0
    1.0861   -8.5550    4.5510 O   0  0  0  0  0  0  0  0  0  0  0  0
    1.7842   -8.7657    3.2840 C   0  0  0  0  0  0  0  0  0  0  0  0
    3.2556   -9.2023    3.4573 C   0  0  0  0  0  0  0  0  0  0  0  0
    1.0528   -9.9926    2.7031 C   0  0  0  0  0  0  0  0  0  0  0  0
    1.6527   -7.5559    2.2685 C   0  0  1  0  0  0  0  0  0  0  0  0
    0.2498   -7.0442    2.2305 C   0  0  0  0  0  0  0  0  0  0  0  0
   -0.1949   -6.7819    3.6645 C   0  0  1  0  0  0  0  0  0  0  0  0
   -1.5825   -7.4717    3.7964 C   0  0  0  0  0  0  0  0  0  0  0  0
    2.4979   -6.3894    2.2554 O   0  0  0  0  0  0  0  0  0  0  0  0
    2.3577   -6.7362    5.2479 C   0  0  1  0  0  0  0  0  0  0  0  0
    3.2714   -6.1514    4.3653 O   0  0  0  0  0  0  0  0  0  0  0  0
    2.3822   -5.8482    6.5114 C   0  0  0  0  0  0  0  0  0  0  0  0
    3.4865   -4.7548    6.6025 C   0  0  0  0  0  0  0  0  0  0  0  0
    2.5257   -6.6665    7.8264 C   0  0  0  0  0  0  0  0  0  0  0  0
    5.7454   -5.9886    0.3112 H   0  0  0  0  0  0  0  0  0  0  0  0
    4.6141   -6.7630   -0.7802 H   0  0  0  0  0  0  0  0  0  0  0  0
    4.4099   -6.9305    0.9419 H   0  0  0  0  0  0  0  0  0  0  0  0
    2.7844   -5.2388   -0.0221 H   0  0  0  0  0  0  0  0  0  0  0  0
    4.6242   -4.6709   -1.9260 H   0  0  0  0  0  0  0  0  0  0  0  0
    3.4631   -3.4866   -1.4001 H   0  0  0  0  0  0  0  0  0  0  0  0
    6.3649   -3.7292   -0.5436 H   0  0  0  0  0  0  0  0  0  0  0  0
    5.5293   -2.2839   -1.0595 H   0  0  0  0  0  0  0  0  0  0  0  0
    5.8583   -2.9236    1.6579 H   0  0  0  0  0  0  0  0  0  0  0  0
    4.7883   -0.4508    2.6380 H   0  0  0  0  0  0  0  0  0  0  0  0
    4.2706   -1.8968    3.4776 H   0  0  0  0  0  0  0  0  0  0  0  0
    3.0743   -0.7472    2.9048 H   0  0  0  0  0  0  0  0  0  0  0  0
    4.3319   -0.1727    0.0986 H   0  0  0  0  0  0  0  0  0  0  0  0
    2.6428   -0.3597    0.5438 H   0  0  0  0  0  0  0  0  0  0  0  0
    3.3224   -1.3526   -0.7180 H   0  0  0  0  0  0  0  0  0  0  0  0
    4.8717   -5.4615    2.7087 H   0  0  0  0  0  0  0  0  0  0  0  0
    4.3719   -4.0311    3.5045 H   0  0  0  0  0  0  0  0  0  0  0  0
    2.0851   -3.4314    3.4997 H   0  0  0  0  0  0  0  0  0  0  0  0
    0.8970   -4.4232    2.8725 H   0  0  0  0  0  0  0  0  0  0  0  0
    1.4575   -3.3355    5.5362 H   0  0  0  0  0  0  0  0  0  0  0  0
   -0.0333   -3.9323    4.9685 H   0  0  0  0  0  0  0  0  0  0  0  0
    0.6427   -4.8068    7.2028 H   0  0  0  0  0  0  0  0  0  0  0  0
    0.1807   -7.2838    6.8884 H   0  0  0  0  0  0  0  0  0  0  0  0
   -0.8675   -6.2775    5.9613 H   0  0  0  0  0  0  0  0  0  0  0  0
    3.6516   -9.6025    2.5233 H   0  0  0  0  0  0  0  0  0  0  0  0
    3.3456   -9.9887    4.2058 H   0  0  0  0  0  0  0  0  0  0  0  0
    3.9213   -8.3933    3.7422 H   0  0  0  0  0  0  0  0  0  0  0  0
    1.4205  -10.2379    1.7070 H   0  0  0  0  0  0  0  0  0  0  0  0
   -0.0204   -9.8309    2.6201 H   0  0  0  0  0  0  0  0  0  0  0  0
    1.1923  -10.8721    3.3320 H   0  0  0  0  0  0  0  0  0  0  0  0
    1.8563   -7.9717    1.2826 H   0  0  0  0  0  0  0  0  0  0  0  0
    0.1781   -6.1582    1.6049 H   0  0  0  0  0  0  0  0  0  0  0  0
   -0.3806   -7.7864    1.7371 H   0  0  0  0  0  0  0  0  0  0  0  0
   -0.4759   -5.7475    3.7444 H   0  0  0  0  0  0  0  0  0  0  0  0
   -1.5024   -8.5579    3.8076 H   0  0  0  0  0  0  0  0  0  0  0  0
   -2.2075   -7.2018    2.9458 H   0  0  0  0  0  0  0  0  0  0  0  0
   -2.1607   -7.1837    4.6709 H   0  0  0  0  0  0  0  0  0  0  0  0
    2.8791   -7.6322    5.5827 H   0  0  0  0  0  0  0  0  0  0  0  0
    4.4741   -5.2051    6.7127 H   0  0  0  0  0  0  0  0  0  0  0  0
    3.3183   -4.1135    7.4697 H   0  0  0  0  0  0  0  0  0  0  0  0
    3.5483   -4.0994    5.7357 H   0  0  0  0  0  0  0  0  0  0  0  0
    3.5731   -6.8864    8.0352 H   0  0  0  0  0  0  0  0  0  0  0  0
    2.0288   -7.6354    7.8107 H   0  0  0  0  0  0  0  0  0  0  0  0
    2.1414   -6.1080    8.6820 H   0  0  0  0  0  0  0  0  0  0  0  0
  1  2  1  0
  1 32  1  0
  1 33  1  0
  1 34  1  0
  2 10  1  0
  2  3  1  0
  2 35  1  6
  3  4  1  0
  3 36  1  0
  3 37  1  0
  4  5  1  0
  4 38  1  0
  4 39  1  0
  5 10  1  0
  5  6  1  0
  5 40  1  1
  6  7  1  0
  6  8  1  0
  6  9  1  0
  7 41  1  0
  7 42  1  0
  7 43  1  0
  8 44  1  0
  8 45  1  0
  8 46  1  0
  9 10  1  0
 10 11  1  1
 12 11  1  6
 11 47  1  0
 11 48  1  0
 12 26  1  0
 12 28  1  0
 12 13  1  0
 13 14  1  0
 13 49  1  0
 13 50  1  0
 14 15  1  0
 14 51  1  0
 14 52  1  0
 15 29  1  0
 15 16  1  0
 15 53  1  1
 17 16  1  1
 16 54  1  0
 16 55  1  0
 17 24  1  0
 17 18  1  0
 17 27  1  0
 18 19  1  0
 19 20  1  0
 19 21  1  0
 19 22  1  0
 20 56  1  0
 20 57  1  0
 20 58  1  0
 21 59  1  0
 21 60  1  0
 21 61  1  0
 22 23  1  0
 22 26  1  0
 22 62  1  6
 23 24  1  0
 23 63  1  0
 23 64  1  0
 24 25  1  0
 24 65  1  6
 25 66  1  0
 25 67  1  0
 25 68  1  0
 27 28  1  0
 27 29  1  0
 27 69  1  1
 29 30  1  0
 29 31  1  0
 30 70  1  0
 30 71  1  0
 30 72  1  0
 31 73  1  0
 31 74  1  0
 31 75  1  0
M  END
>  <i_m_ct_stereo_status>  (328) 
1

>  <s_m_source_file>  (328) 
/var/tmp/pbs.5076255.sched01/tmporjl5eer/117expd_qi0.sdf

>  <i_m_source_file_index>  (328) 
24

>  <i_lp_mmshare_version>  (328) 
48012

>  <i_f3d_flags>  (328) 
0

>  <s_epik_input>  (328) 
W0NIM11bQ0BASF0xW0NIMl1bQ0gyXVtDQEBIXShDKE8yKShbQ0gzXSlbQ0gzXSlbQ0BdMTJbQ0gyXVtDQEBdKE9bQ0BASF0zW0NAXTQ1NikoW0NIMl1bQ0gyXVtDQEBIXShbQ0gyXTQpQzMoW0NIM10pW0NIM10pT1tDQEBIXShDKE81KShbQ0gzXSlbQ0gzXSlbQ0gyXVtDQEhdNltDSDNd

>  <s_epik_cmdline>  (328) 
J2VwaWtfcHl0aG9uJywgJy1waHQnLCAnMi4wJywgJy1waCcsICc3LjAnLCAnLXRuJywgJzgnLCAnLW1hJywgJzIwMCcsICctaW1hZScsICc8aW5maWxlLm1hZT4nLCAnLW9tYWUnLCAnPG91dGZpbGUubWFlPic=

>  <r_lp_tautomer_probability>  (328) 
1

>  <r_epik_Ionization_Penalty>  (328) 
2.53648e-11

>  <r_epik_Ionization_Penalty_Charging>  (328) 
0

>  <r_epik_Ionization_Penalty_Neutral>  (328) 
2.53648e-11

>  <r_epik_State_Penalty>  (328) 
-0

>  <r_epik_Charging_Adjusted_Penalty>  (328) 
0

>  <i_epik_Tot_Q>  (328) 
0

>  <i_epik_Tot_abs_Q>  (328) 
0

>  <s_lp_Force_Field>  (328) 
OPLS3e

>  <r_lp_Energy>  (328) 
136.456

>  <b_lp_Chiralities_Consistent>  (328) 
1

>  <s_lp_Variant>  (328) 
112:0-1

>  <s_i_glide_gridfile>  (328) 
pfpi4k_grid

>  <i_i_glide_lignum>  (328) 
24

>  <i_i_glide_rotatable_bonds>  (328) 
2

>  <r_i_docking_score>  (328) 
-1.53845

>  <r_i_glide_ligand_efficiency>  (328) 
-0.0496275

>  <r_i_glide_ligand_efficiency_sa>  (328) 
-0.155899

>  <r_i_glide_ligand_efficiency_ln>  (328) 
-0.346968

>  <r_i_glide_gscore>  (328) 
-1.53845

>  <r_i_glide_lipo>  (328) 
-0.322936

>  <r_i_glide_hbond>  (328) 
0

>  <r_i_glide_metal>  (328) 
-0

>  <r_i_glide_rewards>  (328) 
-0.459301

>  <r_i_glide_evdw>  (328) 
-21.9305

>  <r_i_glide_ecoul>  (328) 
0.854465

>  <r_i_glide_erotb>  (328) 
0.212639

>  <r_i_glide_esite>  (328) 
-0.000498109

>  <r_i_glide_emodel>  (328) 
-22.1412

>  <r_i_glide_energy>  (328) 
-21.0761

>  <r_i_glide_einternal>  (328) 
1.89385

>  <r_i_glide_intrahb_reward>  (328) 
-0

>  <i_i_glide_confnum>  (328) 
4

>  <i_i_glide_posenum>  (328) 
4

>  <r_i_glide_eff_state_penalty>  (328) 
0

>  <ligand_id>  (328) 
112

>  <original_smiles>  (328) 
CC1CCC2C(C)(C)OC12CC12CCC3CC4(OC(C)(C)C(CC4C)O1)C(O2)C3(C)C

>  <smiles>  (328) 
[H]C([H])([H])C1([H])C([H])([H])C2([H])OC3(C([H])([H])C45OC(C([H])([H])[H])(C([H])([H])[H])C4([H])C([H])([H])C([H])([H])C5([H])C([H])([H])[H])OC4([H])C1(OC2(C([H])([H])[H])C([H])([H])[H])C([H])([H])C([H])(C([H])([H])C3([H])[H])C4(C([H])([H])[H])C([H])([H])[H]

$$$$
112:0:2
     RDKit          3D

 75 80  0  0  1  0  0  0  0  0999 V2000
    5.1356   -4.1578    1.3959 C   0  0  0  0  0  0  0  0  0  0  0  0
    3.7727   -3.4303    1.3705 C   0  0  2  0  0  0  0  0  0  0  0  0
    3.9753   -2.0804    0.6570 C   0  0  0  0  0  0  0  0  0  0  0  0
    4.3559   -1.1002    1.7750 C   0  0  0  0  0  0  0  0  0  0  0  0
    3.6331   -1.6164    3.0186 C   0  0  1  0  0  0  0  0  0  0  0  0
    2.1400   -1.3247    3.2041 C   0  0  0  0  0  0  0  0  0  0  0  0
    1.6060   -1.2106    4.6308 C   0  0  0  0  0  0  0  0  0  0  0  0
    1.4853   -0.2368    2.3532 C   0  0  0  0  0  0  0  0  0  0  0  0
    1.8178   -2.6331    2.6617 O   0  0  0  0  0  0  0  0  0  0  0  0
    3.2076   -3.0622    2.7642 C   0  0  1  0  0  0  0  0  0  0  0  0
    3.3858   -4.1406    3.8777 C   0  0  0  0  0  0  0  0  0  0  0  0
    2.4989   -5.4241    3.8159 C   0  0  1  0  0  0  0  0  0  0  0  0
    0.9748   -5.0630    4.1818 C   0  0  0  0  0  0  0  0  0  0  0  0
    0.1566   -5.7006    5.4147 C   0  0  0  0  0  0  0  0  0  0  0  0
    0.4568   -7.0682    6.1600 C   0  0  1  0  0  0  0  0  0  0  0  0
    0.2680   -8.3620    5.3248 C   0  0  0  0  0  0  0  0  0  0  0  0
    1.2712   -8.1400    4.1843 C   0  0  1  0  0  0  0  0  0  0  0  0
    2.0845   -9.1273    3.5627 O   0  0  0  0  0  0  0  0  0  0  0  0
    2.9464   -8.5696    2.5242 C   0  0  0  0  0  0  0  0  0  0  0  0
    4.4368   -8.5100    2.9276 C   0  0  0  0  0  0  0  0  0  0  0  0
    2.8594   -9.6440    1.4246 C   0  0  0  0  0  0  0  0  0  0  0  0
    2.4394   -7.1875    1.9408 C   0  0  1  0  0  0  0  0  0  0  0  0
    0.9606   -7.2129    1.7128 C   0  0  0  0  0  0  0  0  0  0  0  0
    0.2822   -7.7107    2.9830 C   0  0  1  0  0  0  0  0  0  0  0  0
   -0.6952   -8.8356    2.5276 C   0  0  0  0  0  0  0  0  0  0  0  0
    2.7462   -5.9013    2.5130 O   0  0  0  0  0  0  0  0  0  0  0  0
    2.3963   -7.4146    5.1027 C   0  0  1  0  0  0  0  0  0  0  0  0
    3.0818   -6.2570    4.7197 O   0  0  0  0  0  0  0  0  0  0  0  0
    1.9093   -7.1453    6.5430 C   0  0  0  0  0  0  0  0  0  0  0  0
    2.4409   -5.8653    7.2513 C   0  0  0  0  0  0  0  0  0  0  0  0
    2.2312   -8.3070    7.5238 C   0  0  0  0  0  0  0  0  0  0  0  0
    5.8748   -3.5975    1.9695 H   0  0  0  0  0  0  0  0  0  0  0  0
    5.5294   -4.2759    0.3848 H   0  0  0  0  0  0  0  0  0  0  0  0
    5.0735   -5.1567    1.8237 H   0  0  0  0  0  0  0  0  0  0  0  0
    3.0663   -4.0405    0.8060 H   0  0  0  0  0  0  0  0  0  0  0  0
    4.6985   -2.1153   -0.1575 H   0  0  0  0  0  0  0  0  0  0  0  0
    3.0265   -1.7873    0.2080 H   0  0  0  0  0  0  0  0  0  0  0  0
    5.4372   -1.1240    1.9294 H   0  0  0  0  0  0  0  0  0  0  0  0
    4.1033   -0.0721    1.5200 H   0  0  0  0  0  0  0  0  0  0  0  0
    4.1941   -1.4904    3.9433 H   0  0  0  0  0  0  0  0  0  0  0  0
    1.8664   -0.2450    5.0666 H   0  0  0  0  0  0  0  0  0  0  0  0
    2.0037   -1.9746    5.2968 H   0  0  0  0  0  0  0  0  0  0  0  0
    0.5202   -1.2993    4.6471 H   0  0  0  0  0  0  0  0  0  0  0  0
    1.8174    0.7523    2.6676 H   0  0  0  0  0  0  0  0  0  0  0  0
    0.4014   -0.2592    2.4424 H   0  0  0  0  0  0  0  0  0  0  0  0
    1.7127   -0.3300    1.2932 H   0  0  0  0  0  0  0  0  0  0  0  0
    4.4262   -4.4604    3.8986 H   0  0  0  0  0  0  0  0  0  0  0  0
    3.2397   -3.6928    4.8580 H   0  0  0  0  0  0  0  0  0  0  0  0
    0.9716   -4.0079    4.4441 H   0  0  0  0  0  0  0  0  0  0  0  0
    0.3975   -5.0259    3.2632 H   0  0  0  0  0  0  0  0  0  0  0  0
    0.1406   -4.9350    6.1933 H   0  0  0  0  0  0  0  0  0  0  0  0
   -0.8888   -5.7524    5.1103 H   0  0  0  0  0  0  0  0  0  0  0  0
   -0.1712   -7.1214    7.0506 H   0  0  0  0  0  0  0  0  0  0  0  0
    0.4810   -9.2791    5.8687 H   0  0  0  0  0  0  0  0  0  0  0  0
   -0.7826   -8.4412    5.0677 H   0  0  0  0  0  0  0  0  0  0  0  0
    5.0669   -8.3511    2.0528 H   0  0  0  0  0  0  0  0  0  0  0  0
    4.7569   -9.4432    3.3873 H   0  0  0  0  0  0  0  0  0  0  0  0
    4.6705   -7.7036    3.6149 H   0  0  0  0  0  0  0  0  0  0  0  0
    3.4133   -9.3578    0.5305 H   0  0  0  0  0  0  0  0  0  0  0  0
    1.8311   -9.8411    1.1301 H   0  0  0  0  0  0  0  0  0  0  0  0
    3.2706  -10.5893    1.7738 H   0  0  0  0  0  0  0  0  0  0  0  0
    2.9018   -7.0897    0.9580 H   0  0  0  0  0  0  0  0  0  0  0  0
    0.5926   -6.2402    1.4012 H   0  0  0  0  0  0  0  0  0  0  0  0
    0.7496   -7.8653    0.8669 H   0  0  0  0  0  0  0  0  0  0  0  0
   -0.4209   -6.9560    3.3013 H   0  0  0  0  0  0  0  0  0  0  0  0
   -0.1684   -9.7329    2.2077 H   0  0  0  0  0  0  0  0  0  0  0  0
   -1.2914   -8.4926    1.6801 H   0  0  0  0  0  0  0  0  0  0  0  0
   -1.4262   -9.1489    3.2716 H   0  0  0  0  0  0  0  0  0  0  0  0
    3.1996   -8.1322    5.2603 H   0  0  0  0  0  0  0  0  0  0  0  0
    3.5060   -5.9525    7.4679 H   0  0  0  0  0  0  0  0  0  0  0  0
    1.9237   -5.7131    8.1992 H   0  0  0  0  0  0  0  0  0  0  0  0
    2.3238   -4.9469    6.6799 H   0  0  0  0  0  0  0  0  0  0  0  0
    3.2447   -8.2175    7.9147 H   0  0  0  0  0  0  0  0  0  0  0  0
    2.1831   -9.2995    7.0791 H   0  0  0  0  0  0  0  0  0  0  0  0
    1.5571   -8.2947    8.3807 H   0  0  0  0  0  0  0  0  0  0  0  0
  1  2  1  0
  1 32  1  0
  1 33  1  0
  1 34  1  0
  2 10  1  0
  2  3  1  0
  2 35  1  6
  3  4  1  0
  3 36  1  0
  3 37  1  0
  4  5  1  0
  4 38  1  0
  4 39  1  0
  5 10  1  0
  5  6  1  0
  5 40  1  1
  6  7  1  0
  6  8  1  0
  6  9  1  0
  7 41  1  0
  7 42  1  0
  7 43  1  0
  8 44  1  0
  8 45  1  0
  8 46  1  0
  9 10  1  0
 10 11  1  1
 12 11  1  6
 11 47  1  0
 11 48  1  0
 12 26  1  0
 12 28  1  0
 12 13  1  0
 13 14  1  0
 13 49  1  0
 13 50  1  0
 14 15  1  0
 14 51  1  0
 14 52  1  0
 15 29  1  0
 15 16  1  0
 15 53  1  1
 17 16  1  1
 16 54  1  0
 16 55  1  0
 17 24  1  0
 17 18  1  0
 17 27  1  0
 18 19  1  0
 19 20  1  0
 19 21  1  0
 19 22  1  0
 20 56  1  0
 20 57  1  0
 20 58  1  0
 21 59  1  0
 21 60  1  0
 21 61  1  0
 22 23  1  0
 22 26  1  0
 22 62  1  6
 23 24  1  0
 23 63  1  0
 23 64  1  0
 24 25  1  0
 24 65  1  1
 25 66  1  0
 25 67  1  0
 25 68  1  0
 27 28  1  0
 27 29  1  0
 27 69  1  1
 29 30  1  0
 29 31  1  0
 30 70  1  0
 30 71  1  0
 30 72  1  0
 31 73  1  0
 31 74  1  0
 31 75  1  0
M  END
>  <i_m_ct_stereo_status>  (329) 
1

>  <s_m_source_file>  (329) 
/var/tmp/pbs.5076255.sched01/tmporjl5eer/117expd_qi0.sdf

>  <i_m_source_file_index>  (329) 
24

>  <i_lp_mmshare_version>  (329) 
48012

>  <i_f3d_flags>  (329) 
0

>  <s_epik_input>  (329) 
W0NIM11bQ0BASF0xW0NIMl1bQ0gyXVtDQEBIXShDKE8yKShbQ0gzXSlbQ0gzXSlbQ0BdMTJbQ0gyXVtDQEBdKE9bQ0BASF0zW0NAXTQ1NikoW0NIMl1bQ0gyXVtDQEBIXShbQ0gyXTQpQzMoW0NIM10pW0NIM10pT1tDQEBIXShDKE81KShbQ0gzXSlbQ0gzXSlbQ0gyXVtDQEhdNltDSDNd

>  <s_epik_cmdline>  (329) 
J2VwaWtfcHl0aG9uJywgJy1waHQnLCAnMi4wJywgJy1waCcsICc3LjAnLCAnLXRuJywgJzgnLCAnLW1hJywgJzIwMCcsICctaW1hZScsICc8aW5maWxlLm1hZT4nLCAnLW9tYWUnLCAnPG91dGZpbGUubWFlPic=

>  <r_lp_tautomer_probability>  (329) 
1

>  <r_epik_Ionization_Penalty>  (329) 
2.53648e-11

>  <r_epik_Ionization_Penalty_Charging>  (329) 
0

>  <r_epik_Ionization_Penalty_Neutral>  (329) 
2.53648e-11

>  <r_epik_State_Penalty>  (329) 
-0

>  <r_epik_Charging_Adjusted_Penalty>  (329) 
0

>  <i_epik_Tot_Q>  (329) 
0

>  <i_epik_Tot_abs_Q>  (329) 
0

>  <s_lp_Force_Field>  (329) 
OPLS3e

>  <r_lp_Energy>  (329) 
136.456

>  <b_lp_Chiralities_Consistent>  (329) 
1

>  <s_lp_Variant>  (329) 
112:0-1

>  <s_i_glide_gridfile>  (329) 
pfpi4k_grid

>  <i_i_glide_lignum>  (329) 
24

>  <i_i_glide_rotatable_bonds>  (329) 
2

>  <r_i_docking_score>  (329) 
-1.08077

>  <r_i_glide_ligand_efficiency>  (329) 
-0.0348636

>  <r_i_glide_ligand_efficiency_sa>  (329) 
-0.10952

>  <r_i_glide_ligand_efficiency_ln>  (329) 
-0.243747

>  <r_i_glide_gscore>  (329) 
-1.08077

>  <r_i_glide_lipo>  (329) 
-0.0793956

>  <r_i_glide_hbond>  (329) 
0

>  <r_i_glide_metal>  (329) 
-0

>  <r_i_glide_rewards>  (329) 
-0.459301

>  <r_i_glide_evdw>  (329) 
-20.2173

>  <r_i_glide_ecoul>  (329) 
1.70789

>  <r_i_glide_erotb>  (329) 
0.212639

>  <r_i_glide_esite>  (329) 
-3.36623e-05

>  <r_i_glide_emodel>  (329) 
-18.9878

>  <r_i_glide_energy>  (329) 
-18.5094

>  <r_i_glide_einternal>  (329) 
1.69819

>  <r_i_glide_intrahb_reward>  (329) 
-0

>  <i_i_glide_confnum>  (329) 
3

>  <i_i_glide_posenum>  (329) 
9

>  <r_i_glide_eff_state_penalty>  (329) 
0

>  <ligand_id>  (329) 
112

>  <original_smiles>  (329) 
CC1CCC2C(C)(C)OC12CC12CCC3CC4(OC(C)(C)C(CC4C)O1)C(O2)C3(C)C

>  <smiles>  (329) 
[H]C([H])([H])C1([H])C([H])([H])C2([H])OC3(C([H])([H])C45OC(C([H])([H])[H])(C([H])([H])[H])C4([H])C([H])([H])C([H])([H])C5([H])C([H])([H])[H])OC4([H])C1(OC2(C([H])([H])[H])C([H])([H])[H])C([H])([H])C([H])(C([H])([H])C3([H])[H])C4(C([H])([H])[H])C([H])([H])[H]

$$$$
113:0:0
     RDKit          3D

 64 70  0  0  1  0  0  0  0  0999 V2000
   -0.8519   -5.3593    6.0710 C   0  0  0  0  0  0  0  0  0  0  0  0
    0.1693   -5.5289    5.1033 O   0  0  0  0  0  0  0  0  0  0  0  0
    0.6758   -6.7915    4.9022 C   0  0  0  0  0  0  0  0  0  0  0  0
   -0.0010   -7.9855    5.2420 C   0  0  0  0  0  0  0  0  0  0  0  0
    0.5835   -9.2417    5.0036 C   0  0  0  0  0  0  0  0  0  0  0  0
    1.8588   -9.3296    4.4029 C   0  0  0  0  0  0  0  0  0  0  0  0
    2.4834  -10.5318    4.1513 O   0  0  0  0  0  0  0  0  0  0  0  0
    1.7419  -11.7372    4.2781 C   0  0  0  0  0  0  0  0  0  0  0  0
    2.5276   -8.1301    4.0415 C   0  0  0  0  0  0  0  0  0  0  0  0
    1.9347   -6.8819    4.2856 C   0  0  0  0  0  0  0  0  0  0  0  0
    2.5690   -5.7009    3.9990 O   0  0  0  0  0  0  0  0  0  0  0  0
    3.5837   -5.6526    2.9976 C   0  0  1  0  0  0  0  0  0  0  0  0
    2.9348   -4.6614    1.9790 C   0  0  0  0  0  0  0  0  0  0  0  0
    3.8079   -3.7983    1.0404 C   0  0  0  0  0  0  0  0  0  0  0  0
    4.6089   -4.5712    0.0669 N   0  0  1  0  0  0  0  0  0  0  0  0
    5.1086   -3.6878   -1.0216 C   0  0  0  0  0  0  0  0  0  0  0  0
    5.7295   -5.3160    0.7004 C   0  0  0  0  0  0  0  0  0  0  0  0
    5.3741   -6.4959    1.6131 C   0  0  2  0  0  0  0  0  0  0  0  0
    5.8328   -6.0934    2.9144 O   0  0  0  0  0  0  0  0  0  0  0  0
    4.9278   -5.1988    3.5848 C   0  0  2  0  0  0  0  0  0  0  0  0
    5.1075   -5.3095    5.1310 C   0  0  0  0  0  0  0  0  0  0  0  0
    4.8559   -6.7001    5.7204 C   0  0  0  0  0  0  0  0  0  0  0  0
    4.0646   -6.9098    6.6387 O   0  0  0  0  0  0  0  0  0  0  0  0
    5.6030   -7.6088    5.1124 O   0  0  0  0  0  0  0  0  0  0  0  0
    5.0700   -8.6196    4.2530 C   0  0  2  0  0  0  0  0  0  0  0  0
    6.2793   -9.1441    3.4413 C   0  0  0  0  0  0  0  0  0  0  0  0
    7.4291   -8.8072    3.7327 O   0  0  0  0  0  0  0  0  0  0  0  0
    6.0888  -10.1101    2.2650 C   0  0  1  0  0  0  0  0  0  0  0  0
    5.0369  -11.0303    2.4809 O   0  0  0  0  0  0  0  0  0  0  0  0
    5.9981   -9.3896    0.9015 C   0  0  0  0  0  0  0  0  0  0  0  0
    4.6390   -8.7467    0.4729 C   0  0  0  0  0  0  0  0  0  0  0  0
    4.2848   -7.3633    1.0089 C   0  0  1  0  0  0  0  0  0  0  0  0
    4.0646   -6.9575    2.3912 C   0  0  2  0  0  0  0  0  0  0  0  0
    3.8717   -8.1796    3.3319 C   0  0  2  0  0  0  0  0  0  0  0  0
   -1.0715   -4.2938    6.1423 H   0  0  0  0  0  0  0  0  0  0  0  0
   -0.5297   -5.7040    7.0549 H   0  0  0  0  0  0  0  0  0  0  0  0
   -1.7765   -5.8598    5.7762 H   0  0  0  0  0  0  0  0  0  0  0  0
   -0.9872   -7.9750    5.6736 H   0  0  0  0  0  0  0  0  0  0  0  0
    0.0220  -10.1215    5.2880 H   0  0  0  0  0  0  0  0  0  0  0  0
    2.4085  -12.5766    4.0887 H   0  0  0  0  0  0  0  0  0  0  0  0
    0.9253  -11.7753    3.5585 H   0  0  0  0  0  0  0  0  0  0  0  0
    1.3368  -11.8849    5.2798 H   0  0  0  0  0  0  0  0  0  0  0  0
    2.1574   -5.1724    1.4132 H   0  0  0  0  0  0  0  0  0  0  0  0
    2.3868   -3.9251    2.5671 H   0  0  0  0  0  0  0  0  0  0  0  0
    3.1183   -3.1727    0.4735 H   0  0  0  0  0  0  0  0  0  0  0  0
    4.4251   -3.0862    1.5862 H   0  0  0  0  0  0  0  0  0  0  0  0
    5.7837   -2.9206   -0.6319 H   0  0  0  0  0  0  0  0  0  0  0  0
    4.2915   -3.1806   -1.5410 H   0  0  0  0  0  0  0  0  0  0  0  0
    5.6565   -4.2585   -1.7751 H   0  0  0  0  0  0  0  0  0  0  0  0
    6.3076   -5.7538   -0.1069 H   0  0  0  0  0  0  0  0  0  0  0  0
    6.4151   -4.6384    1.2103 H   0  0  0  0  0  0  0  0  0  0  0  0
    5.1666   -4.1764    3.3008 H   0  0  0  0  0  0  0  0  0  0  0  0
    6.1217   -5.0224    5.4048 H   0  0  0  0  0  0  0  0  0  0  0  0
    4.4378   -4.6151    5.6345 H   0  0  0  0  0  0  0  0  0  0  0  0
    4.7533   -9.4635    4.8631 H   0  0  0  0  0  0  0  0  0  0  0  0
    7.0016  -10.7059    2.2344 H   0  0  0  0  0  0  0  0  0  0  0  0
    4.8082  -11.4638    1.6438 H   0  0  0  0  0  0  0  0  0  0  0  0
    6.8096   -8.6612    0.8404 H   0  0  0  0  0  0  0  0  0  0  0  0
    6.2686  -10.1495    0.1720 H   0  0  0  0  0  0  0  0  0  0  0  0
    4.6227   -8.5982   -0.6035 H   0  0  0  0  0  0  0  0  0  0  0  0
    3.8119   -9.4429    0.6158 H   0  0  0  0  0  0  0  0  0  0  0  0
    3.5704   -6.8970    0.3381 H   0  0  0  0  0  0  0  0  0  0  0  0
    3.6705   -9.0254    2.6992 H   0  0  0  0  0  0  0  0  0  0  0  0
    3.9952   -5.2346   -0.3949 H   0  0  0  0  0  0  0  0  0  0  0  0
  1  2  1  0
  1 35  1  0
  1 36  1  0
  1 37  1  0
  2  3  1  0
  3 10  2  0
  3  4  1  0
  4  5  2  0
  4 38  1  0
  5  6  1  0
  5 39  1  0
  6  7  1  0
  6  9  2  0
  7  8  1  0
  8 40  1  0
  8 41  1  0
  8 42  1  0
  9 34  1  0
  9 10  1  0
 10 11  1  0
 12 11  1  1
 12 20  1  0
 12 33  1  0
 12 13  1  0
 13 14  1  0
 13 43  1  0
 13 44  1  0
 14 15  1  0
 14 45  1  0
 14 46  1  0
 15 16  1  0
 15 17  1  0
 15 64  1  6
 16 47  1  0
 16 48  1  0
 16 49  1  0
 17 18  1  0
 17 50  1  0
 17 51  1  0
 18 32  1  0
 33 18  1  1
 18 19  1  1
 19 20  1  0
 20 21  1  0
 20 52  1  6
 21 22  1  0
 21 53  1  0
 21 54  1  0
 22 23  2  0
 22 24  1  0
 24 25  1  0
 25 34  1  0
 25 26  1  0
 25 55  1  1
 26 27  2  0
 26 28  1  0
 28 29  1  0
 28 30  1  0
 28 56  1  6
 29 57  1  0
 30 31  1  0
 30 58  1  0
 30 59  1  0
 31 32  1  0
 31 60  1  0
 31 61  1  0
 32 33  1  0
 32 62  1  6
 33 34  1  0
 34 63  1  6
M  CHG  1  15   1
M  END
>  <i_m_ct_stereo_status>  (330) 
1

>  <s_m_source_file>  (330) 
/var/tmp/pbs.5076255.sched01/tmporjl5eer/117expd_qi0.sdf

>  <i_m_source_file_index>  (330) 
25

>  <i_lp_mmshare_version>  (330) 
48012

>  <i_f3d_flags>  (330) 
0

>  <s_epik_input>  (330) 
W0NIM11PYzFbY0hdW2NIXWMoT1tDSDNdKWMoTzIpYzFbQ0BASF0zW0NASF0oT0MoPU8pW0NIMl1bQ0BIXTRPNSlDKD1PKVtDQEBIXShbT0hdKVtDSDJdW0NIMl1bQ0BASF02W0NAXTUoW0NAXTM2W0NAQF0yNDcpW0NIMl1OKFtDSDNdKVtDSDJdW0NIMl03

>  <s_epik_cmdline>  (330) 
J2VwaWtfcHl0aG9uJywgJy1waHQnLCAnMi4wJywgJy1waCcsICc3LjAnLCAnLXRuJywgJzgnLCAnLW1hJywgJzIwMCcsICctaW1hZScsICc8aW5maWxlLm1hZT4nLCAnLW9tYWUnLCAnPG91dGZpbGUubWFlPic=

>  <r_lp_tautomer_probability>  (330) 
1

>  <r_epik_Ionization_Penalty>  (330) 
0.0496011

>  <r_epik_Ionization_Penalty_Charging>  (330) 
0.0496002

>  <r_epik_Ionization_Penalty_Neutral>  (330) 
9.57842e-07

>  <r_epik_State_Penalty>  (330) 
0.0423774

>  <r_epik_Charging_Adjusted_Penalty>  (330) 
0.0919776

>  <i_epik_Tot_Q>  (330) 
1

>  <i_epik_Tot_abs_Q>  (330) 
1

>  <s_epik_Chemistry_Notes>  (330) 
This compound has an ester and may undergo hydrolysis at high or low pH.

>  <s_lp_Force_Field>  (330) 
OPLS3e

>  <r_lp_Energy>  (330) 
129.491

>  <b_lp_Chiralities_Consistent>  (330) 
1

>  <s_lp_Variant>  (330) 
113:0-1

>  <s_i_glide_gridfile>  (330) 
pfpi4k_grid

>  <i_i_glide_lignum>  (330) 
25

>  <i_i_glide_rotatable_bonds>  (330) 
3

>  <r_i_docking_score>  (330) 
-2.48915

>  <r_i_glide_ligand_efficiency>  (330) 
-0.0732102

>  <r_i_glide_ligand_efficiency_sa>  (330) 
-0.237173

>  <r_i_glide_ligand_efficiency_ln>  (330) 
-0.549922

>  <r_i_glide_gscore>  (330) 
-2.48915

>  <r_i_glide_lipo>  (330) 
-0.415924

>  <r_i_glide_hbond>  (330) 
0

>  <r_i_glide_metal>  (330) 
-0

>  <r_i_glide_rewards>  (330) 
-0.196834

>  <r_i_glide_evdw>  (330) 
-19.6625

>  <r_i_glide_ecoul>  (330) 
-5.95508

>  <r_i_glide_erotb>  (330) 
0

>  <r_i_glide_esite>  (330) 
0

>  <r_i_glide_emodel>  (330) 
-29.2553

>  <r_i_glide_energy>  (330) 
-25.6176

>  <r_i_glide_einternal>  (330) 
1.52806

>  <r_i_glide_intrahb_reward>  (330) 
-0

>  <i_i_glide_confnum>  (330) 
2

>  <i_i_glide_posenum>  (330) 
12

>  <r_i_glide_eff_state_penalty>  (330) 
0

>  <ligand_id>  (330) 
113

>  <original_smiles>  (330) 
COc1ccc(OC)c2c1OC13CCN(C)CC45OC1CC(=O)OC1C(=O)C(O)CCC4C35C21

>  <smiles>  (330) 
[H]OC1([H])C(=O)C2([H])OC(=O)C([H])([H])C3([H])OC45C([H])(C([H])([H])C1([H])[H])C41C2([H])c2c(OC([H])([H])[H])c([H])c([H])c(OC([H])([H])[H])c2OC31C([H])([H])C([H])([H])[N+]([H])(C([H])([H])[H])C5([H])[H]

$$$$
113:0:1
     RDKit          3D

 64 70  0  0  1  0  0  0  0  0999 V2000
    6.6377    0.9762    7.5593 C   0  0  0  0  0  0  0  0  0  0  0  0
    5.3685    1.5954    7.4524 O   0  0  0  0  0  0  0  0  0  0  0  0
    4.6282    1.3844    6.3071 C   0  0  0  0  0  0  0  0  0  0  0  0
    5.0308    0.5523    5.2405 C   0  0  0  0  0  0  0  0  0  0  0  0
    4.2125    0.4123    4.1033 C   0  0  0  0  0  0  0  0  0  0  0  0
    2.9776    1.0925    4.0164 C   0  0  0  0  0  0  0  0  0  0  0  0
    2.1400    0.9924    2.9212 O   0  0  0  0  0  0  0  0  0  0  0  0
    2.5828    0.2785    1.7732 C   0  0  0  0  0  0  0  0  0  0  0  0
    2.5613    1.9040    5.1043 C   0  0  0  0  0  0  0  0  0  0  0  0
    3.3902    2.0474    6.2333 C   0  0  0  0  0  0  0  0  0  0  0  0
    3.0556    2.8771    7.2722 O   0  0  0  0  0  0  0  0  0  0  0  0
    1.6879    3.2026    7.5383 C   0  0  1  0  0  0  0  0  0  0  0  0
    1.5129    2.5975    8.9705 C   0  0  0  0  0  0  0  0  0  0  0  0
    0.4669    3.1744    9.9567 C   0  0  0  0  0  0  0  0  0  0  0  0
   -0.9401    3.0338    9.5130 N   0  0  1  0  0  0  0  0  0  0  0  0
   -1.8776    3.2423   10.6523 C   0  0  0  0  0  0  0  0  0  0  0  0
   -1.2877    3.9178    8.3667 C   0  0  0  0  0  0  0  0  0  0  0  0
   -0.6348    3.6105    7.0110 C   0  0  2  0  0  0  0  0  0  0  0  0
    0.1964    4.7501    6.7356 O   0  0  0  0  0  0  0  0  0  0  0  0
    1.4512    4.7196    7.4400 C   0  0  2  0  0  0  0  0  0  0  0  0
    2.5149    5.5654    6.6756 C   0  0  0  0  0  0  0  0  0  0  0  0
    2.8029    5.1027    5.2478 C   0  0  0  0  0  0  0  0  0  0  0  0
    3.9369    4.8379    4.8523 O   0  0  0  0  0  0  0  0  0  0  0  0
    1.6881    5.0361    4.5338 O   0  0  0  0  0  0  0  0  0  0  0  0
    1.1118    3.8048    4.0853 C   0  0  2  0  0  0  0  0  0  0  0  0
   -0.3546    4.1508    3.7328 C   0  0  0  0  0  0  0  0  0  0  0  0
   -0.7482    5.3207    3.7313 O   0  0  0  0  0  0  0  0  0  0  0  0
   -1.3778    3.0602    3.3829 C   0  0  1  0  0  0  0  0  0  0  0  0
   -0.8221    1.9435    2.7218 O   0  0  0  0  0  0  0  0  0  0  0  0
   -2.2211    2.6195    4.5990 C   0  0  0  0  0  0  0  0  0  0  0  0
   -1.6286    1.6070    5.6209 C   0  0  0  0  0  0  0  0  0  0  0  0
   -0.6693    2.1203    6.7013 C   0  0  1  0  0  0  0  0  0  0  0  0
    0.6318    2.7734    6.5307 C   0  0  2  0  0  0  0  0  0  0  0  0
    1.2053    2.5949    5.0924 C   0  0  2  0  0  0  0  0  0  0  0  0
    7.0998    1.2838    8.4991 H   0  0  0  0  0  0  0  0  0  0  0  0
    7.2981    1.2847    6.7465 H   0  0  0  0  0  0  0  0  0  0  0  0
    6.5479   -0.1119    7.5713 H   0  0  0  0  0  0  0  0  0  0  0  0
    5.9597    0.0050    5.2667 H   0  0  0  0  0  0  0  0  0  0  0  0
    4.5570   -0.2303    3.3060 H   0  0  0  0  0  0  0  0  0  0  0  0
    1.8161    0.3178    0.9975 H   0  0  0  0  0  0  0  0  0  0  0  0
    2.7606   -0.7735    1.9955 H   0  0  0  0  0  0  0  0  0  0  0  0
    3.4885    0.7190    1.3567 H   0  0  0  0  0  0  0  0  0  0  0  0
    1.4168    1.5135    8.8986 H   0  0  0  0  0  0  0  0  0  0  0  0
    2.4624    2.7430    9.4893 H   0  0  0  0  0  0  0  0  0  0  0  0
    0.5767    2.6006   10.8791 H   0  0  0  0  0  0  0  0  0  0  0  0
    0.6882    4.2014   10.2442 H   0  0  0  0  0  0  0  0  0  0  0  0
   -1.8010    4.2582   11.0463 H   0  0  0  0  0  0  0  0  0  0  0  0
   -1.6678    2.5470   11.4673 H   0  0  0  0  0  0  0  0  0  0  0  0
   -2.9137    3.0782   10.3474 H   0  0  0  0  0  0  0  0  0  0  0  0
   -2.3572    3.8088    8.2031 H   0  0  0  0  0  0  0  0  0  0  0  0
   -1.1352    4.9632    8.6313 H   0  0  0  0  0  0  0  0  0  0  0  0
    1.3257    5.1711    8.4224 H   0  0  0  0  0  0  0  0  0  0  0  0
    2.1959    6.6052    6.6212 H   0  0  0  0  0  0  0  0  0  0  0  0
    3.4580    5.5529    7.2175 H   0  0  0  0  0  0  0  0  0  0  0  0
    1.5786    3.5231    3.1426 H   0  0  0  0  0  0  0  0  0  0  0  0
   -2.0568    3.5311    2.6710 H   0  0  0  0  0  0  0  0  0  0  0  0
   -1.5209    1.4595    2.3055 H   0  0  0  0  0  0  0  0  0  0  0  0
   -2.6029    3.4940    5.1288 H   0  0  0  0  0  0  0  0  0  0  0  0
   -3.0928    2.1509    4.1497 H   0  0  0  0  0  0  0  0  0  0  0  0
   -2.4764    1.1857    6.1611 H   0  0  0  0  0  0  0  0  0  0  0  0
   -1.1859    0.7500    5.1123 H   0  0  0  0  0  0  0  0  0  0  0  0
   -0.6492    1.4100    7.5256 H   0  0  0  0  0  0  0  0  0  0  0  0
    0.6368    1.7997    4.6437 H   0  0  0  0  0  0  0  0  0  0  0  0
   -1.0661    2.0709    9.2286 H   0  0  0  0  0  0  0  0  0  0  0  0
  1  2  1  0
  1 35  1  0
  1 36  1  0
  1 37  1  0
  2  3  1  0
  3 10  2  0
  3  4  1  0
  4  5  2  0
  4 38  1  0
  5  6  1  0
  5 39  1  0
  6  7  1  0
  6  9  2  0
  7  8  1  0
  8 40  1  0
  8 41  1  0
  8 42  1  0
  9 34  1  0
  9 10  1  0
 10 11  1  0
 12 11  1  6
 12 20  1  0
 12 33  1  0
 12 13  1  0
 13 14  1  0
 13 43  1  0
 13 44  1  0
 14 15  1  0
 14 45  1  0
 14 46  1  0
 15 16  1  0
 15 17  1  0
 15 64  1  6
 16 47  1  0
 16 48  1  0
 16 49  1  0
 17 18  1  0
 17 50  1  0
 17 51  1  0
 18 32  1  0
 33 18  1  6
 18 19  1  6
 19 20  1  0
 20 21  1  0
 20 52  1  1
 21 22  1  0
 21 53  1  0
 21 54  1  0
 22 23  2  0
 22 24  1  0
 24 25  1  0
 25 34  1  0
 25 26  1  0
 25 55  1  6
 26 27  2  0
 26 28  1  0
 28 29  1  0
 28 30  1  0
 28 56  1  6
 29 57  1  0
 30 31  1  0
 30 58  1  0
 30 59  1  0
 31 32  1  0
 31 60  1  0
 31 61  1  0
 32 33  1  0
 32 62  1  1
 33 34  1  0
 34 63  1  6
M  CHG  1  15   1
M  END
>  <i_m_ct_stereo_status>  (331) 
1

>  <s_m_source_file>  (331) 
/var/tmp/pbs.5076255.sched01/tmporjl5eer/117expd_qi0.sdf

>  <i_m_source_file_index>  (331) 
25

>  <i_lp_mmshare_version>  (331) 
48012

>  <i_f3d_flags>  (331) 
0

>  <s_epik_input>  (331) 
W0NIM11PYzFbY0hdW2NIXWMoT1tDSDNdKWMoTzIpYzFbQ0BASF0zW0NASF0oT0MoPU8pW0NIMl1bQ0BIXTRPNSlDKD1PKVtDQEBIXShbT0hdKVtDSDJdW0NIMl1bQ0BASF02W0NAXTUoW0NAXTM2W0NAQF0yNDcpW0NIMl1OKFtDSDNdKVtDSDJdW0NIMl03

>  <s_epik_cmdline>  (331) 
J2VwaWtfcHl0aG9uJywgJy1waHQnLCAnMi4wJywgJy1waCcsICc3LjAnLCAnLXRuJywgJzgnLCAnLW1hJywgJzIwMCcsICctaW1hZScsICc8aW5maWxlLm1hZT4nLCAnLW9tYWUnLCAnPG91dGZpbGUubWFlPic=

>  <r_lp_tautomer_probability>  (331) 
1

>  <r_epik_Ionization_Penalty>  (331) 
0.0496011

>  <r_epik_Ionization_Penalty_Charging>  (331) 
0.0496002

>  <r_epik_Ionization_Penalty_Neutral>  (331) 
9.57842e-07

>  <r_epik_State_Penalty>  (331) 
0.0423774

>  <r_epik_Charging_Adjusted_Penalty>  (331) 
0.0919776

>  <i_epik_Tot_Q>  (331) 
1

>  <i_epik_Tot_abs_Q>  (331) 
1

>  <s_epik_Chemistry_Notes>  (331) 
This compound has an ester and may undergo hydrolysis at high or low pH.

>  <s_lp_Force_Field>  (331) 
OPLS3e

>  <r_lp_Energy>  (331) 
129.491

>  <b_lp_Chiralities_Consistent>  (331) 
1

>  <s_lp_Variant>  (331) 
113:0-1

>  <s_i_glide_gridfile>  (331) 
pfpi4k_grid

>  <i_i_glide_lignum>  (331) 
25

>  <i_i_glide_rotatable_bonds>  (331) 
3

>  <r_i_docking_score>  (331) 
-2.09712

>  <r_i_glide_ligand_efficiency>  (331) 
-0.0616799

>  <r_i_glide_ligand_efficiency_sa>  (331) 
-0.199819

>  <r_i_glide_ligand_efficiency_ln>  (331) 
-0.463312

>  <r_i_glide_gscore>  (331) 
-2.09712

>  <r_i_glide_lipo>  (331) 
-0.0809249

>  <r_i_glide_hbond>  (331) 
-0.113496

>  <r_i_glide_metal>  (331) 
-0

>  <r_i_glide_rewards>  (331) 
-0.187448

>  <r_i_glide_evdw>  (331) 
-20.0119

>  <r_i_glide_ecoul>  (331) 
-3.99512

>  <r_i_glide_erotb>  (331) 
0

>  <r_i_glide_esite>  (331) 
-0.115386

>  <r_i_glide_emodel>  (331) 
-27.7379

>  <r_i_glide_energy>  (331) 
-24.007

>  <r_i_glide_einternal>  (331) 
0.231195

>  <r_i_glide_intrahb_reward>  (331) 
-0

>  <i_i_glide_confnum>  (331) 
2

>  <i_i_glide_posenum>  (331) 
4

>  <r_i_glide_eff_state_penalty>  (331) 
0

>  <ligand_id>  (331) 
113

>  <original_smiles>  (331) 
COc1ccc(OC)c2c1OC13CCN(C)CC45OC1CC(=O)OC1C(=O)C(O)CCC4C35C21

>  <smiles>  (331) 
[H]OC1([H])C(=O)C2([H])OC(=O)C([H])([H])C3([H])OC45C([H])(C([H])([H])C1([H])[H])C41C2([H])c2c(OC([H])([H])[H])c([H])c([H])c(OC([H])([H])[H])c2OC31C([H])([H])C([H])([H])[N+]([H])(C([H])([H])[H])C5([H])[H]

$$$$
113:0:2
     RDKit          3D

 64 70  0  0  1  0  0  0  0  0999 V2000
   -3.1619    3.2165    2.8818 C   0  0  0  0  0  0  0  0  0  0  0  0
   -2.0082    3.7322    3.5256 O   0  0  0  0  0  0  0  0  0  0  0  0
   -1.7145    3.2057    4.7651 C   0  0  0  0  0  0  0  0  0  0  0  0
   -2.6453    3.1983    5.8175 C   0  0  0  0  0  0  0  0  0  0  0  0
   -2.2770    2.7501    7.0967 C   0  0  0  0  0  0  0  0  0  0  0  0
   -0.9702    2.2711    7.3342 C   0  0  0  0  0  0  0  0  0  0  0  0
   -0.5583    1.8025    8.5674 O   0  0  0  0  0  0  0  0  0  0  0  0
   -1.3149    2.1466    9.7268 C   0  0  0  0  0  0  0  0  0  0  0  0
   -0.0455    2.2339    6.2591 C   0  0  0  0  0  0  0  0  0  0  0  0
   -0.4190    2.7186    4.9856 C   0  0  0  0  0  0  0  0  0  0  0  0
    0.4712    2.7770    3.9516 O   0  0  0  0  0  0  0  0  0  0  0  0
    1.5957    1.8976    3.9036 C   0  0  1  0  0  0  0  0  0  0  0  0
    1.2832    1.0930    2.6061 C   0  0  0  0  0  0  0  0  0  0  0  0
    2.4201    0.4691    1.7685 C   0  0  0  0  0  0  0  0  0  0  0  0
    3.1860   -0.5890    2.4707 N   0  0  1  0  0  0  0  0  0  0  0  0
    3.9792   -1.3956    1.5039 C   0  0  0  0  0  0  0  0  0  0  0  0
    4.0559   -0.0634    3.5627 C   0  0  0  0  0  0  0  0  0  0  0  0
    3.3648    0.5166    4.8009 C   0  0  2  0  0  0  0  0  0  0  0  0
    3.7098    1.9124    4.7898 O   0  0  0  0  0  0  0  0  0  0  0  0
    2.9115    2.6922    3.8787 C   0  0  2  0  0  0  0  0  0  0  0  0
    2.8548    4.1810    4.3466 C   0  0  0  0  0  0  0  0  0  0  0  0
    2.2696    4.3985    5.7441 C   0  0  0  0  0  0  0  0  0  0  0  0
    1.3311    5.1603    5.9798 O   0  0  0  0  0  0  0  0  0  0  0  0
    2.9081    3.6598    6.6337 O   0  0  0  0  0  0  0  0  0  0  0  0
    2.3093    2.5492    7.3074 C   0  0  2  0  0  0  0  0  0  0  0  0
    3.4952    1.7451    7.8885 C   0  0  0  0  0  0  0  0  0  0  0  0
    4.6361    2.2125    7.8758 O   0  0  0  0  0  0  0  0  0  0  0  0
    3.2924    0.3634    8.5263 C   0  0  1  0  0  0  0  0  0  0  0  0
    2.0657    0.2460    9.2196 O   0  0  0  0  0  0  0  0  0  0  0  0
    3.5228   -0.8098    7.5421 C   0  0  0  0  0  0  0  0  0  0  0  0
    2.3986   -1.2016    6.5485 C   0  0  0  0  0  0  0  0  0  0  0  0
    2.2248   -0.3804    5.2646 C   0  0  1  0  0  0  0  0  0  0  0  0
    1.8980    1.0422    5.1256 C   0  0  2  0  0  0  0  0  0  0  0  0
    1.3481    1.6541    6.4426 C   0  0  2  0  0  0  0  0  0  0  0  0
   -3.2653    3.7051    1.9125 H   0  0  0  0  0  0  0  0  0  0  0  0
   -4.0896    3.4025    3.4234 H   0  0  0  0  0  0  0  0  0  0  0  0
   -3.0595    2.1497    2.7087 H   0  0  0  0  0  0  0  0  0  0  0  0
   -3.6483    3.5588    5.6701 H   0  0  0  0  0  0  0  0  0  0  0  0
   -3.0161    2.7894    7.8828 H   0  0  0  0  0  0  0  0  0  0  0  0
   -0.8399    1.7230   10.6166 H   0  0  0  0  0  0  0  0  0  0  0  0
   -2.3316    1.7615    9.6958 H   0  0  0  0  0  0  0  0  0  0  0  0
   -1.3593    3.2291    9.8603 H   0  0  0  0  0  0  0  0  0  0  0  0
    0.5058    0.3565    2.8128 H   0  0  0  0  0  0  0  0  0  0  0  0
    0.8122    1.7892    1.9112 H   0  0  0  0  0  0  0  0  0  0  0  0
    1.9375    0.0086    0.9045 H   0  0  0  0  0  0  0  0  0  0  0  0
    3.0837    1.2213    1.3416 H   0  0  0  0  0  0  0  0  0  0  0  0
    4.7270   -0.7816    0.9988 H   0  0  0  0  0  0  0  0  0  0  0  0
    3.3412   -1.8477    0.7400 H   0  0  0  0  0  0  0  0  0  0  0  0
    4.5025   -2.2069    2.0129 H   0  0  0  0  0  0  0  0  0  0  0  0
    4.6468   -0.9007    3.9275 H   0  0  0  0  0  0  0  0  0  0  0  0
    4.7796    0.6479    3.1738 H   0  0  0  0  0  0  0  0  0  0  0  0
    3.3615    2.6796    2.8894 H   0  0  0  0  0  0  0  0  0  0  0  0
    3.8581    4.6039    4.3474 H   0  0  0  0  0  0  0  0  0  0  0  0
    2.2667    4.7684    3.6437 H   0  0  0  0  0  0  0  0  0  0  0  0
    1.7623    2.9193    8.1712 H   0  0  0  0  0  0  0  0  0  0  0  0
    4.0701    0.2931    9.2873 H   0  0  0  0  0  0  0  0  0  0  0  0
    2.0735   -0.5641    9.7081 H   0  0  0  0  0  0  0  0  0  0  0  0
    4.4549   -0.6471    6.9992 H   0  0  0  0  0  0  0  0  0  0  0  0
    3.7159   -1.6891    8.1574 H   0  0  0  0  0  0  0  0  0  0  0  0
    2.6275   -2.2141    6.2137 H   0  0  0  0  0  0  0  0  0  0  0  0
    1.4373   -1.2984    7.0542 H   0  0  0  0  0  0  0  0  0  0  0  0
    1.6890   -0.9813    4.5364 H   0  0  0  0  0  0  0  0  0  0  0  0
    1.0778    0.8232    7.0734 H   0  0  0  0  0  0  0  0  0  0  0  0
    2.5107   -1.2230    2.8791 H   0  0  0  0  0  0  0  0  0  0  0  0
  1  2  1  0
  1 35  1  0
  1 36  1  0
  1 37  1  0
  2  3  1  0
  3 10  2  0
  3  4  1  0
  4  5  2  0
  4 38  1  0
  5  6  1  0
  5 39  1  0
  6  7  1  0
  6  9  2  0
  7  8  1  0
  8 40  1  0
  8 41  1  0
  8 42  1  0
  9 34  1  0
  9 10  1  0
 10 11  1  0
 12 11  1  1
 12 20  1  0
 12 33  1  0
 12 13  1  0
 13 14  1  0
 13 43  1  0
 13 44  1  0
 14 15  1  0
 14 45  1  0
 14 46  1  0
 15 16  1  0
 15 17  1  0
 15 64  1  1
 16 47  1  0
 16 48  1  0
 16 49  1  0
 17 18  1  0
 17 50  1  0
 17 51  1  0
 18 32  1  0
 33 18  1  1
 18 19  1  1
 19 20  1  0
 20 21  1  0
 20 52  1  6
 21 22  1  0
 21 53  1  0
 21 54  1  0
 22 23  2  0
 22 24  1  0
 24 25  1  0
 25 34  1  0
 25 26  1  0
 25 55  1  1
 26 27  2  0
 26 28  1  0
 28 29  1  0
 28 30  1  0
 28 56  1  1
 29 57  1  0
 30 31  1  0
 30 58  1  0
 30 59  1  0
 31 32  1  0
 31 60  1  0
 31 61  1  0
 32 33  1  0
 32 62  1  6
 33 34  1  0
 34 63  1  1
M  CHG  1  15   1
M  END
>  <i_m_ct_stereo_status>  (332) 
1

>  <s_m_source_file>  (332) 
/var/tmp/pbs.5076255.sched01/tmporjl5eer/117expd_qi0.sdf

>  <i_m_source_file_index>  (332) 
25

>  <i_lp_mmshare_version>  (332) 
48012

>  <i_f3d_flags>  (332) 
0

>  <s_epik_input>  (332) 
W0NIM11PYzFbY0hdW2NIXWMoT1tDSDNdKWMoTzIpYzFbQ0BASF0zW0NASF0oT0MoPU8pW0NIMl1bQ0BIXTRPNSlDKD1PKVtDQEBIXShbT0hdKVtDSDJdW0NIMl1bQ0BASF02W0NAXTUoW0NAXTM2W0NAQF0yNDcpW0NIMl1OKFtDSDNdKVtDSDJdW0NIMl03

>  <s_epik_cmdline>  (332) 
J2VwaWtfcHl0aG9uJywgJy1waHQnLCAnMi4wJywgJy1waCcsICc3LjAnLCAnLXRuJywgJzgnLCAnLW1hJywgJzIwMCcsICctaW1hZScsICc8aW5maWxlLm1hZT4nLCAnLW9tYWUnLCAnPG91dGZpbGUubWFlPic=

>  <r_lp_tautomer_probability>  (332) 
1

>  <r_epik_Ionization_Penalty>  (332) 
0.0496011

>  <r_epik_Ionization_Penalty_Charging>  (332) 
0.0496002

>  <r_epik_Ionization_Penalty_Neutral>  (332) 
9.57842e-07

>  <r_epik_State_Penalty>  (332) 
0.0423774

>  <r_epik_Charging_Adjusted_Penalty>  (332) 
0.0919776

>  <i_epik_Tot_Q>  (332) 
1

>  <i_epik_Tot_abs_Q>  (332) 
1

>  <s_epik_Chemistry_Notes>  (332) 
This compound has an ester and may undergo hydrolysis at high or low pH.

>  <s_lp_Force_Field>  (332) 
OPLS3e

>  <r_lp_Energy>  (332) 
129.491

>  <b_lp_Chiralities_Consistent>  (332) 
1

>  <s_lp_Variant>  (332) 
113:0-1

>  <s_i_glide_gridfile>  (332) 
pfpi4k_grid

>  <i_i_glide_lignum>  (332) 
25

>  <i_i_glide_rotatable_bonds>  (332) 
3

>  <r_i_docking_score>  (332) 
-2.0051

>  <r_i_glide_ligand_efficiency>  (332) 
-0.0589735

>  <r_i_glide_ligand_efficiency_sa>  (332) 
-0.191051

>  <r_i_glide_ligand_efficiency_ln>  (332) 
-0.442983

>  <r_i_glide_gscore>  (332) 
-2.0051

>  <r_i_glide_lipo>  (332) 
-0.153727

>  <r_i_glide_hbond>  (332) 
0

>  <r_i_glide_metal>  (332) 
-0

>  <r_i_glide_rewards>  (332) 
-0.187448

>  <r_i_glide_evdw>  (332) 
-20.2466

>  <r_i_glide_ecoul>  (332) 
-4.31663

>  <r_i_glide_erotb>  (332) 
0

>  <r_i_glide_esite>  (332) 
-0.00410067

>  <r_i_glide_emodel>  (332) 
-26.1384

>  <r_i_glide_energy>  (332) 
-24.5632

>  <r_i_glide_einternal>  (332) 
4.12031

>  <r_i_glide_intrahb_reward>  (332) 
-0

>  <i_i_glide_confnum>  (332) 
1

>  <i_i_glide_posenum>  (332) 
37

>  <r_i_glide_eff_state_penalty>  (332) 
0

>  <ligand_id>  (332) 
113

>  <original_smiles>  (332) 
COc1ccc(OC)c2c1OC13CCN(C)CC45OC1CC(=O)OC1C(=O)C(O)CCC4C35C21

>  <smiles>  (332) 
[H]OC1([H])C(=O)C2([H])OC(=O)C([H])([H])C3([H])OC45C([H])(C([H])([H])C1([H])[H])C41C2([H])c2c(OC([H])([H])[H])c([H])c([H])c(OC([H])([H])[H])c2OC31C([H])([H])C([H])([H])[N+]([H])(C([H])([H])[H])C5([H])[H]

$$$$
114:0:0
     RDKit          3D

 33 35  0  0  1  0  0  0  0  0999 V2000
    5.2816   -9.2487    1.3209 C   0  0  0  0  0  0  0  0  0  0  0  0
    3.9381   -9.2631    0.8625 O   0  0  0  0  0  0  0  0  0  0  0  0
    2.9808   -9.3078    1.9163 C   0  0  0  0  0  0  0  0  0  0  0  0
    2.8077   -7.8974    2.5394 C   0  0  2  0  0  0  0  0  0  0  0  0
    2.0038   -7.9438    3.8510 C   0  0  0  0  0  0  0  0  0  0  0  0
    0.6041   -8.0898    3.5353 N   0  0  0  0  0  0  0  0  0  0  0  0
   -0.3019   -8.6407    4.3709 N   0  0  0  0  0  0  0  0  0  0  0  0
   -1.4305   -8.4992    3.6776 C   0  0  0  0  0  0  0  0  0  0  0  0
   -1.3304   -7.8121    2.4836 N   0  0  0  0  0  0  0  0  0  0  0  0
   -0.0155   -7.6258    2.4479 C   0  0  0  0  0  0  0  0  0  0  0  0
    0.8013   -6.9202    1.4066 C   0  0  0  0  0  0  0  0  0  0  0  0
    0.2397   -6.2586    0.5359 O   0  0  0  0  0  0  0  0  0  0  0  0
    2.1524   -7.0011    1.5529 N   0  0  0  0  0  0  0  0  0  0  0  0
    3.0567   -6.2216    0.7027 C   0  0  0  0  0  0  0  0  0  0  0  0
    3.2505   -4.7798    1.1233 C   0  0  0  0  0  0  0  0  0  0  0  0
    2.6278   -3.6504    0.3296 C   0  0  0  0  0  0  0  0  0  0  0  0
    4.1153   -3.8807    0.2683 C   0  0  0  0  0  0  0  0  0  0  0  0
    5.9519   -9.2116    0.4725 H   0  0  0  0  0  0  0  0  0  0  0  0
    5.5126  -10.1421    1.8996 H   0  0  0  0  0  0  0  0  0  0  0  0
    5.5083   -8.3745    1.9283 H   0  0  0  0  0  0  0  0  0  0  0  0
    2.0299   -9.6691    1.5083 H   0  0  0  0  0  0  0  0  0  0  0  0
    3.2735  -10.0486    2.6696 H   0  0  0  0  0  0  0  0  0  0  0  0
    3.7761   -7.4795    2.8142 H   0  0  0  0  0  0  0  0  0  0  0  0
    2.3304   -8.7533    4.4983 H   0  0  0  0  0  0  0  0  0  0  0  0
    2.1352   -7.0091    4.3949 H   0  0  0  0  0  0  0  0  0  0  0  0
   -2.3686   -8.8622    4.0644 H   0  0  0  0  0  0  0  0  0  0  0  0
    4.0408   -6.6897    0.6455 H   0  0  0  0  0  0  0  0  0  0  0  0
    2.6811   -6.2228   -0.3214 H   0  0  0  0  0  0  0  0  0  0  0  0
    3.3496   -4.6270    2.1993 H   0  0  0  0  0  0  0  0  0  0  0  0
    2.0362   -3.9237   -0.5450 H   0  0  0  0  0  0  0  0  0  0  0  0
    2.2767   -2.7758    0.8755 H   0  0  0  0  0  0  0  0  0  0  0  0
    4.7577   -3.1601    0.7708 H   0  0  0  0  0  0  0  0  0  0  0  0
    4.5259   -4.3146   -0.6446 H   0  0  0  0  0  0  0  0  0  0  0  0
  1  2  1  0
  1 18  1  0
  1 19  1  0
  1 20  1  0
  2  3  1  0
  3  4  1  0
  3 21  1  0
  3 22  1  0
  4 13  1  0
  4  5  1  0
  4 23  1  1
  5  6  1  0
  5 24  1  0
  5 25  1  0
  6 10  1  0
  6  7  1  0
  7  8  2  0
  8  9  1  0
  8 26  1  0
  9 10  2  0
 10 11  1  0
 11 12  2  0
 11 13  1  0
 13 14  1  0
 14 15  1  0
 14 27  1  0
 14 28  1  0
 15 17  1  0
 15 16  1  0
 15 29  1  0
 16 17  1  0
 16 30  1  0
 16 31  1  0
 17 32  1  0
 17 33  1  0
M  END
>  <i_m_ct_stereo_status>  (333) 
1

>  <s_m_source_file>  (333) 
/var/tmp/pbs.5076255.sched01/tmporjl5eer/117expd_qi0.sdf

>  <i_m_source_file_index>  (333) 
27

>  <i_lp_mmshare_version>  (333) 
48012

>  <i_f3d_flags>  (333) 
0

>  <s_epik_input>  (333) 
W0NIM11PW0NIMl1bQ0BIXShbQ0gyXTEpTihDKD1PKWMobjEyKW5bY0hdbjIpW0NIMl1bQ0hdM1tDSDJdW0NIMl0z

>  <s_epik_cmdline>  (333) 
J2VwaWtfcHl0aG9uJywgJy1waHQnLCAnMi4wJywgJy1waCcsICc3LjAnLCAnLXRuJywgJzgnLCAnLW1hJywgJzIwMCcsICctaW1hZScsICc8aW5maWxlLm1hZT4nLCAnLW9tYWUnLCAnPG91dGZpbGUubWFlPic=

>  <r_lp_tautomer_probability>  (333) 
1

>  <r_epik_Ionization_Penalty>  (333) 
1.78928e-09

>  <r_epik_Ionization_Penalty_Charging>  (333) 
0

>  <r_epik_Ionization_Penalty_Neutral>  (333) 
1.78928e-09

>  <r_epik_State_Penalty>  (333) 
-0

>  <r_epik_Charging_Adjusted_Penalty>  (333) 
0

>  <i_epik_Tot_Q>  (333) 
0

>  <i_epik_Tot_abs_Q>  (333) 
0

>  <s_lp_Force_Field>  (333) 
OPLS3e

>  <r_lp_Energy>  (333) 
24.1682

>  <b_lp_Chiralities_Consistent>  (333) 
1

>  <s_lp_Variant>  (333) 
114:0-1

>  <s_i_glide_gridfile>  (333) 
pfpi4k_grid

>  <i_i_glide_lignum>  (333) 
27

>  <i_i_glide_rotatable_bonds>  (333) 
4

>  <r_i_docking_score>  (333) 
-3.25

>  <r_i_glide_ligand_efficiency>  (333) 
-0.191176

>  <r_i_glide_ligand_efficiency_sa>  (333) 
-0.491568

>  <r_i_glide_ligand_efficiency_ln>  (333) 
-0.847852

>  <r_i_glide_gscore>  (333) 
-3.25

>  <r_i_glide_lipo>  (333) 
-0.0187091

>  <r_i_glide_hbond>  (333) 
-0.207904

>  <r_i_glide_metal>  (333) 
-0

>  <r_i_glide_rewards>  (333) 
-1.79816

>  <r_i_glide_evdw>  (333) 
-20.6558

>  <r_i_glide_ecoul>  (333) 
-5.67829

>  <r_i_glide_erotb>  (333) 
0.925102

>  <r_i_glide_esite>  (333) 
-0.265793

>  <r_i_glide_emodel>  (333) 
-30.881

>  <r_i_glide_energy>  (333) 
-26.3341

>  <r_i_glide_einternal>  (333) 
2.03238

>  <r_i_glide_intrahb_reward>  (333) 
-0

>  <i_i_glide_confnum>  (333) 
3

>  <i_i_glide_posenum>  (333) 
4

>  <r_i_glide_eff_state_penalty>  (333) 
0

>  <ligand_id>  (333) 
114

>  <original_smiles>  (333) 
COCC1Cn2ncnc2C(=O)N1CC1CC1

>  <smiles>  (333) 
[H]c1nc2n(n1)C([H])([H])C([H])(C([H])([H])OC([H])([H])[H])N(C([H])([H])C1([H])C([H])([H])C1([H])[H])C2=O

$$$$
114:0:1
     RDKit          3D

 33 35  0  0  1  0  0  0  0  0999 V2000
    4.6089  -10.7406    2.6913 C   0  0  0  0  0  0  0  0  0  0  0  0
    4.1346   -9.4821    3.1343 O   0  0  0  0  0  0  0  0  0  0  0  0
    3.2035   -8.8978    2.2328 C   0  0  0  0  0  0  0  0  0  0  0  0
    2.9267   -7.4480    2.6862 C   0  0  2  0  0  0  0  0  0  0  0  0
    2.1353   -7.3921    4.0195 C   0  0  0  0  0  0  0  0  0  0  0  0
    0.7417   -7.6929    3.7450 N   0  0  0  0  0  0  0  0  0  0  0  0
   -0.1143   -8.2164    4.6465 N   0  0  0  0  0  0  0  0  0  0  0  0
   -1.2543   -8.2528    3.9509 C   0  0  0  0  0  0  0  0  0  0  0  0
   -1.2086   -7.7133    2.6876 N   0  0  0  0  0  0  0  0  0  0  0  0
    0.0860   -7.4153    2.6152 C   0  0  0  0  0  0  0  0  0  0  0  0
    0.8353   -6.7728    1.4951 C   0  0  0  0  0  0  0  0  0  0  0  0
    0.2115   -6.2587    0.5619 O   0  0  0  0  0  0  0  0  0  0  0  0
    2.1907   -6.7231    1.6233 N   0  0  0  0  0  0  0  0  0  0  0  0
    3.0137   -5.9691    0.6740 C   0  0  0  0  0  0  0  0  0  0  0  0
    3.1729   -4.4900    0.9929 C   0  0  0  0  0  0  0  0  0  0  0  0
    2.6138   -3.4352    0.0582 C   0  0  0  0  0  0  0  0  0  0  0  0
    4.0988   -3.6640    0.1262 C   0  0  0  0  0  0  0  0  0  0  0  0
    5.3038  -11.1401    3.4255 H   0  0  0  0  0  0  0  0  0  0  0  0
    5.1455  -10.6474    1.7486 H   0  0  0  0  0  0  0  0  0  0  0  0
    3.7998  -11.4600    2.5667 H   0  0  0  0  0  0  0  0  0  0  0  0
    3.6212   -8.8927    1.2207 H   0  0  0  0  0  0  0  0  0  0  0  0
    2.2826   -9.4917    2.1913 H   0  0  0  0  0  0  0  0  0  0  0  0
    3.8910   -6.9541    2.8487 H   0  0  0  0  0  0  0  0  0  0  0  0
    2.5276   -8.0862    4.7532 H   0  0  0  0  0  0  0  0  0  0  0  0
    2.1865   -6.3931    4.4438 H   0  0  0  0  0  0  0  0  0  0  0  0
   -2.1585   -8.6529    4.3891 H   0  0  0  0  0  0  0  0  0  0  0  0
    4.0059   -6.4152    0.6021 H   0  0  0  0  0  0  0  0  0  0  0  0
    2.5836   -6.0419   -0.3224 H   0  0  0  0  0  0  0  0  0  0  0  0
    3.1916   -4.2416    2.0544 H   0  0  0  0  0  0  0  0  0  0  0  0
    2.0874   -3.7791   -0.8326 H   0  0  0  0  0  0  0  0  0  0  0  0
    2.2271   -2.5145    0.4982 H   0  0  0  0  0  0  0  0  0  0  0  0
    4.7057   -2.8995    0.6115 H   0  0  0  0  0  0  0  0  0  0  0  0
    4.5753   -4.1728   -0.7118 H   0  0  0  0  0  0  0  0  0  0  0  0
  1  2  1  0
  1 18  1  0
  1 19  1  0
  1 20  1  0
  2  3  1  0
  3  4  1  0
  3 21  1  0
  3 22  1  0
  4 13  1  0
  4  5  1  0
  4 23  1  1
  5  6  1  0
  5 24  1  0
  5 25  1  0
  6 10  1  0
  6  7  1  0
  7  8  2  0
  8  9  1  0
  8 26  1  0
  9 10  2  0
 10 11  1  0
 11 12  2  0
 11 13  1  0
 13 14  1  0
 14 15  1  0
 14 27  1  0
 14 28  1  0
 15 17  1  0
 15 16  1  0
 15 29  1  0
 16 17  1  0
 16 30  1  0
 16 31  1  0
 17 32  1  0
 17 33  1  0
M  END
>  <i_m_ct_stereo_status>  (334) 
1

>  <s_m_source_file>  (334) 
/var/tmp/pbs.5076255.sched01/tmporjl5eer/117expd_qi0.sdf

>  <i_m_source_file_index>  (334) 
27

>  <i_lp_mmshare_version>  (334) 
48012

>  <i_f3d_flags>  (334) 
0

>  <s_epik_input>  (334) 
W0NIM11PW0NIMl1bQ0BIXShbQ0gyXTEpTihDKD1PKWMobjEyKW5bY0hdbjIpW0NIMl1bQ0hdM1tDSDJdW0NIMl0z

>  <s_epik_cmdline>  (334) 
J2VwaWtfcHl0aG9uJywgJy1waHQnLCAnMi4wJywgJy1waCcsICc3LjAnLCAnLXRuJywgJzgnLCAnLW1hJywgJzIwMCcsICctaW1hZScsICc8aW5maWxlLm1hZT4nLCAnLW9tYWUnLCAnPG91dGZpbGUubWFlPic=

>  <r_lp_tautomer_probability>  (334) 
1

>  <r_epik_Ionization_Penalty>  (334) 
1.78928e-09

>  <r_epik_Ionization_Penalty_Charging>  (334) 
0

>  <r_epik_Ionization_Penalty_Neutral>  (334) 
1.78928e-09

>  <r_epik_State_Penalty>  (334) 
-0

>  <r_epik_Charging_Adjusted_Penalty>  (334) 
0

>  <i_epik_Tot_Q>  (334) 
0

>  <i_epik_Tot_abs_Q>  (334) 
0

>  <s_lp_Force_Field>  (334) 
OPLS3e

>  <r_lp_Energy>  (334) 
24.1682

>  <b_lp_Chiralities_Consistent>  (334) 
1

>  <s_lp_Variant>  (334) 
114:0-1

>  <s_i_glide_gridfile>  (334) 
pfpi4k_grid

>  <i_i_glide_lignum>  (334) 
27

>  <i_i_glide_rotatable_bonds>  (334) 
4

>  <r_i_docking_score>  (334) 
-3.19501

>  <r_i_glide_ligand_efficiency>  (334) 
-0.187942

>  <r_i_glide_ligand_efficiency_sa>  (334) 
-0.483251

>  <r_i_glide_ligand_efficiency_ln>  (334) 
-0.833507

>  <r_i_glide_gscore>  (334) 
-3.19501

>  <r_i_glide_lipo>  (334) 
-0.0171135

>  <r_i_glide_hbond>  (334) 
-0.195769

>  <r_i_glide_metal>  (334) 
-0

>  <r_i_glide_rewards>  (334) 
-1.79816

>  <r_i_glide_evdw>  (334) 
-18.5742

>  <r_i_glide_ecoul>  (334) 
-6.15046

>  <r_i_glide_erotb>  (334) 
0.925102

>  <r_i_glide_esite>  (334) 
-0.257794

>  <r_i_glide_emodel>  (334) 
-29.938

>  <r_i_glide_energy>  (334) 
-24.7247

>  <r_i_glide_einternal>  (334) 
0.534016

>  <r_i_glide_intrahb_reward>  (334) 
-0

>  <i_i_glide_confnum>  (334) 
1

>  <i_i_glide_posenum>  (334) 
29

>  <r_i_glide_eff_state_penalty>  (334) 
0

>  <ligand_id>  (334) 
114

>  <original_smiles>  (334) 
COCC1Cn2ncnc2C(=O)N1CC1CC1

>  <smiles>  (334) 
[H]c1nc2n(n1)C([H])([H])C([H])(C([H])([H])OC([H])([H])[H])N(C([H])([H])C1([H])C([H])([H])C1([H])[H])C2=O

$$$$
114:0:2
     RDKit          3D

 33 35  0  0  1  0  0  0  0  0999 V2000
    8.5276   -3.2875   -1.1282 C   0  0  0  0  0  0  0  0  0  0  0  0
    7.5580   -2.2599   -1.2444 O   0  0  0  0  0  0  0  0  0  0  0  0
    6.3824   -2.6656   -1.9268 C   0  0  0  0  0  0  0  0  0  0  0  0
    5.3195   -1.5521   -1.7870 C   0  0  2  0  0  0  0  0  0  0  0  0
    4.9338   -1.3047   -0.3048 C   0  0  0  0  0  0  0  0  0  0  0  0
    4.0547   -2.3748    0.1314 N   0  0  0  0  0  0  0  0  0  0  0  0
    3.9597   -2.8004    1.4115 N   0  0  0  0  0  0  0  0  0  0  0  0
    3.0234   -3.7428    1.3160 C   0  0  0  0  0  0  0  0  0  0  0  0
    2.5288   -3.9695    0.0623 N   0  0  0  0  0  0  0  0  0  0  0  0
    3.2000   -3.0543   -0.6306 C   0  0  0  0  0  0  0  0  0  0  0  0
    3.1155   -2.7074   -2.0795 C   0  0  0  0  0  0  0  0  0  0  0  0
    2.1828   -3.1125   -2.7633 O   0  0  0  0  0  0  0  0  0  0  0  0
    4.1089   -1.9127   -2.5680 N   0  0  0  0  0  0  0  0  0  0  0  0
    4.0319   -1.3916   -3.9337 C   0  0  0  0  0  0  0  0  0  0  0  0
    3.4946    0.0113   -4.0655 C   0  0  0  0  0  0  0  0  0  0  0  0
    2.1801    0.2530   -4.7596 C   0  0  0  0  0  0  0  0  0  0  0  0
    3.4588    0.6545   -5.4349 C   0  0  0  0  0  0  0  0  0  0  0  0
    9.3986   -2.9057   -0.5985 H   0  0  0  0  0  0  0  0  0  0  0  0
    8.8570   -3.6558   -2.1011 H   0  0  0  0  0  0  0  0  0  0  0  0
    8.1410   -4.1279   -0.5517 H   0  0  0  0  0  0  0  0  0  0  0  0
    6.6151   -2.8436   -2.9791 H   0  0  0  0  0  0  0  0  0  0  0  0
    6.0121   -3.6140   -1.5248 H   0  0  0  0  0  0  0  0  0  0  0  0
    5.7296   -0.6204   -2.1814 H   0  0  0  0  0  0  0  0  0  0  0  0
    5.8045   -1.2577    0.3411 H   0  0  0  0  0  0  0  0  0  0  0  0
    4.3934   -0.3674   -0.2040 H   0  0  0  0  0  0  0  0  0  0  0  0
    2.6768   -4.2811    2.1878 H   0  0  0  0  0  0  0  0  0  0  0  0
    5.0179   -1.4031   -4.3663 H   0  0  0  0  0  0  0  0  0  0  0  0
    3.4521   -2.0470   -4.5777 H   0  0  0  0  0  0  0  0  0  0  0  0
    3.7723    0.6779   -3.2536 H   0  0  0  0  0  0  0  0  0  0  0  0
    1.6510   -0.6303   -5.1188 H   0  0  0  0  0  0  0  0  0  0  0  0
    1.5298    1.0294   -4.3782 H   0  0  0  0  0  0  0  0  0  0  0  0
    3.6605    1.7190   -5.5013 H   0  0  0  0  0  0  0  0  0  0  0  0
    3.7865    0.0536   -6.2826 H   0  0  0  0  0  0  0  0  0  0  0  0
  1  2  1  0
  1 18  1  0
  1 19  1  0
  1 20  1  0
  2  3  1  0
  3  4  1  0
  3 21  1  0
  3 22  1  0
  4 13  1  0
  4  5  1  0
  4 23  1  6
  5  6  1  0
  5 24  1  0
  5 25  1  0
  6 10  1  0
  6  7  1  0
  7  8  2  0
  8  9  1  0
  8 26  1  0
  9 10  2  0
 10 11  1  0
 11 12  2  0
 11 13  1  0
 13 14  1  0
 14 15  1  0
 14 27  1  0
 14 28  1  0
 15 17  1  0
 15 16  1  0
 15 29  1  0
 16 17  1  0
 16 30  1  0
 16 31  1  0
 17 32  1  0
 17 33  1  0
M  END
>  <i_m_ct_stereo_status>  (335) 
1

>  <s_m_source_file>  (335) 
/var/tmp/pbs.5076255.sched01/tmporjl5eer/117expd_qi0.sdf

>  <i_m_source_file_index>  (335) 
27

>  <i_lp_mmshare_version>  (335) 
48012

>  <i_f3d_flags>  (335) 
0

>  <s_epik_input>  (335) 
W0NIM11PW0NIMl1bQ0BIXShbQ0gyXTEpTihDKD1PKWMobjEyKW5bY0hdbjIpW0NIMl1bQ0hdM1tDSDJdW0NIMl0z

>  <s_epik_cmdline>  (335) 
J2VwaWtfcHl0aG9uJywgJy1waHQnLCAnMi4wJywgJy1waCcsICc3LjAnLCAnLXRuJywgJzgnLCAnLW1hJywgJzIwMCcsICctaW1hZScsICc8aW5maWxlLm1hZT4nLCAnLW9tYWUnLCAnPG91dGZpbGUubWFlPic=

>  <r_lp_tautomer_probability>  (335) 
1

>  <r_epik_Ionization_Penalty>  (335) 
1.78928e-09

>  <r_epik_Ionization_Penalty_Charging>  (335) 
0

>  <r_epik_Ionization_Penalty_Neutral>  (335) 
1.78928e-09

>  <r_epik_State_Penalty>  (335) 
-0

>  <r_epik_Charging_Adjusted_Penalty>  (335) 
0

>  <i_epik_Tot_Q>  (335) 
0

>  <i_epik_Tot_abs_Q>  (335) 
0

>  <s_lp_Force_Field>  (335) 
OPLS3e

>  <r_lp_Energy>  (335) 
24.1682

>  <b_lp_Chiralities_Consistent>  (335) 
1

>  <s_lp_Variant>  (335) 
114:0-1

>  <s_i_glide_gridfile>  (335) 
pfpi4k_grid

>  <i_i_glide_lignum>  (335) 
27

>  <i_i_glide_rotatable_bonds>  (335) 
4

>  <r_i_docking_score>  (335) 
-3.02258

>  <r_i_glide_ligand_efficiency>  (335) 
-0.177799

>  <r_i_glide_ligand_efficiency_sa>  (335) 
-0.457171

>  <r_i_glide_ligand_efficiency_ln>  (335) 
-0.788524

>  <r_i_glide_gscore>  (335) 
-3.02258

>  <r_i_glide_lipo>  (335) 
-0.440402

>  <r_i_glide_hbond>  (335) 
-0.16

>  <r_i_glide_metal>  (335) 
-0

>  <r_i_glide_rewards>  (335) 
-1.84816

>  <r_i_glide_evdw>  (335) 
-25.9201

>  <r_i_glide_ecoul>  (335) 
-0.953138

>  <r_i_glide_erotb>  (335) 
0.925102

>  <r_i_glide_esite>  (335) 
-0.0601495

>  <r_i_glide_emodel>  (335) 
-31.495

>  <r_i_glide_energy>  (335) 
-26.8732

>  <r_i_glide_einternal>  (335) 
0.991582

>  <r_i_glide_intrahb_reward>  (335) 
-0

>  <i_i_glide_confnum>  (335) 
1

>  <i_i_glide_posenum>  (335) 
11

>  <r_i_glide_eff_state_penalty>  (335) 
0

>  <ligand_id>  (335) 
114

>  <original_smiles>  (335) 
COCC1Cn2ncnc2C(=O)N1CC1CC1

>  <smiles>  (335) 
[H]c1nc2n(n1)C([H])([H])C([H])(C([H])([H])OC([H])([H])[H])N(C([H])([H])C1([H])C([H])([H])C1([H])[H])C2=O

$$$$
115:0:0
     RDKit          3D

 29 31  0  0  1  0  0  0  0  0999 V2000
    4.7640   -3.3578   -1.8884 C   0  0  0  0  0  0  0  0  0  0  0  0
    6.0566   -3.4205   -1.1111 C   0  0  0  0  0  0  0  0  0  0  0  0
    7.1066   -2.5775   -1.5107 N   0  0  0  0  0  0  0  0  0  0  0  0
    8.1926   -2.6826   -0.8047 N   0  0  0  0  0  0  0  0  0  0  0  0
    8.0519   -3.7994    0.4186 S   0  0  0  0  0  0  0  0  0  0  0  0
    6.4116   -4.1661   -0.0076 C   0  0  0  0  0  0  0  0  0  0  0  0
    5.7126   -5.1723    0.7986 C   0  0  0  0  0  0  0  0  0  0  0  0
    6.2715   -5.6920    1.7622 O   0  0  0  0  0  0  0  0  0  0  0  0
    4.4563   -5.4244    0.4227 N   0  0  0  0  0  0  0  0  0  0  0  0
    3.5392   -6.3252    0.9844 C   0  0  0  0  0  0  0  0  0  0  0  0
    3.9313   -7.5895    1.4594 C   0  0  0  0  0  0  0  0  0  0  0  0
    2.9736   -8.4535    2.0081 C   0  0  0  0  0  0  0  0  0  0  0  0
    1.6244   -8.0451    2.0391 C   0  0  0  0  0  0  0  0  0  0  0  0
    1.1991   -6.8040    1.5423 C   0  0  0  0  0  0  0  0  0  0  0  0
    2.1717   -5.9366    1.0022 C   0  0  0  0  0  0  0  0  0  0  0  0
   -0.1806   -6.6748    1.6969 N   0  0  0  0  0  0  0  0  0  0  0  0
   -0.6110   -7.7690    2.2767 N   0  0  0  0  0  0  0  0  0  0  0  0
    0.4542   -8.6049    2.4816 N   0  0  0  0  0  0  0  0  0  0  0  0
    0.3003   -9.8903    3.1142 C   0  0  0  0  0  0  0  0  0  0  0  0
    3.9025   -3.7684   -1.3436 H   0  0  0  0  0  0  0  0  0  0  0  0
    4.8634   -3.9550   -2.8038 H   0  0  0  0  0  0  0  0  0  0  0  0
    4.4790   -2.3215   -2.1277 H   0  0  0  0  0  0  0  0  0  0  0  0
    4.1339   -4.8645   -0.3496 H   0  0  0  0  0  0  0  0  0  0  0  0
    4.9620   -7.9148    1.3967 H   0  0  0  0  0  0  0  0  0  0  0  0
    3.2717   -9.4175    2.3692 H   0  0  0  0  0  0  0  0  0  0  0  0
    1.9012   -4.9742    0.5879 H   0  0  0  0  0  0  0  0  0  0  0  0
    0.8043  -10.6367    2.4875 H   0  0  0  0  0  0  0  0  0  0  0  0
   -0.7573  -10.1487    3.2240 H   0  0  0  0  0  0  0  0  0  0  0  0
    0.7910   -9.8770    4.0970 H   0  0  0  0  0  0  0  0  0  0  0  0
  1  2  1  0
  1 20  1  0
  1 21  1  0
  1 22  1  0
  2  6  2  0
  2  3  1  0
  3  4  2  0
  4  5  1  0
  5  6  1  0
  6  7  1  0
  7  8  2  0
  7  9  1  0
  9 10  1  0
  9 23  1  0
 10 15  1  0
 10 11  2  0
 11 12  1  0
 11 24  1  0
 12 13  2  0
 12 25  1  0
 13 18  1  0
 13 14  1  0
 14 15  2  0
 14 16  1  0
 15 26  1  0
 16 17  2  0
 17 18  1  0
 18 19  1  0
 19 27  1  0
 19 28  1  0
 19 29  1  0
M  END
>  <i_m_ct_stereo_status>  (336) 
1

>  <s_m_source_file>  (336) 
/var/tmp/pbs.5076255.sched01/tmporjl5eer/117expd_qi0.sdf

>  <i_m_source_file_index>  (336) 
28

>  <i_lp_mmshare_version>  (336) 
48012

>  <i_f3d_flags>  (336) 
0

>  <s_epik_input>  (336) 
W0NIM11jMW5uc2MxQyg9TylbTkhdYyhbY0hdW2NIXTIpW2NIXWMoYzIzKW5ubjNbQ0gzXQ==

>  <s_epik_cmdline>  (336) 
J2VwaWtfcHl0aG9uJywgJy1waHQnLCAnMi4wJywgJy1waCcsICc3LjAnLCAnLXRuJywgJzgnLCAnLW1hJywgJzIwMCcsICctaW1hZScsICc8aW5maWxlLm1hZT4nLCAnLW9tYWUnLCAnPG91dGZpbGUubWFlPic=

>  <r_lp_tautomer_probability>  (336) 
1

>  <r_epik_Ionization_Penalty>  (336) 
9.50418e-06

>  <r_epik_Ionization_Penalty_Charging>  (336) 
0

>  <r_epik_Ionization_Penalty_Neutral>  (336) 
9.50418e-06

>  <r_epik_State_Penalty>  (336) 
-0

>  <r_epik_Charging_Adjusted_Penalty>  (336) 
0

>  <i_epik_Tot_Q>  (336) 
0

>  <i_epik_Tot_abs_Q>  (336) 
0

>  <s_lp_Force_Field>  (336) 
OPLS3e

>  <r_lp_Energy>  (336) 
16.7396

>  <b_lp_Chiralities_Consistent>  (336) 
1

>  <s_lp_Variant>  (336) 
115:0-1

>  <s_i_glide_gridfile>  (336) 
pfpi4k_grid

>  <i_i_glide_lignum>  (336) 
28

>  <i_i_glide_rotatable_bonds>  (336) 
3

>  <r_i_docking_score>  (336) 
-4.06978

>  <r_i_glide_ligand_efficiency>  (336) 
-0.214199

>  <r_i_glide_ligand_efficiency_sa>  (336) 
-0.571569

>  <r_i_glide_ligand_efficiency_ln>  (336) 
-1.03178

>  <r_i_glide_gscore>  (336) 
-4.06978

>  <r_i_glide_lipo>  (336) 
-0.549619

>  <r_i_glide_hbond>  (336) 
0

>  <r_i_glide_metal>  (336) 
-0

>  <r_i_glide_rewards>  (336) 
-1.66816

>  <r_i_glide_evdw>  (336) 
-28.8524

>  <r_i_glide_ecoul>  (336) 
-5.42199

>  <r_i_glide_erotb>  (336) 
0.71587

>  <r_i_glide_esite>  (336) 
-0.311954

>  <r_i_glide_emodel>  (336) 
-41.5352

>  <r_i_glide_energy>  (336) 
-34.2744

>  <r_i_glide_einternal>  (336) 
3.68682

>  <r_i_glide_intrahb_reward>  (336) 
-0

>  <i_i_glide_confnum>  (336) 
2

>  <i_i_glide_posenum>  (336) 
19

>  <r_i_glide_eff_state_penalty>  (336) 
0

>  <ligand_id>  (336) 
115

>  <original_smiles>  (336) 
Cc1nnsc1C(=O)Nc1ccc2c(c1)nnn2C

>  <smiles>  (336) 
[H]c1c(N([H])C(=O)c2snnc2C([H])([H])[H])c([H])c2nnn(C([H])([H])[H])c2c1[H]

$$$$
115:0:1
     RDKit          3D

 29 31  0  0  1  0  0  0  0  0999 V2000
    5.2401   -2.1021   -2.2422 C   0  0  0  0  0  0  0  0  0  0  0  0
    6.1352   -2.8502   -1.2945 C   0  0  0  0  0  0  0  0  0  0  0  0
    7.5241   -2.6603   -1.3651 N   0  0  0  0  0  0  0  0  0  0  0  0
    8.2175   -3.3409   -0.4964 N   0  0  0  0  0  0  0  0  0  0  0  0
    7.2185   -4.2535    0.4835 S   0  0  0  0  0  0  0  0  0  0  0  0
    5.7772   -3.7554   -0.3371 C   0  0  0  0  0  0  0  0  0  0  0  0
    4.4765   -4.2917    0.1074 C   0  0  0  0  0  0  0  0  0  0  0  0
    3.4569   -3.6159   -0.0211 O   0  0  0  0  0  0  0  0  0  0  0  0
    4.5146   -5.5406    0.6075 N   0  0  0  0  0  0  0  0  0  0  0  0
    3.4662   -6.3686    1.0841 C   0  0  0  0  0  0  0  0  0  0  0  0
    3.8361   -7.6744    1.4636 C   0  0  0  0  0  0  0  0  0  0  0  0
    2.8727   -8.5710    1.9587 C   0  0  0  0  0  0  0  0  0  0  0  0
    1.5399   -8.1399    2.0650 C   0  0  0  0  0  0  0  0  0  0  0  0
    1.1322   -6.8456    1.6842 C   0  0  0  0  0  0  0  0  0  0  0  0
    2.1120   -5.9563    1.1907 C   0  0  0  0  0  0  0  0  0  0  0  0
   -0.2318   -6.6980    1.8939 N   0  0  0  0  0  0  0  0  0  0  0  0
   -0.6862   -7.8218    2.3739 N   0  0  0  0  0  0  0  0  0  0  0  0
    0.3536   -8.6979    2.4874 N   0  0  0  0  0  0  0  0  0  0  0  0
    0.1366  -10.0306    3.0065 C   0  0  0  0  0  0  0  0  0  0  0  0
    4.1925   -2.1197   -1.9393 H   0  0  0  0  0  0  0  0  0  0  0  0
    5.2940   -2.5374   -3.2399 H   0  0  0  0  0  0  0  0  0  0  0  0
    5.5268   -1.0521   -2.3130 H   0  0  0  0  0  0  0  0  0  0  0  0
    5.4286   -5.9672    0.6301 H   0  0  0  0  0  0  0  0  0  0  0  0
    4.8666   -7.9938    1.3790 H   0  0  0  0  0  0  0  0  0  0  0  0
    3.1535   -9.5715    2.2469 H   0  0  0  0  0  0  0  0  0  0  0  0
    1.7996   -4.9674    0.9133 H   0  0  0  0  0  0  0  0  0  0  0  0
    0.5764  -10.7605    2.3264 H   0  0  0  0  0  0  0  0  0  0  0  0
   -0.9306  -10.2361    3.1113 H   0  0  0  0  0  0  0  0  0  0  0  0
    0.6179  -10.1251    3.9814 H   0  0  0  0  0  0  0  0  0  0  0  0
  1  2  1  0
  1 20  1  0
  1 21  1  0
  1 22  1  0
  2  6  2  0
  2  3  1  0
  3  4  2  0
  4  5  1  0
  5  6  1  0
  6  7  1  0
  7  8  2  0
  7  9  1  0
  9 10  1  0
  9 23  1  0
 10 15  1  0
 10 11  2  0
 11 12  1  0
 11 24  1  0
 12 13  2  0
 12 25  1  0
 13 18  1  0
 13 14  1  0
 14 15  2  0
 14 16  1  0
 15 26  1  0
 16 17  2  0
 17 18  1  0
 18 19  1  0
 19 27  1  0
 19 28  1  0
 19 29  1  0
M  END
>  <i_m_ct_stereo_status>  (337) 
1

>  <s_m_source_file>  (337) 
/var/tmp/pbs.5076255.sched01/tmporjl5eer/117expd_qi0.sdf

>  <i_m_source_file_index>  (337) 
28

>  <i_lp_mmshare_version>  (337) 
48012

>  <i_f3d_flags>  (337) 
0

>  <s_epik_input>  (337) 
W0NIM11jMW5uc2MxQyg9TylbTkhdYyhbY0hdW2NIXTIpW2NIXWMoYzIzKW5ubjNbQ0gzXQ==

>  <s_epik_cmdline>  (337) 
J2VwaWtfcHl0aG9uJywgJy1waHQnLCAnMi4wJywgJy1waCcsICc3LjAnLCAnLXRuJywgJzgnLCAnLW1hJywgJzIwMCcsICctaW1hZScsICc8aW5maWxlLm1hZT4nLCAnLW9tYWUnLCAnPG91dGZpbGUubWFlPic=

>  <r_lp_tautomer_probability>  (337) 
1

>  <r_epik_Ionization_Penalty>  (337) 
9.50418e-06

>  <r_epik_Ionization_Penalty_Charging>  (337) 
0

>  <r_epik_Ionization_Penalty_Neutral>  (337) 
9.50418e-06

>  <r_epik_State_Penalty>  (337) 
-0

>  <r_epik_Charging_Adjusted_Penalty>  (337) 
0

>  <i_epik_Tot_Q>  (337) 
0

>  <i_epik_Tot_abs_Q>  (337) 
0

>  <s_lp_Force_Field>  (337) 
OPLS3e

>  <r_lp_Energy>  (337) 
16.7396

>  <b_lp_Chiralities_Consistent>  (337) 
1

>  <s_lp_Variant>  (337) 
115:0-1

>  <s_i_glide_gridfile>  (337) 
pfpi4k_grid

>  <i_i_glide_lignum>  (337) 
28

>  <i_i_glide_rotatable_bonds>  (337) 
3

>  <r_i_docking_score>  (337) 
-3.28172

>  <r_i_glide_ligand_efficiency>  (337) 
-0.172722

>  <r_i_glide_ligand_efficiency_sa>  (337) 
-0.460892

>  <r_i_glide_ligand_efficiency_ln>  (337) 
-0.831987

>  <r_i_glide_gscore>  (337) 
-3.28172

>  <r_i_glide_lipo>  (337) 
-0.300934

>  <r_i_glide_hbond>  (337) 
0

>  <r_i_glide_metal>  (337) 
-0

>  <r_i_glide_rewards>  (337) 
-1.56215

>  <r_i_glide_evdw>  (337) 
-29.7465

>  <r_i_glide_ecoul>  (337) 
-2.51707

>  <r_i_glide_erotb>  (337) 
0.71587

>  <r_i_glide_esite>  (337) 
-0.269628

>  <r_i_glide_emodel>  (337) 
-38.4244

>  <r_i_glide_energy>  (337) 
-32.2635

>  <r_i_glide_einternal>  (337) 
2.94409

>  <r_i_glide_intrahb_reward>  (337) 
-0

>  <i_i_glide_confnum>  (337) 
2

>  <i_i_glide_posenum>  (337) 
1

>  <r_i_glide_eff_state_penalty>  (337) 
0

>  <ligand_id>  (337) 
115

>  <original_smiles>  (337) 
Cc1nnsc1C(=O)Nc1ccc2c(c1)nnn2C

>  <smiles>  (337) 
[H]c1c(N([H])C(=O)c2snnc2C([H])([H])[H])c([H])c2nnn(C([H])([H])[H])c2c1[H]

$$$$
115:0:2
     RDKit          3D

 29 31  0  0  1  0  0  0  0  0999 V2000
    7.3993   -5.1469    1.1578 C   0  0  0  0  0  0  0  0  0  0  0  0
    6.8837   -4.2036    0.1025 C   0  0  0  0  0  0  0  0  0  0  0  0
    7.8031   -3.3916   -0.5784 N   0  0  0  0  0  0  0  0  0  0  0  0
    7.2766   -2.6224   -1.4835 N   0  0  0  0  0  0  0  0  0  0  0  0
    5.6130   -2.7799   -1.5395 S   0  0  0  0  0  0  0  0  0  0  0  0
    5.5924   -4.0020   -0.3191 C   0  0  0  0  0  0  0  0  0  0  0  0
    4.2898   -4.5589    0.0804 C   0  0  0  0  0  0  0  0  0  0  0  0
    3.2474   -3.9209   -0.0659 O   0  0  0  0  0  0  0  0  0  0  0  0
    4.3776   -5.8086    0.5566 N   0  0  0  0  0  0  0  0  0  0  0  0
    3.4234   -6.6601    1.1584 C   0  0  0  0  0  0  0  0  0  0  0  0
    3.9042   -7.9156    1.5949 C   0  0  0  0  0  0  0  0  0  0  0  0
    3.0259   -8.8297    2.1987 C   0  0  0  0  0  0  0  0  0  0  0  0
    1.6811   -8.4706    2.3602 C   0  0  0  0  0  0  0  0  0  0  0  0
    1.1707   -7.2222    1.9411 C   0  0  0  0  0  0  0  0  0  0  0  0
    2.0646   -6.3106    1.3372 C   0  0  0  0  0  0  0  0  0  0  0  0
   -0.1845   -7.1396    2.2245 N   0  0  0  0  0  0  0  0  0  0  0  0
   -0.5394   -8.2585    2.7844 N   0  0  0  0  0  0  0  0  0  0  0  0
    0.5546   -9.0668    2.8805 N   0  0  0  0  0  0  0  0  0  0  0  0
    0.4517  -10.3759    3.4830 C   0  0  0  0  0  0  0  0  0  0  0  0
    6.6864   -5.9182    1.4398 H   0  0  0  0  0  0  0  0  0  0  0  0
    7.6371   -4.6040    2.0732 H   0  0  0  0  0  0  0  0  0  0  0  0
    8.2943   -5.6732    0.8151 H   0  0  0  0  0  0  0  0  0  0  0  0
    5.3126   -6.1797    0.5342 H   0  0  0  0  0  0  0  0  0  0  0  0
    4.9469   -8.1762    1.4693 H   0  0  0  0  0  0  0  0  0  0  0  0
    3.3865   -9.7940    2.5217 H   0  0  0  0  0  0  0  0  0  0  0  0
    1.6810   -5.3531    1.0262 H   0  0  0  0  0  0  0  0  0  0  0  0
    0.8910  -11.1206    2.8179 H   0  0  0  0  0  0  0  0  0  0  0  0
   -0.5859  -10.6278    3.6626 H   0  0  0  0  0  0  0  0  0  0  0  0
    0.9893  -10.3864    4.4329 H   0  0  0  0  0  0  0  0  0  0  0  0
  1  2  1  0
  1 20  1  0
  1 21  1  0
  1 22  1  0
  2  6  2  0
  2  3  1  0
  3  4  2  0
  4  5  1  0
  5  6  1  0
  6  7  1  0
  7  8  2  0
  7  9  1  0
  9 10  1  0
  9 23  1  0
 10 15  1  0
 10 11  2  0
 11 12  1  0
 11 24  1  0
 12 13  2  0
 12 25  1  0
 13 18  1  0
 13 14  1  0
 14 15  2  0
 14 16  1  0
 15 26  1  0
 16 17  2  0
 17 18  1  0
 18 19  1  0
 19 27  1  0
 19 28  1  0
 19 29  1  0
M  END
>  <i_m_ct_stereo_status>  (338) 
1

>  <s_m_source_file>  (338) 
/var/tmp/pbs.5076255.sched01/tmporjl5eer/117expd_qi0.sdf

>  <i_m_source_file_index>  (338) 
28

>  <i_lp_mmshare_version>  (338) 
48012

>  <i_f3d_flags>  (338) 
0

>  <s_epik_input>  (338) 
W0NIM11jMW5uc2MxQyg9TylbTkhdYyhbY0hdW2NIXTIpW2NIXWMoYzIzKW5ubjNbQ0gzXQ==

>  <s_epik_cmdline>  (338) 
J2VwaWtfcHl0aG9uJywgJy1waHQnLCAnMi4wJywgJy1waCcsICc3LjAnLCAnLXRuJywgJzgnLCAnLW1hJywgJzIwMCcsICctaW1hZScsICc8aW5maWxlLm1hZT4nLCAnLW9tYWUnLCAnPG91dGZpbGUubWFlPic=

>  <r_lp_tautomer_probability>  (338) 
1

>  <r_epik_Ionization_Penalty>  (338) 
9.50418e-06

>  <r_epik_Ionization_Penalty_Charging>  (338) 
0

>  <r_epik_Ionization_Penalty_Neutral>  (338) 
9.50418e-06

>  <r_epik_State_Penalty>  (338) 
-0

>  <r_epik_Charging_Adjusted_Penalty>  (338) 
0

>  <i_epik_Tot_Q>  (338) 
0

>  <i_epik_Tot_abs_Q>  (338) 
0

>  <s_lp_Force_Field>  (338) 
OPLS3e

>  <r_lp_Energy>  (338) 
16.7396

>  <b_lp_Chiralities_Consistent>  (338) 
1

>  <s_lp_Variant>  (338) 
115:0-1

>  <s_i_glide_gridfile>  (338) 
pfpi4k_grid

>  <i_i_glide_lignum>  (338) 
28

>  <i_i_glide_rotatable_bonds>  (338) 
3

>  <r_i_docking_score>  (338) 
-3.03166

>  <r_i_glide_ligand_efficiency>  (338) 
-0.159561

>  <r_i_glide_ligand_efficiency_sa>  (338) 
-0.425773

>  <r_i_glide_ligand_efficiency_ln>  (338) 
-0.768591

>  <r_i_glide_gscore>  (338) 
-3.03166

>  <r_i_glide_lipo>  (338) 
-0.324862

>  <r_i_glide_hbond>  (338) 
0

>  <r_i_glide_metal>  (338) 
-0

>  <r_i_glide_rewards>  (338) 
-1.53885

>  <r_i_glide_evdw>  (338) 
-28.7409

>  <r_i_glide_ecoul>  (338) 
-1.45168

>  <r_i_glide_erotb>  (338) 
0.71587

>  <r_i_glide_esite>  (338) 
-0.229028

>  <r_i_glide_emodel>  (338) 
-36.9445

>  <r_i_glide_energy>  (338) 
-30.1926

>  <r_i_glide_einternal>  (338) 
0.386575

>  <r_i_glide_intrahb_reward>  (338) 
-0

>  <i_i_glide_confnum>  (338) 
1

>  <i_i_glide_posenum>  (338) 
29

>  <r_i_glide_eff_state_penalty>  (338) 
0

>  <ligand_id>  (338) 
115

>  <original_smiles>  (338) 
Cc1nnsc1C(=O)Nc1ccc2c(c1)nnn2C

>  <smiles>  (338) 
[H]c1c(N([H])C(=O)c2snnc2C([H])([H])[H])c([H])c2nnn(C([H])([H])[H])c2c1[H]

$$$$
116:0:0
     RDKit          3D

 46 51  0  0  1  0  0  0  0  0999 V2000
    0.1420   -0.2807    3.9550 C   0  0  0  0  0  0  0  0  0  0  0  0
    0.7504    1.0843    3.6074 C   0  0  1  0  0  0  0  0  0  0  0  0
   -0.1291    1.6872    2.4677 C   0  0  0  0  0  0  0  0  0  0  0  0
   -1.5144    2.2043    2.9204 C   0  0  0  0  0  0  0  0  0  0  0  0
   -1.3646    3.1709    4.0722 C   0  0  0  0  0  0  0  0  0  0  0  0
   -2.1613    4.1363    4.1684 O   0  0  0  0  0  0  0  0  0  0  0  0
   -0.3171    2.9223    5.0492 C   0  0  0  0  0  0  0  0  0  0  0  0
    0.6253    1.9714    4.8672 C   0  0  0  0  0  0  0  0  0  0  0  0
    1.6735    1.7218    5.9261 C   0  0  0  0  0  0  0  0  0  0  0  0
    3.0593    2.0306    5.3764 C   0  0  0  0  0  0  0  0  0  0  0  0
    3.4160    1.0805    4.2161 C   0  0  2  0  0  0  0  0  0  0  0  0
    2.2673    0.9947    3.1396 C   0  0  1  0  0  0  0  0  0  0  0  0
    2.5903    0.1427    1.8698 C   0  0  0  0  0  0  0  0  0  0  0  0
    2.7350   -1.4107    1.9463 C   0  0  0  0  0  0  0  0  0  0  0  0
    4.1053   -2.0663    2.3321 C   0  0  1  0  0  0  0  0  0  0  0  0
    4.1106   -3.3723    1.7876 O   0  0  0  0  0  0  0  0  0  0  0  0
    5.2623   -1.2386    1.7704 C   0  0  0  0  0  0  0  0  0  0  0  0
    5.6464   -1.2916    0.5967 O   0  0  0  0  0  0  0  0  0  0  0  0
    5.6901   -0.4094    2.7329 O   0  0  0  0  0  0  0  0  0  0  0  0
    5.2953   -0.7807    4.0506 C   0  0  2  0  0  0  0  0  0  0  0  0
    4.4788   -2.0532    3.8154 C   0  0  1  0  0  0  0  0  0  0  0  0
    3.3962   -1.5443    4.7500 C   0  0  1  0  0  0  0  0  0  0  0  0
    3.7036   -0.8431    5.9781 O   0  0  0  0  0  0  0  0  0  0  0  0
    4.0832   -0.1901    4.7315 C   0  0  2  0  0  0  0  0  0  0  0  0
    0.1038   -0.9382    3.0884 H   0  0  0  0  0  0  0  0  0  0  0  0
   -0.8810   -0.1732    4.3075 H   0  0  0  0  0  0  0  0  0  0  0  0
    0.6785   -0.7673    4.7541 H   0  0  0  0  0  0  0  0  0  0  0  0
    0.3877    2.5187    2.0018 H   0  0  0  0  0  0  0  0  0  0  0  0
   -0.2922    0.9674    1.6588 H   0  0  0  0  0  0  0  0  0  0  0  0
   -2.0187    2.7033    2.0977 H   0  0  0  0  0  0  0  0  0  0  0  0
   -2.1599    1.3806    3.2357 H   0  0  0  0  0  0  0  0  0  0  0  0
   -0.3256    3.5062    5.9628 H   0  0  0  0  0  0  0  0  0  0  0  0
    1.4868    2.3522    6.7960 H   0  0  0  0  0  0  0  0  0  0  0  0
    1.6059    0.6864    6.2719 H   0  0  0  0  0  0  0  0  0  0  0  0
    3.0932    3.0567    5.0200 H   0  0  0  0  0  0  0  0  0  0  0  0
    3.8075    1.9358    6.1611 H   0  0  0  0  0  0  0  0  0  0  0  0
    4.2304    1.5897    3.6919 H   0  0  0  0  0  0  0  0  0  0  0  0
    2.3852    1.9858    2.7136 H   0  0  0  0  0  0  0  0  0  0  0  0
    1.7964    0.3275    1.1473 H   0  0  0  0  0  0  0  0  0  0  0  0
    3.4462    0.5838    1.3589 H   0  0  0  0  0  0  0  0  0  0  0  0
    1.9509   -1.8461    2.5496 H   0  0  0  0  0  0  0  0  0  0  0  0
    2.5007   -1.7520    0.9371 H   0  0  0  0  0  0  0  0  0  0  0  0
    3.9904   -3.2975    0.8478 H   0  0  0  0  0  0  0  0  0  0  0  0
    6.1469   -0.9699    4.7134 H   0  0  0  0  0  0  0  0  0  0  0  0
    5.0091   -2.9299    4.1872 H   0  0  0  0  0  0  0  0  0  0  0  0
    2.3610   -1.8363    4.6776 H   0  0  0  0  0  0  0  0  0  0  0  0
  2  1  1  1
  1 25  1  0
  1 26  1  0
  1 27  1  0
  2  8  1  0
  2 12  1  0
  2  3  1  0
  3  4  1  0
  3 28  1  0
  3 29  1  0
  4  5  1  0
  4 30  1  0
  4 31  1  0
  5  6  2  0
  5  7  1  0
  7  8  2  0
  7 32  1  0
  8  9  1  0
  9 10  1  0
  9 33  1  0
  9 34  1  0
 10 11  1  0
 10 35  1  0
 10 36  1  0
 11 24  1  0
 11 12  1  0
 11 37  1  6
 12 13  1  0
 12 38  1  6
 13 14  1  0
 13 39  1  0
 13 40  1  0
 14 15  1  0
 14 41  1  0
 14 42  1  0
 15 21  1  0
 15 16  1  6
 15 17  1  0
 16 43  1  0
 17 18  2  0
 17 19  1  0
 19 20  1  0
 20 24  1  0
 20 21  1  0
 20 44  1  1
 21 22  1  0
 21 45  1  1
 22 24  1  0
 22 23  1  0
 22 46  1  6
 24 23  1  1
M  END
>  <i_m_ct_stereo_status>  (339) 
1

>  <s_m_source_file>  (339) 
/var/tmp/pbs.5076255.sched01/tmporjl5eer/117expd_qi0.sdf

>  <i_m_source_file_index>  (339) 
29

>  <i_lp_mmshare_version>  (339) 
48012

>  <i_f3d_flags>  (339) 
0

>  <s_epik_input>  (339) 
W0NIMl0xW0NIMl1DKD1PKVtDSF09QyhbQ0gyXVtDSDJdMilbQ0BdMShbQ0gzXSlbQ0BASF0oW0NAQEhdMltDQF0zNDUpW0NIMl1bQ0gyXVtDQF02KFtPSF0pW0NASF0oW0NASF00TzUpW0NASF0zT0M2PU8=

>  <s_epik_cmdline>  (339) 
J2VwaWtfcHl0aG9uJywgJy1waHQnLCAnMi4wJywgJy1waCcsICc3LjAnLCAnLXRuJywgJzgnLCAnLW1hJywgJzIwMCcsICctaW1hZScsICc8aW5maWxlLm1hZT4nLCAnLW9tYWUnLCAnPG91dGZpbGUubWFlPic=

>  <r_lp_tautomer_probability>  (339) 
1

>  <r_epik_Ionization_Penalty>  (339) 
1.58925e-07

>  <r_epik_Ionization_Penalty_Charging>  (339) 
0

>  <r_epik_Ionization_Penalty_Neutral>  (339) 
1.58925e-07

>  <r_epik_State_Penalty>  (339) 
-0

>  <r_epik_Charging_Adjusted_Penalty>  (339) 
0

>  <i_epik_Tot_Q>  (339) 
0

>  <i_epik_Tot_abs_Q>  (339) 
0

>  <s_epik_Chemistry_Notes>  (339) 
This compound has an ester and may undergo hydrolysis at high or low pH.

>  <s_lp_Force_Field>  (339) 
OPLS3e

>  <r_lp_Energy>  (339) 
58.4571

>  <b_lp_Chiralities_Consistent>  (339) 
1

>  <s_lp_Variant>  (339) 
116:0-1

>  <s_i_glide_gridfile>  (339) 
pfpi4k_grid

>  <i_i_glide_lignum>  (339) 
29

>  <i_i_glide_rotatable_bonds>  (339) 
1

>  <r_i_docking_score>  (339) 
-3.28175

>  <r_i_glide_ligand_efficiency>  (339) 
-0.13674

>  <r_i_glide_ligand_efficiency_sa>  (339) 
-0.394426

>  <r_i_glide_ligand_efficiency_ln>  (339) 
-0.785474

>  <r_i_glide_gscore>  (339) 
-3.28175

>  <r_i_glide_lipo>  (339) 
-0.104066

>  <r_i_glide_hbond>  (339) 
-0.117883

>  <r_i_glide_metal>  (339) 
-0

>  <r_i_glide_rewards>  (339) 
-1.30926

>  <r_i_glide_evdw>  (339) 
-22.262

>  <r_i_glide_ecoul>  (339) 
-3.95654

>  <r_i_glide_erotb>  (339) 
0

>  <r_i_glide_esite>  (339) 
-0.0439661

>  <r_i_glide_emodel>  (339) 
-30.4563

>  <r_i_glide_energy>  (339) 
-26.2185

>  <r_i_glide_einternal>  (339) 
1.64181

>  <r_i_glide_intrahb_reward>  (339) 
-0

>  <i_i_glide_confnum>  (339) 
2

>  <i_i_glide_posenum>  (339) 
15

>  <r_i_glide_eff_state_penalty>  (339) 
0

>  <ligand_id>  (339) 
116

>  <original_smiles>  (339) 
CC12CCC(=O)C=C1CCC1C2CCC2(O)C(=O)OC3C2C2OC132

>  <smiles>  (339) 
[H]OC12C(=O)OC3([H])C1([H])C1([H])OC31C1([H])C([H])([H])C([H])([H])C3=C([H])C(=O)C([H])([H])C([H])([H])C3(C([H])([H])[H])C1([H])C([H])([H])C2([H])[H]

$$$$
116:0:1
     RDKit          3D

 46 51  0  0  1  0  0  0  0  0999 V2000
    5.6412   -1.2793    0.3160 C   0  0  0  0  0  0  0  0  0  0  0  0
    4.3714   -2.0591   -0.0682 C   0  0  1  0  0  0  0  0  0  0  0  0
    3.8507   -1.4443   -1.4111 C   0  0  0  0  0  0  0  0  0  0  0  0
    4.6901   -1.7878   -2.6501 C   0  0  0  0  0  0  0  0  0  0  0  0
    4.8627   -3.2953   -2.7797 C   0  0  0  0  0  0  0  0  0  0  0  0
    4.8998   -3.8026   -3.8918 O   0  0  0  0  0  0  0  0  0  0  0  0
    4.9988   -4.0575   -1.5394 C   0  0  0  0  0  0  0  0  0  0  0  0
    4.8008   -3.5186   -0.3238 C   0  0  0  0  0  0  0  0  0  0  0  0
    4.9737   -4.3584    0.9133 C   0  0  0  0  0  0  0  0  0  0  0  0
    3.6534   -4.4696    1.6651 C   0  0  0  0  0  0  0  0  0  0  0  0
    3.1935   -3.0980    2.1776 C   0  0  2  0  0  0  0  0  0  0  0  0
    3.2464   -1.9964    1.0498 C   0  0  1  0  0  0  0  0  0  0  0  0
    2.6807   -0.5920    1.4350 C   0  0  0  0  0  0  0  0  0  0  0  0
    3.4235    0.3313    2.4413 C   0  0  0  0  0  0  0  0  0  0  0  0
    3.2006    0.1782    3.9844 C   0  0  1  0  0  0  0  0  0  0  0  0
    3.5295    1.4185    4.5766 O   0  0  0  0  0  0  0  0  0  0  0  0
    1.7553   -0.2042    4.2535 C   0  0  0  0  0  0  0  0  0  0  0  0
    0.8114    0.6108    4.2699 O   0  0  0  0  0  0  0  0  0  0  0  0
    1.6860   -1.5399    4.3547 O   0  0  0  0  0  0  0  0  0  0  0  0
    2.9284   -2.1850    4.6485 C   0  0  2  0  0  0  0  0  0  0  0  0
    3.9035   -1.0049    4.6624 C   0  0  1  0  0  0  0  0  0  0  0  0
    4.8629   -1.7692    3.7795 C   0  0  1  0  0  0  0  0  0  0  0  0
    5.1378   -3.1729    3.9498 O   0  0  0  0  0  0  0  0  0  0  0  0
    3.7865   -2.8029    3.5561 C   0  0  2  0  0  0  0  0  0  0  0  0
    5.4572   -0.2092    0.4149 H   0  0  0  0  0  0  0  0  0  0  0  0
    6.4128   -1.3957   -0.4414 H   0  0  0  0  0  0  0  0  0  0  0  0
    6.0777   -1.6592    1.2282 H   0  0  0  0  0  0  0  0  0  0  0  0
    2.8268   -1.7533   -1.6293 H   0  0  0  0  0  0  0  0  0  0  0  0
    3.8352   -0.3580   -1.3540 H   0  0  0  0  0  0  0  0  0  0  0  0
    4.2230   -1.4088   -3.5569 H   0  0  0  0  0  0  0  0  0  0  0  0
    5.6790   -1.3406   -2.5842 H   0  0  0  0  0  0  0  0  0  0  0  0
    5.2618   -5.1014   -1.6344 H   0  0  0  0  0  0  0  0  0  0  0  0
    5.3083   -5.3606    0.6386 H   0  0  0  0  0  0  0  0  0  0  0  0
    5.7564   -3.9250    1.5414 H   0  0  0  0  0  0  0  0  0  0  0  0
    2.8890   -4.8848    1.0108 H   0  0  0  0  0  0  0  0  0  0  0  0
    3.7639   -5.1475    2.5142 H   0  0  0  0  0  0  0  0  0  0  0  0
    2.1216   -3.2163    2.3963 H   0  0  0  0  0  0  0  0  0  0  0  0
    2.4090   -2.3496    0.4618 H   0  0  0  0  0  0  0  0  0  0  0  0
    2.6063   -0.0177    0.5088 H   0  0  0  0  0  0  0  0  0  0  0  0
    1.6288   -0.6941    1.6991 H   0  0  0  0  0  0  0  0  0  0  0  0
    4.4851    0.3428    2.2392 H   0  0  0  0  0  0  0  0  0  0  0  0
    3.0994    1.3376    2.1780 H   0  0  0  0  0  0  0  0  0  0  0  0
    3.0160    2.0886    4.1417 H   0  0  0  0  0  0  0  0  0  0  0  0
    2.9353   -2.6909    5.6249 H   0  0  0  0  0  0  0  0  0  0  0  0
    4.2761   -0.8287    5.6696 H   0  0  0  0  0  0  0  0  0  0  0  0
    5.5580   -1.2748    3.1042 H   0  0  0  0  0  0  0  0  0  0  0  0
  2  1  1  1
  1 25  1  0
  1 26  1  0
  1 27  1  0
  2  8  1  0
  2 12  1  0
  2  3  1  0
  3  4  1  0
  3 28  1  0
  3 29  1  0
  4  5  1  0
  4 30  1  0
  4 31  1  0
  5  6  2  0
  5  7  1  0
  7  8  2  0
  7 32  1  0
  8  9  1  0
  9 10  1  0
  9 33  1  0
  9 34  1  0
 10 11  1  0
 10 35  1  0
 10 36  1  0
 11 24  1  0
 11 12  1  0
 11 37  1  1
 12 13  1  0
 12 38  1  6
 13 14  1  0
 13 39  1  0
 13 40  1  0
 14 15  1  0
 14 41  1  0
 14 42  1  0
 15 21  1  0
 15 16  1  1
 15 17  1  0
 16 43  1  0
 17 18  2  0
 17 19  1  0
 19 20  1  0
 20 24  1  0
 20 21  1  0
 20 44  1  1
 21 22  1  0
 21 45  1  1
 22 24  1  0
 22 23  1  0
 22 46  1  6
 24 23  1  1
M  END
>  <i_m_ct_stereo_status>  (340) 
1

>  <s_m_source_file>  (340) 
/var/tmp/pbs.5076255.sched01/tmporjl5eer/117expd_qi0.sdf

>  <i_m_source_file_index>  (340) 
29

>  <i_lp_mmshare_version>  (340) 
48012

>  <i_f3d_flags>  (340) 
0

>  <s_epik_input>  (340) 
W0NIMl0xW0NIMl1DKD1PKVtDSF09QyhbQ0gyXVtDSDJdMilbQ0BdMShbQ0gzXSlbQ0BASF0oW0NAQEhdMltDQF0zNDUpW0NIMl1bQ0gyXVtDQF02KFtPSF0pW0NASF0oW0NASF00TzUpW0NASF0zT0M2PU8=

>  <s_epik_cmdline>  (340) 
J2VwaWtfcHl0aG9uJywgJy1waHQnLCAnMi4wJywgJy1waCcsICc3LjAnLCAnLXRuJywgJzgnLCAnLW1hJywgJzIwMCcsICctaW1hZScsICc8aW5maWxlLm1hZT4nLCAnLW9tYWUnLCAnPG91dGZpbGUubWFlPic=

>  <r_lp_tautomer_probability>  (340) 
1

>  <r_epik_Ionization_Penalty>  (340) 
1.58925e-07

>  <r_epik_Ionization_Penalty_Charging>  (340) 
0

>  <r_epik_Ionization_Penalty_Neutral>  (340) 
1.58925e-07

>  <r_epik_State_Penalty>  (340) 
-0

>  <r_epik_Charging_Adjusted_Penalty>  (340) 
0

>  <i_epik_Tot_Q>  (340) 
0

>  <i_epik_Tot_abs_Q>  (340) 
0

>  <s_epik_Chemistry_Notes>  (340) 
This compound has an ester and may undergo hydrolysis at high or low pH.

>  <s_lp_Force_Field>  (340) 
OPLS3e

>  <r_lp_Energy>  (340) 
58.4571

>  <b_lp_Chiralities_Consistent>  (340) 
1

>  <s_lp_Variant>  (340) 
116:0-1

>  <s_i_glide_gridfile>  (340) 
pfpi4k_grid

>  <i_i_glide_lignum>  (340) 
29

>  <i_i_glide_rotatable_bonds>  (340) 
1

>  <r_i_docking_score>  (340) 
-3.14137

>  <r_i_glide_ligand_efficiency>  (340) 
-0.13089

>  <r_i_glide_ligand_efficiency_sa>  (340) 
-0.377553

>  <r_i_glide_ligand_efficiency_ln>  (340) 
-0.751874

>  <r_i_glide_gscore>  (340) 
-3.14137

>  <r_i_glide_lipo>  (340) 
-0.249372

>  <r_i_glide_hbond>  (340) 
0

>  <r_i_glide_metal>  (340) 
-0

>  <r_i_glide_rewards>  (340) 
-1.35944

>  <r_i_glide_evdw>  (340) 
-24.5027

>  <r_i_glide_ecoul>  (340) 
-2.04227

>  <r_i_glide_erotb>  (340) 
0

>  <r_i_glide_esite>  (340) 
-0.0010828

>  <r_i_glide_emodel>  (340) 
-30.5487

>  <r_i_glide_energy>  (340) 
-26.545

>  <r_i_glide_einternal>  (340) 
1.68978

>  <r_i_glide_intrahb_reward>  (340) 
-0

>  <i_i_glide_confnum>  (340) 
1

>  <i_i_glide_posenum>  (340) 
36

>  <r_i_glide_eff_state_penalty>  (340) 
0

>  <ligand_id>  (340) 
116

>  <original_smiles>  (340) 
CC12CCC(=O)C=C1CCC1C2CCC2(O)C(=O)OC3C2C2OC132

>  <smiles>  (340) 
[H]OC12C(=O)OC3([H])C1([H])C1([H])OC31C1([H])C([H])([H])C([H])([H])C3=C([H])C(=O)C([H])([H])C([H])([H])C3(C([H])([H])[H])C1([H])C([H])([H])C2([H])[H]

$$$$
116:0:2
     RDKit          3D

 46 51  0  0  1  0  0  0  0  0999 V2000
    5.6553   -1.3790    0.5941 C   0  0  0  0  0  0  0  0  0  0  0  0
    4.3865   -2.1285    0.1488 C   0  0  1  0  0  0  0  0  0  0  0  0
    3.8970   -1.4335   -1.1622 C   0  0  0  0  0  0  0  0  0  0  0  0
    4.7581   -1.7068   -2.4046 C   0  0  0  0  0  0  0  0  0  0  0  0
    4.9104   -3.2077   -2.6267 C   0  0  0  0  0  0  0  0  0  0  0  0
    4.9623   -3.6435   -3.7706 O   0  0  0  0  0  0  0  0  0  0  0  0
    5.0080   -4.0455   -1.4318 C   0  0  0  0  0  0  0  0  0  0  0  0
    4.8037   -3.5758   -0.1865 C   0  0  0  0  0  0  0  0  0  0  0  0
    4.9580   -4.4823    1.0052 C   0  0  0  0  0  0  0  0  0  0  0  0
    3.6269   -4.6263    1.7330 C   0  0  0  0  0  0  0  0  0  0  0  0
    3.1675   -3.2813    2.3147 C   0  0  2  0  0  0  0  0  0  0  0  0
    3.2418   -2.1170    1.2514 C   0  0  1  0  0  0  0  0  0  0  0  0
    2.6821   -0.7290    1.7086 C   0  0  0  0  0  0  0  0  0  0  0  0
    3.4179    0.1330    2.7807 C   0  0  0  0  0  0  0  0  0  0  0  0
    3.1668   -0.1119    4.3105 C   0  0  1  0  0  0  0  0  0  0  0  0
    3.4833    1.0780    5.0053 O   0  0  0  0  0  0  0  0  0  0  0  0
    1.7124   -0.5072    4.5333 C   0  0  0  0  0  0  0  0  0  0  0  0
    0.7638    0.3051    4.5787 O   0  0  0  0  0  0  0  0  0  0  0  0
    1.6412   -1.8437    4.5526 O   0  0  0  0  0  0  0  0  0  0  0  0
    2.8742   -2.5082    4.8303 C   0  0  2  0  0  0  0  0  0  0  0  0
    3.8556   -1.3374    4.9254 C   0  0  1  0  0  0  0  0  0  0  0  0
    4.8220   -2.0543    4.0125 C   0  0  1  0  0  0  0  0  0  0  0  0
    5.0845   -3.4685    4.1099 O   0  0  0  0  0  0  0  0  0  0  0  0
    3.7409   -3.0665    3.7169 C   0  0  2  0  0  0  0  0  0  0  0  0
    5.4751   -0.3149    0.7482 H   0  0  0  0  0  0  0  0  0  0  0  0
    6.4379   -1.4541   -0.1574 H   0  0  0  0  0  0  0  0  0  0  0  0
    6.0763   -1.8114    1.4891 H   0  0  0  0  0  0  0  0  0  0  0  0
    2.8777   -1.7273   -1.4190 H   0  0  0  0  0  0  0  0  0  0  0  0
    3.8809   -0.3538   -1.0293 H   0  0  0  0  0  0  0  0  0  0  0  0
    4.3003   -1.2770   -3.2927 H   0  0  0  0  0  0  0  0  0  0  0  0
    5.7487   -1.2680   -2.3061 H   0  0  0  0  0  0  0  0  0  0  0  0
    5.2763   -5.0827   -1.5798 H   0  0  0  0  0  0  0  0  0  0  0  0
    5.2922   -5.4709    0.6828 H   0  0  0  0  0  0  0  0  0  0  0  0
    5.7344   -4.0888    1.6688 H   0  0  0  0  0  0  0  0  0  0  0  0
    2.8695   -4.9992    1.0467 H   0  0  0  0  0  0  0  0  0  0  0  0
    3.7211   -5.3504    2.5447 H   0  0  0  0  0  0  0  0  0  0  0  0
    2.0917   -3.4061    2.5118 H   0  0  0  0  0  0  0  0  0  0  0  0
    2.4111   -2.4301    0.6302 H   0  0  0  0  0  0  0  0  0  0  0  0
    2.6156   -0.1029    0.8164 H   0  0  0  0  0  0  0  0  0  0  0  0
    1.6277   -0.8422    1.9552 H   0  0  0  0  0  0  0  0  0  0  0  0
    4.4815    0.1504    2.5895 H   0  0  0  0  0  0  0  0  0  0  0  0
    3.1036    1.1552    2.5748 H   0  0  0  0  0  0  0  0  0  0  0  0
    4.3602    1.3537    4.7667 H   0  0  0  0  0  0  0  0  0  0  0  0
    2.8613   -3.0681    5.7777 H   0  0  0  0  0  0  0  0  0  0  0  0
    4.2132   -1.2246    5.9480 H   0  0  0  0  0  0  0  0  0  0  0  0
    5.5269   -1.5305    3.3718 H   0  0  0  0  0  0  0  0  0  0  0  0
  2  1  1  1
  1 25  1  0
  1 26  1  0
  1 27  1  0
  2  8  1  0
  2 12  1  0
  2  3  1  0
  3  4  1  0
  3 28  1  0
  3 29  1  0
  4  5  1  0
  4 30  1  0
  4 31  1  0
  5  6  2  0
  5  7  1  0
  7  8  2  0
  7 32  1  0
  8  9  1  0
  9 10  1  0
  9 33  1  0
  9 34  1  0
 10 11  1  0
 10 35  1  0
 10 36  1  0
 11 24  1  0
 11 12  1  0
 11 37  1  1
 12 13  1  0
 12 38  1  6
 13 14  1  0
 13 39  1  0
 13 40  1  0
 14 15  1  0
 14 41  1  0
 14 42  1  0
 15 21  1  0
 15 16  1  1
 15 17  1  0
 16 43  1  0
 17 18  2  0
 17 19  1  0
 19 20  1  0
 20 24  1  0
 20 21  1  0
 20 44  1  1
 21 22  1  0
 21 45  1  1
 22 24  1  0
 22 23  1  0
 22 46  1  6
 24 23  1  1
M  END
>  <i_m_ct_stereo_status>  (341) 
1

>  <s_m_source_file>  (341) 
/var/tmp/pbs.5076255.sched01/tmporjl5eer/117expd_qi0.sdf

>  <i_m_source_file_index>  (341) 
29

>  <i_lp_mmshare_version>  (341) 
48012

>  <i_f3d_flags>  (341) 
0

>  <s_epik_input>  (341) 
W0NIMl0xW0NIMl1DKD1PKVtDSF09QyhbQ0gyXVtDSDJdMilbQ0BdMShbQ0gzXSlbQ0BASF0oW0NAQEhdMltDQF0zNDUpW0NIMl1bQ0gyXVtDQF02KFtPSF0pW0NASF0oW0NASF00TzUpW0NASF0zT0M2PU8=

>  <s_epik_cmdline>  (341) 
J2VwaWtfcHl0aG9uJywgJy1waHQnLCAnMi4wJywgJy1waCcsICc3LjAnLCAnLXRuJywgJzgnLCAnLW1hJywgJzIwMCcsICctaW1hZScsICc8aW5maWxlLm1hZT4nLCAnLW9tYWUnLCAnPG91dGZpbGUubWFlPic=

>  <r_lp_tautomer_probability>  (341) 
1

>  <r_epik_Ionization_Penalty>  (341) 
1.58925e-07

>  <r_epik_Ionization_Penalty_Charging>  (341) 
0

>  <r_epik_Ionization_Penalty_Neutral>  (341) 
1.58925e-07

>  <r_epik_State_Penalty>  (341) 
-0

>  <r_epik_Charging_Adjusted_Penalty>  (341) 
0

>  <i_epik_Tot_Q>  (341) 
0

>  <i_epik_Tot_abs_Q>  (341) 
0

>  <s_epik_Chemistry_Notes>  (341) 
This compound has an ester and may undergo hydrolysis at high or low pH.

>  <s_lp_Force_Field>  (341) 
OPLS3e

>  <r_lp_Energy>  (341) 
58.4571

>  <b_lp_Chiralities_Consistent>  (341) 
1

>  <s_lp_Variant>  (341) 
116:0-1

>  <s_i_glide_gridfile>  (341) 
pfpi4k_grid

>  <i_i_glide_lignum>  (341) 
29

>  <i_i_glide_rotatable_bonds>  (341) 
1

>  <r_i_docking_score>  (341) 
-3.06414

>  <r_i_glide_ligand_efficiency>  (341) 
-0.127673

>  <r_i_glide_ligand_efficiency_sa>  (341) 
-0.368272

>  <r_i_glide_ligand_efficiency_ln>  (341) 
-0.73339

>  <r_i_glide_gscore>  (341) 
-3.06414

>  <r_i_glide_lipo>  (341) 
-0.243563

>  <r_i_glide_hbond>  (341) 
0

>  <r_i_glide_metal>  (341) 
-0

>  <r_i_glide_rewards>  (341) 
-1.35408

>  <r_i_glide_evdw>  (341) 
-24.3897

>  <r_i_glide_ecoul>  (341) 
-1.64489

>  <r_i_glide_erotb>  (341) 
0

>  <r_i_glide_esite>  (341) 
-0.000280588

>  <r_i_glide_emodel>  (341) 
-30.7083

>  <r_i_glide_energy>  (341) 
-26.0346

>  <r_i_glide_einternal>  (341) 
0.0270002

>  <r_i_glide_intrahb_reward>  (341) 
-0

>  <i_i_glide_confnum>  (341) 
1

>  <i_i_glide_posenum>  (341) 
1

>  <r_i_glide_eff_state_penalty>  (341) 
0

>  <ligand_id>  (341) 
116

>  <original_smiles>  (341) 
CC12CCC(=O)C=C1CCC1C2CCC2(O)C(=O)OC3C2C2OC132

>  <smiles>  (341) 
[H]OC12C(=O)OC3([H])C1([H])C1([H])OC31C1([H])C([H])([H])C([H])([H])C3=C([H])C(=O)C([H])([H])C([H])([H])C3(C([H])([H])[H])C1([H])C([H])([H])C2([H])[H]

$$$$
117:0:0
     RDKit          3D

 52 56  0  0  1  0  0  0  0  0999 V2000
    5.6050   -6.1002    2.1791 C   0  0  0  0  0  0  0  0  0  0  0  0
    4.4893   -5.4219    1.3978 C   0  0  0  0  0  0  0  0  0  0  0  0
    3.2086   -5.8008    1.2123 C   0  0  0  0  0  0  0  0  0  0  0  0
    2.4769   -6.9125    1.7856 C   0  0  0  0  0  0  0  0  0  0  0  0
    2.9606   -8.1535    1.9688 C   0  0  0  0  0  0  0  0  0  0  0  0
    2.2844   -9.2715    2.5355 C   0  0  0  0  0  0  0  0  0  0  0  0
    2.6594  -10.5699    2.7277 C   0  0  0  0  0  0  0  0  0  0  0  0
    1.5484  -11.2251    3.3334 C   0  0  0  0  0  0  0  0  0  0  0  0
    0.5777  -10.2706    3.4650 C   0  0  0  0  0  0  0  0  0  0  0  0
    1.0107   -9.0739    2.9795 O   0  0  0  0  0  0  0  0  0  0  0  0
    2.5830   -4.9602    0.3322 O   0  0  0  0  0  0  0  0  0  0  0  0
    3.6014   -4.2736   -0.3199 C   0  0  1  0  0  0  0  0  0  0  0  0
    3.3376   -3.0933   -0.9450 O   0  0  0  0  0  0  0  0  0  0  0  0
    4.5167   -2.6310   -1.6150 C   0  0  1  0  0  0  0  0  0  0  0  0
    4.2328   -2.7963   -3.1181 C   0  0  0  0  0  0  0  0  0  0  0  0
    4.6874   -1.1463   -1.2544 C   0  0  0  0  0  0  0  0  0  0  0  0
    5.0680   -0.8667    0.2117 C   0  0  0  0  0  0  0  0  0  0  0  0
    4.1164   -1.5106    1.2385 C   0  0  2  0  0  0  0  0  0  0  0  0
    3.9774   -0.7134    2.5488 C   0  0  1  0  0  0  0  0  0  0  0  0
    3.0166    0.4839    2.4422 C   0  0  0  0  0  0  0  0  0  0  0  0
    3.5354   -1.7426    3.6037 C   0  0  0  0  0  0  0  0  0  0  0  0
    3.6849   -3.1253    2.9609 C   0  0  0  0  0  0  0  0  0  0  0  0
    4.5597   -2.9082    1.7161 C   0  0  1  0  0  0  0  0  0  0  0  0
    4.7079   -4.1029    0.7007 C   0  0  1  0  0  0  0  0  0  0  0  0
    5.9352   -3.9608    0.0054 O   0  0  0  0  0  0  0  0  0  0  0  0
    5.7198   -3.4210   -1.4263 O   0  0  0  0  0  0  0  0  0  0  0  0
    6.0852   -5.4009    2.8673 H   0  0  0  0  0  0  0  0  0  0  0  0
    6.3601   -6.4744    1.4817 H   0  0  0  0  0  0  0  0  0  0  0  0
    5.2473   -6.9443    2.7689 H   0  0  0  0  0  0  0  0  0  0  0  0
    1.4601   -6.7178    2.0967 H   0  0  0  0  0  0  0  0  0  0  0  0
    3.9695   -8.3664    1.6577 H   0  0  0  0  0  0  0  0  0  0  0  0
    3.6151  -10.9972    2.4545 H   0  0  0  0  0  0  0  0  0  0  0  0
    1.4564  -12.2573    3.6355 H   0  0  0  0  0  0  0  0  0  0  0  0
   -0.4278  -10.2661    3.8580 H   0  0  0  0  0  0  0  0  0  0  0  0
    3.9225   -4.9666   -1.0977 H   0  0  0  0  0  0  0  0  0  0  0  0
    4.1343   -3.8542   -3.3628 H   0  0  0  0  0  0  0  0  0  0  0  0
    5.0493   -2.4047   -3.7204 H   0  0  0  0  0  0  0  0  0  0  0  0
    3.3128   -2.3013   -3.4264 H   0  0  0  0  0  0  0  0  0  0  0  0
    5.4163   -0.6764   -1.9117 H   0  0  0  0  0  0  0  0  0  0  0  0
    3.7365   -0.6618   -1.4700 H   0  0  0  0  0  0  0  0  0  0  0  0
    6.1012   -1.1632    0.3965 H   0  0  0  0  0  0  0  0  0  0  0  0
    5.0420    0.2126    0.3592 H   0  0  0  0  0  0  0  0  0  0  0  0
    3.1087   -1.5630    0.8235 H   0  0  0  0  0  0  0  0  0  0  0  0
    4.9631   -0.3473    2.8409 H   0  0  0  0  0  0  0  0  0  0  0  0
    2.0171    0.1722    2.1363 H   0  0  0  0  0  0  0  0  0  0  0  0
    3.3714    1.2112    1.7128 H   0  0  0  0  0  0  0  0  0  0  0  0
    2.9279    1.0005    3.3977 H   0  0  0  0  0  0  0  0  0  0  0  0
    4.1600   -1.6606    4.4934 H   0  0  0  0  0  0  0  0  0  0  0  0
    2.5038   -1.5910    3.9196 H   0  0  0  0  0  0  0  0  0  0  0  0
    4.1066   -3.8546    3.6537 H   0  0  0  0  0  0  0  0  0  0  0  0
    2.6989   -3.4813    2.6611 H   0  0  0  0  0  0  0  0  0  0  0  0
    5.5685   -2.7805    2.1173 H   0  0  0  0  0  0  0  0  0  0  0  0
  1  2  1  0
  1 27  1  0
  1 28  1  0
  1 29  1  0
 24  2  1  1
  2  3  2  0
  3  4  1  0
  3 11  1  0
  4  5  2  3
  4 30  1  0
  5  6  1  0
  5 31  1  0
  6 10  1  0
  6  7  2  0
  7  8  1  0
  7 32  1  0
  8  9  2  0
  8 33  1  0
  9 10  1  0
  9 34  1  0
 11 12  1  0
 12 24  1  0
 12 13  1  0
 12 35  1  6
 13 14  1  0
 14 26  1  0
 14 15  1  6
 14 16  1  0
 15 36  1  0
 15 37  1  0
 15 38  1  0
 16 17  1  0
 16 39  1  0
 16 40  1  0
 17 18  1  0
 17 41  1  0
 17 42  1  0
 18 23  1  0
 18 19  1  0
 18 43  1  6
 19 20  1  0
 19 21  1  0
 19 44  1  1
 20 45  1  0
 20 46  1  0
 20 47  1  0
 21 22  1  0
 21 48  1  0
 21 49  1  0
 22 23  1  0
 22 50  1  0
 22 51  1  0
 23 24  1  0
 23 52  1  1
 24 25  1  0
 25 26  1  0
M  END
>  <i_m_ct_stereo_status>  (342) 
1

>  <s_m_source_file>  (342) 
/var/tmp/pbs.5076255.sched01/tmporjl5eer/117expd_qi0.sdf

>  <i_m_source_file_index>  (342) 
30

>  <i_lp_mmshare_version>  (342) 
48012

>  <i_f3d_flags>  (342) 
0

>  <s_epik_input>  (342) 
bzFbY0hdW2NIXVtjSF1jMVxbQ0hdPVtDSF1cQyg9QzJbQ0gzXSlPW0NASF0oW0NAXTIzNClPW0NAXShbQ0gzXSkoT080KVtDSDJdW0NIMl1bQ0BIXTVbQ0BIXTNbQ0gyXVtDSDJdW0NAQEhdNVtDSDNd

>  <s_epik_cmdline>  (342) 
J2VwaWtfcHl0aG9uJywgJy1waHQnLCAnMi4wJywgJy1waCcsICc3LjAnLCAnLXRuJywgJzgnLCAnLW1hJywgJzIwMCcsICctaW1hZScsICc8aW5maWxlLm1hZT4nLCAnLW9tYWUnLCAnPG91dGZpbGUubWFlPic=

>  <r_lp_tautomer_probability>  (342) 
1

>  <r_epik_Ionization_Penalty>  (342) 
0

>  <r_epik_Ionization_Penalty_Charging>  (342) 
0

>  <r_epik_Ionization_Penalty_Neutral>  (342) 
0

>  <r_epik_State_Penalty>  (342) 
-0

>  <r_epik_Charging_Adjusted_Penalty>  (342) 
0

>  <i_epik_Tot_Q>  (342) 
0

>  <i_epik_Tot_abs_Q>  (342) 
0

>  <s_epik_Chemistry_Notes>  (342) 
This compound contains an acetal/aminal-like group ( X-CH(R)-Y where X, Y are N, S, or O) that may be acid/base labile, releasing an aldehyde.

>  <s_lp_Force_Field>  (342) 
OPLS3e

>  <r_lp_Energy>  (342) 
35.4115

>  <b_lp_Chiralities_Consistent>  (342) 
1

>  <s_lp_Variant>  (342) 
117:0-1

>  <s_i_glide_gridfile>  (342) 
pfpi4k_grid

>  <i_i_glide_lignum>  (342) 
30

>  <i_i_glide_rotatable_bonds>  (342) 
2

>  <r_i_docking_score>  (342) 
-2.99621

>  <r_i_glide_ligand_efficiency>  (342) 
-0.115239

>  <r_i_glide_ligand_efficiency_sa>  (342) 
-0.341394

>  <r_i_glide_ligand_efficiency_ln>  (342) 
-0.703649

>  <r_i_glide_gscore>  (342) 
-2.99621

>  <r_i_glide_lipo>  (342) 
-0.625183

>  <r_i_glide_hbond>  (342) 
0

>  <r_i_glide_metal>  (342) 
-0

>  <r_i_glide_rewards>  (342) 
-0.965263

>  <r_i_glide_evdw>  (342) 
-28.6497

>  <r_i_glide_ecoul>  (342) 
-1.52019

>  <r_i_glide_erotb>  (342) 
0.29821

>  <r_i_glide_esite>  (342) 
-0.0434551

>  <r_i_glide_emodel>  (342) 
-33.076

>  <r_i_glide_energy>  (342) 
-30.1699

>  <r_i_glide_einternal>  (342) 
5.08399

>  <r_i_glide_intrahb_reward>  (342) 
-0

>  <i_i_glide_confnum>  (342) 
4

>  <i_i_glide_posenum>  (342) 
17

>  <r_i_glide_eff_state_penalty>  (342) 
0

>  <ligand_id>  (342) 
117

>  <original_smiles>  (342) 
CC1=C(C=Cc2ccco2)OC2OC3(C)CCC4C(C)CCC4C12OO3

>  <smiles>  (342) 
[H]C(C1=C(C([H])([H])[H])C23OOC(C([H])([H])[H])(OC2([H])O1)C([H])([H])C([H])([H])C1([H])C([H])(C([H])([H])[H])C([H])([H])C([H])([H])C31[H])=C([H])c1oc([H])c([H])c1[H]

$$$$
117:0:1
     RDKit          3D

 52 56  0  0  1  0  0  0  0  0999 V2000
    5.9326   -6.4320    1.6054 C   0  0  0  0  0  0  0  0  0  0  0  0
    4.7699   -5.5644    1.1521 C   0  0  0  0  0  0  0  0  0  0  0  0
    3.4570   -5.8476    1.1299 C   0  0  0  0  0  0  0  0  0  0  0  0
    2.7817   -7.0241    1.6447 C   0  0  0  0  0  0  0  0  0  0  0  0
    1.4442   -7.1311    1.6774 C   0  0  0  0  0  0  0  0  0  0  0  0
    0.6611   -8.2268    2.1408 C   0  0  0  0  0  0  0  0  0  0  0  0
   -0.6902   -8.4209    2.2748 C   0  0  0  0  0  0  0  0  0  0  0  0
   -0.8464   -9.7330    2.8038 C   0  0  0  0  0  0  0  0  0  0  0  0
    0.4116  -10.2381    2.9533 C   0  0  0  0  0  0  0  0  0  0  0  0
    1.3406   -9.3293    2.5586 O   0  0  0  0  0  0  0  0  0  0  0  0
    2.7626   -4.8518    0.4934 O   0  0  0  0  0  0  0  0  0  0  0  0
    3.7151   -4.1045   -0.1950 C   0  0  1  0  0  0  0  0  0  0  0  0
    3.4470   -2.8168   -0.5458 O   0  0  0  0  0  0  0  0  0  0  0  0
    4.5373   -2.2970   -1.3152 C   0  0  1  0  0  0  0  0  0  0  0  0
    4.0109   -2.1811   -2.7542 C   0  0  0  0  0  0  0  0  0  0  0  0
    4.8651   -0.9127   -0.7385 C   0  0  0  0  0  0  0  0  0  0  0  0
    5.4983   -0.9040    0.6619 C   0  0  0  0  0  0  0  0  0  0  0  0
    4.6788   -1.6802    1.7139 C   0  0  2  0  0  0  0  0  0  0  0  0
    4.8079   -1.1265    3.1445 C   0  0  1  0  0  0  0  0  0  0  0  0
    3.9274    0.1054    3.4090 C   0  0  0  0  0  0  0  0  0  0  0  0
    4.4690   -2.3058    4.0709 C   0  0  0  0  0  0  0  0  0  0  0  0
    4.4139   -3.5567    3.1883 C   0  0  0  0  0  0  0  0  0  0  0  0
    5.0859   -3.1595    1.8621 C   0  0  1  0  0  0  0  0  0  0  0  0
    4.9772   -4.1605    0.6485 C   0  0  1  0  0  0  0  0  0  0  0  0
    6.0946   -3.9579   -0.2026 O   0  0  0  0  0  0  0  0  0  0  0  0
    5.6985   -3.1595   -1.4643 O   0  0  0  0  0  0  0  0  0  0  0  0
    6.5662   -5.9036    2.3200 H   0  0  0  0  0  0  0  0  0  0  0  0
    6.5568   -6.6891    0.7469 H   0  0  0  0  0  0  0  0  0  0  0  0
    5.5986   -7.3665    2.0616 H   0  0  0  0  0  0  0  0  0  0  0  0
    3.3668   -7.8550    2.0147 H   0  0  0  0  0  0  0  0  0  0  0  0
    0.8635   -6.3003    1.3118 H   0  0  0  0  0  0  0  0  0  0  0  0
   -1.4725   -7.7225    2.0252 H   0  0  0  0  0  0  0  0  0  0  0  0
   -1.7607  -10.2476    3.0487 H   0  0  0  0  0  0  0  0  0  0  0  0
    0.8116  -11.1750    3.3096 H   0  0  0  0  0  0  0  0  0  0  0  0
    3.8470   -4.6504   -1.1264 H   0  0  0  0  0  0  0  0  0  0  0  0
    3.7953   -3.1732   -3.1522 H   0  0  0  0  0  0  0  0  0  0  0  0
    4.7496   -1.7261   -3.4137 H   0  0  0  0  0  0  0  0  0  0  0  0
    3.0916   -1.5987   -2.8143 H   0  0  0  0  0  0  0  0  0  0  0  0
    5.5077   -0.3708   -1.4280 H   0  0  0  0  0  0  0  0  0  0  0  0
    3.9434   -0.3336   -0.6901 H   0  0  0  0  0  0  0  0  0  0  0  0
    6.5240   -1.2731    0.6172 H   0  0  0  0  0  0  0  0  0  0  0  0
    5.5736    0.1405    0.9708 H   0  0  0  0  0  0  0  0  0  0  0  0
    3.6171   -1.6180    1.4734 H   0  0  0  0  0  0  0  0  0  0  0  0
    5.8497   -0.8564    3.3206 H   0  0  0  0  0  0  0  0  0  0  0  0
    2.8720   -0.1069    3.2312 H   0  0  0  0  0  0  0  0  0  0  0  0
    4.2060    0.9313    2.7583 H   0  0  0  0  0  0  0  0  0  0  0  0
    4.0309    0.4521    4.4374 H   0  0  0  0  0  0  0  0  0  0  0  0
    5.2309   -2.4079    4.8440 H   0  0  0  0  0  0  0  0  0  0  0  0
    3.5136   -2.1692    4.5776 H   0  0  0  0  0  0  0  0  0  0  0  0
    4.8884   -4.4143    3.6682 H   0  0  0  0  0  0  0  0  0  0  0  0
    3.3694   -3.8111    3.0077 H   0  0  0  0  0  0  0  0  0  0  0  0
    6.1523   -3.1495    2.1013 H   0  0  0  0  0  0  0  0  0  0  0  0
  1  2  1  0
  1 27  1  0
  1 28  1  0
  1 29  1  0
 24  2  1  1
  2  3  2  0
  3  4  1  0
  3 11  1  0
  4  5  2  3
  4 30  1  0
  5  6  1  0
  5 31  1  0
  6 10  1  0
  6  7  2  0
  7  8  1  0
  7 32  1  0
  8  9  2  0
  8 33  1  0
  9 10  1  0
  9 34  1  0
 11 12  1  0
 12 24  1  0
 12 13  1  0
 12 35  1  6
 13 14  1  0
 14 26  1  0
 14 15  1  6
 14 16  1  0
 15 36  1  0
 15 37  1  0
 15 38  1  0
 16 17  1  0
 16 39  1  0
 16 40  1  0
 17 18  1  0
 17 41  1  0
 17 42  1  0
 18 23  1  0
 18 19  1  0
 18 43  1  6
 19 20  1  0
 19 21  1  0
 19 44  1  1
 20 45  1  0
 20 46  1  0
 20 47  1  0
 21 22  1  0
 21 48  1  0
 21 49  1  0
 22 23  1  0
 22 50  1  0
 22 51  1  0
 23 24  1  0
 23 52  1  1
 24 25  1  0
 25 26  1  0
M  END
>  <i_m_ct_stereo_status>  (343) 
1

>  <s_m_source_file>  (343) 
/var/tmp/pbs.5076255.sched01/tmporjl5eer/117expd_qi0.sdf

>  <i_m_source_file_index>  (343) 
30

>  <i_lp_mmshare_version>  (343) 
48012

>  <i_f3d_flags>  (343) 
0

>  <s_epik_input>  (343) 
bzFbY0hdW2NIXVtjSF1jMVxbQ0hdPVtDSF1cQyg9QzJbQ0gzXSlPW0NASF0oW0NAXTIzNClPW0NAXShbQ0gzXSkoT080KVtDSDJdW0NIMl1bQ0BIXTVbQ0BIXTNbQ0gyXVtDSDJdW0NAQEhdNVtDSDNd

>  <s_epik_cmdline>  (343) 
J2VwaWtfcHl0aG9uJywgJy1waHQnLCAnMi4wJywgJy1waCcsICc3LjAnLCAnLXRuJywgJzgnLCAnLW1hJywgJzIwMCcsICctaW1hZScsICc8aW5maWxlLm1hZT4nLCAnLW9tYWUnLCAnPG91dGZpbGUubWFlPic=

>  <r_lp_tautomer_probability>  (343) 
1

>  <r_epik_Ionization_Penalty>  (343) 
0

>  <r_epik_Ionization_Penalty_Charging>  (343) 
0

>  <r_epik_Ionization_Penalty_Neutral>  (343) 
0

>  <r_epik_State_Penalty>  (343) 
-0

>  <r_epik_Charging_Adjusted_Penalty>  (343) 
0

>  <i_epik_Tot_Q>  (343) 
0

>  <i_epik_Tot_abs_Q>  (343) 
0

>  <s_epik_Chemistry_Notes>  (343) 
This compound contains an acetal/aminal-like group ( X-CH(R)-Y where X, Y are N, S, or O) that may be acid/base labile, releasing an aldehyde.

>  <s_lp_Force_Field>  (343) 
OPLS3e

>  <r_lp_Energy>  (343) 
35.4115

>  <b_lp_Chiralities_Consistent>  (343) 
1

>  <s_lp_Variant>  (343) 
117:0-1

>  <s_i_glide_gridfile>  (343) 
pfpi4k_grid

>  <i_i_glide_lignum>  (343) 
30

>  <i_i_glide_rotatable_bonds>  (343) 
2

>  <r_i_docking_score>  (343) 
-2.68324

>  <r_i_glide_ligand_efficiency>  (343) 
-0.103201

>  <r_i_glide_ligand_efficiency_sa>  (343) 
-0.305734

>  <r_i_glide_ligand_efficiency_ln>  (343) 
-0.63015

>  <r_i_glide_gscore>  (343) 
-2.68324

>  <r_i_glide_lipo>  (343) 
-0.657091

>  <r_i_glide_hbond>  (343) 
0

>  <r_i_glide_metal>  (343) 
-0

>  <r_i_glide_rewards>  (343) 
-0.965263

>  <r_i_glide_evdw>  (343) 
-28.2297

>  <r_i_glide_ecoul>  (343) 
0.597207

>  <r_i_glide_erotb>  (343) 
0.29821

>  <r_i_glide_esite>  (343) 
-0.0371931

>  <r_i_glide_emodel>  (343) 
-32.3941

>  <r_i_glide_energy>  (343) 
-27.6325

>  <r_i_glide_einternal>  (343) 
0.118667

>  <r_i_glide_intrahb_reward>  (343) 
-0

>  <i_i_glide_confnum>  (343) 
4

>  <i_i_glide_posenum>  (343) 
11

>  <r_i_glide_eff_state_penalty>  (343) 
0

>  <ligand_id>  (343) 
117

>  <original_smiles>  (343) 
CC1=C(C=Cc2ccco2)OC2OC3(C)CCC4C(C)CCC4C12OO3

>  <smiles>  (343) 
[H]C(C1=C(C([H])([H])[H])C23OOC(C([H])([H])[H])(OC2([H])O1)C([H])([H])C([H])([H])C1([H])C([H])(C([H])([H])[H])C([H])([H])C([H])([H])C31[H])=C([H])c1oc([H])c([H])c1[H]

$$$$
117:0:2
     RDKit          3D

 52 56  0  0  1  0  0  0  0  0999 V2000
    5.5760   -5.9624    2.5115 C   0  0  0  0  0  0  0  0  0  0  0  0
    4.5190   -5.2893    1.6509 C   0  0  0  0  0  0  0  0  0  0  0  0
    3.2512   -5.6651    1.4135 C   0  0  0  0  0  0  0  0  0  0  0  0
    2.5127   -6.7666    1.9970 C   0  0  0  0  0  0  0  0  0  0  0  0
    1.1907   -6.9307    1.8112 C   0  0  0  0  0  0  0  0  0  0  0  0
    0.3573   -7.9734    2.3028 C   0  0  0  0  0  0  0  0  0  0  0  0
   -1.0028   -8.1233    2.3932 C   0  0  0  0  0  0  0  0  0  0  0  0
   -1.2203   -9.3838    3.0122 C   0  0  0  0  0  0  0  0  0  0  0  0
    0.0155   -9.8967    3.2728 C   0  0  0  0  0  0  0  0  0  0  0  0
    0.9868   -9.0420    2.8603 O   0  0  0  0  0  0  0  0  0  0  0  0
    2.6868   -4.8604    0.4586 O   0  0  0  0  0  0  0  0  0  0  0  0
    3.7497   -4.2077   -0.1604 C   0  0  1  0  0  0  0  0  0  0  0  0
    3.5312   -3.0385   -0.8249 O   0  0  0  0  0  0  0  0  0  0  0  0
    4.7490   -2.5868   -1.4275 C   0  0  1  0  0  0  0  0  0  0  0  0
    4.5590   -2.7974   -2.9370 C   0  0  0  0  0  0  0  0  0  0  0  0
    4.8961   -1.0896   -1.0997 C   0  0  0  0  0  0  0  0  0  0  0  0
    5.1916   -0.7649    0.3759 C   0  0  0  0  0  0  0  0  0  0  0  0
    4.1810   -1.3855    1.3624 C   0  0  2  0  0  0  0  0  0  0  0  0
    3.9666   -0.5556    2.6412 C   0  0  1  0  0  0  0  0  0  0  0  0
    3.0145    0.6349    2.4437 C   0  0  0  0  0  0  0  0  0  0  0  0
    3.4610   -1.5533    3.6965 C   0  0  0  0  0  0  0  0  0  0  0  0
    3.6457   -2.9523    3.1014 C   0  0  0  0  0  0  0  0  0  0  0  0
    4.5900   -2.7719    1.9001 C   0  0  1  0  0  0  0  0  0  0  0  0
    4.7896   -3.9974    0.9261 C   0  0  1  0  0  0  0  0  0  0  0  0
    6.0605   -3.8781    0.3103 O   0  0  0  0  0  0  0  0  0  0  0  0
    5.9384   -3.3690   -1.1431 O   0  0  0  0  0  0  0  0  0  0  0  0
    6.0143   -5.2553    3.2189 H   0  0  0  0  0  0  0  0  0  0  0  0
    6.3812   -6.3413    1.8770 H   0  0  0  0  0  0  0  0  0  0  0  0
    5.1703   -6.8078    3.0711 H   0  0  0  0  0  0  0  0  0  0  0  0
    3.0357   -7.4946    2.6010 H   0  0  0  0  0  0  0  0  0  0  0  0
    0.6730   -6.2055    1.2075 H   0  0  0  0  0  0  0  0  0  0  0  0
   -1.7582   -7.4231    2.0796 H   0  0  0  0  0  0  0  0  0  0  0  0
   -2.1583   -9.8504    3.2716 H   0  0  0  0  0  0  0  0  0  0  0  0
    0.3689  -10.8063    3.7342 H   0  0  0  0  0  0  0  0  0  0  0  0
    4.1106   -4.9240   -0.9015 H   0  0  0  0  0  0  0  0  0  0  0  0
    4.4713   -3.8619   -3.1555 H   0  0  0  0  0  0  0  0  0  0  0  0
    5.4151   -2.4251   -3.4952 H   0  0  0  0  0  0  0  0  0  0  0  0
    3.6622   -2.3090   -3.3146 H   0  0  0  0  0  0  0  0  0  0  0  0
    5.6668   -0.6469   -1.7263 H   0  0  0  0  0  0  0  0  0  0  0  0
    3.9685   -0.5928   -1.3841 H   0  0  0  0  0  0  0  0  0  0  0  0
    6.2116   -1.0568    0.6301 H   0  0  0  0  0  0  0  0  0  0  0  0
    5.1620    0.3218    0.4810 H   0  0  0  0  0  0  0  0  0  0  0  0
    3.1996   -1.4503    0.8906 H   0  0  0  0  0  0  0  0  0  0  0  0
    4.9330   -0.1792    2.9807 H   0  0  0  0  0  0  0  0  0  0  0  0
    2.0334    0.3144    2.0895 H   0  0  0  0  0  0  0  0  0  0  0  0
    3.4141    1.3361    1.7123 H   0  0  0  0  0  0  0  0  0  0  0  0
    2.8712    1.1824    3.3756 H   0  0  0  0  0  0  0  0  0  0  0  0
    4.0309   -1.4443    4.6196 H   0  0  0  0  0  0  0  0  0  0  0  0
    2.4122   -1.3925    3.9450 H   0  0  0  0  0  0  0  0  0  0  0  0
    4.0255   -3.6610    3.8385 H   0  0  0  0  0  0  0  0  0  0  0  0
    2.6778   -3.3160    2.7564 H   0  0  0  0  0  0  0  0  0  0  0  0
    5.5743   -2.6338    2.3575 H   0  0  0  0  0  0  0  0  0  0  0  0
  1  2  1  0
  1 27  1  0
  1 28  1  0
  1 29  1  0
 24  2  1  1
  2  3  2  0
  3  4  1  0
  3 11  1  0
  4  5  2  3
  4 30  1  0
  5  6  1  0
  5 31  1  0
  6 10  1  0
  6  7  2  0
  7  8  1  0
  7 32  1  0
  8  9  2  0
  8 33  1  0
  9 10  1  0
  9 34  1  0
 11 12  1  0
 12 24  1  0
 12 13  1  0
 12 35  1  6
 13 14  1  0
 14 26  1  0
 14 15  1  6
 14 16  1  0
 15 36  1  0
 15 37  1  0
 15 38  1  0
 16 17  1  0
 16 39  1  0
 16 40  1  0
 17 18  1  0
 17 41  1  0
 17 42  1  0
 18 23  1  0
 18 19  1  0
 18 43  1  6
 19 20  1  0
 19 21  1  0
 19 44  1  1
 20 45  1  0
 20 46  1  0
 20 47  1  0
 21 22  1  0
 21 48  1  0
 21 49  1  0
 22 23  1  0
 22 50  1  0
 22 51  1  0
 23 24  1  0
 23 52  1  1
 24 25  1  0
 25 26  1  0
M  END
>  <i_m_ct_stereo_status>  (344) 
1

>  <s_m_source_file>  (344) 
/var/tmp/pbs.5076255.sched01/tmporjl5eer/117expd_qi0.sdf

>  <i_m_source_file_index>  (344) 
30

>  <i_lp_mmshare_version>  (344) 
48012

>  <i_f3d_flags>  (344) 
0

>  <s_epik_input>  (344) 
bzFbY0hdW2NIXVtjSF1jMVxbQ0hdPVtDSF1cQyg9QzJbQ0gzXSlPW0NASF0oW0NAXTIzNClPW0NAXShbQ0gzXSkoT080KVtDSDJdW0NIMl1bQ0BIXTVbQ0BIXTNbQ0gyXVtDSDJdW0NAQEhdNVtDSDNd

>  <s_epik_cmdline>  (344) 
J2VwaWtfcHl0aG9uJywgJy1waHQnLCAnMi4wJywgJy1waCcsICc3LjAnLCAnLXRuJywgJzgnLCAnLW1hJywgJzIwMCcsICctaW1hZScsICc8aW5maWxlLm1hZT4nLCAnLW9tYWUnLCAnPG91dGZpbGUubWFlPic=

>  <r_lp_tautomer_probability>  (344) 
1

>  <r_epik_Ionization_Penalty>  (344) 
0

>  <r_epik_Ionization_Penalty_Charging>  (344) 
0

>  <r_epik_Ionization_Penalty_Neutral>  (344) 
0

>  <r_epik_State_Penalty>  (344) 
-0

>  <r_epik_Charging_Adjusted_Penalty>  (344) 
0

>  <i_epik_Tot_Q>  (344) 
0

>  <i_epik_Tot_abs_Q>  (344) 
0

>  <s_epik_Chemistry_Notes>  (344) 
This compound contains an acetal/aminal-like group ( X-CH(R)-Y where X, Y are N, S, or O) that may be acid/base labile, releasing an aldehyde.

>  <s_lp_Force_Field>  (344) 
OPLS3e

>  <r_lp_Energy>  (344) 
35.4115

>  <b_lp_Chiralities_Consistent>  (344) 
1

>  <s_lp_Variant>  (344) 
117:0-1

>  <s_i_glide_gridfile>  (344) 
pfpi4k_grid

>  <i_i_glide_lignum>  (344) 
30

>  <i_i_glide_rotatable_bonds>  (344) 
2

>  <r_i_docking_score>  (344) 
-2.51544

>  <r_i_glide_ligand_efficiency>  (344) 
-0.0967477

>  <r_i_glide_ligand_efficiency_sa>  (344) 
-0.286615

>  <r_i_glide_ligand_efficiency_ln>  (344) 
-0.590743

>  <r_i_glide_gscore>  (344) 
-2.51544

>  <r_i_glide_lipo>  (344) 
-0.467071

>  <r_i_glide_hbond>  (344) 
0

>  <r_i_glide_metal>  (344) 
-0

>  <r_i_glide_rewards>  (344) 
-0.965263

>  <r_i_glide_evdw>  (344) 
-29.4913

>  <r_i_glide_ecoul>  (344) 
0.821516

>  <r_i_glide_erotb>  (344) 
0.29821

>  <r_i_glide_esite>  (344) 
-0.0299784

>  <r_i_glide_emodel>  (344) 
-32.8953

>  <r_i_glide_energy>  (344) 
-28.6698

>  <r_i_glide_einternal>  (344) 
0.528877

>  <r_i_glide_intrahb_reward>  (344) 
-0

>  <i_i_glide_confnum>  (344) 
4

>  <i_i_glide_posenum>  (344) 
24

>  <r_i_glide_eff_state_penalty>  (344) 
0

>  <ligand_id>  (344) 
117

>  <original_smiles>  (344) 
CC1=C(C=Cc2ccco2)OC2OC3(C)CCC4C(C)CCC4C12OO3

>  <smiles>  (344) 
[H]C(C1=C(C([H])([H])[H])C23OOC(C([H])([H])[H])(OC2([H])O1)C([H])([H])C([H])([H])C1([H])C([H])(C([H])([H])[H])C([H])([H])C([H])([H])C31[H])=C([H])c1oc([H])c([H])c1[H]

$$$$
117:1:0
     RDKit          3D

 52 56  0  0  1  0  0  0  0  0999 V2000
    8.6571   -4.5120   -0.1105 C   0  0  0  0  0  0  0  0  0  0  0  0
    7.1446   -4.5600   -0.1085 C   0  0  0  0  0  0  0  0  0  0  0  0
    6.3298   -5.5245    0.3627 C   0  0  0  0  0  0  0  0  0  0  0  0
    6.6441   -6.7096    1.1433 C   0  0  0  0  0  0  0  0  0  0  0  0
    5.7390   -7.6131    1.6319 C   0  0  0  0  0  0  0  0  0  0  0  0
    4.3052   -7.6956    1.6330 C   0  0  0  0  0  0  0  0  0  0  0  0
    3.4268   -8.7284    1.7681 C   0  0  0  0  0  0  0  0  0  0  0  0
    2.1070   -8.1948    1.5751 C   0  0  0  0  0  0  0  0  0  0  0  0
    2.2919   -6.8684    1.3489 C   0  0  0  0  0  0  0  0  0  0  0  0
    3.5986   -6.5512    1.4525 O   0  0  0  0  0  0  0  0  0  0  0  0
    5.0602   -5.2691   -0.0727 O   0  0  0  0  0  0  0  0  0  0  0  0
    5.1145   -4.3481   -1.0899 C   0  0  1  0  0  0  0  0  0  0  0  0
    4.0240   -3.6006   -1.3781 O   0  0  0  0  0  0  0  0  0  0  0  0
    4.3111   -2.8317   -2.5591 C   0  0  1  0  0  0  0  0  0  0  0  0
    3.4522   -3.4023   -3.6850 C   0  0  0  0  0  0  0  0  0  0  0  0
    3.8716   -1.4167   -2.2377 C   0  0  0  0  0  0  0  0  0  0  0  0
    4.7216   -0.7336   -1.1842 C   0  0  0  0  0  0  0  0  0  0  0  0
    4.8542   -1.4607    0.1524 C   0  0  2  0  0  0  0  0  0  0  0  0
    5.0114   -0.5236    1.3720 C   0  0  1  0  0  0  0  0  0  0  0  0
    3.6859    0.0556    1.8857 C   0  0  0  0  0  0  0  0  0  0  0  0
    5.7219   -1.3888    2.4283 C   0  0  0  0  0  0  0  0  0  0  0  0
    6.1448   -2.6694    1.7017 C   0  0  0  0  0  0  0  0  0  0  0  0
    6.1019   -2.3210    0.2157 C   0  0  1  0  0  0  0  0  0  0  0  0
    6.3099   -3.4923   -0.7862 C   0  0  1  0  0  0  0  0  0  0  0  0
    6.7876   -2.9450   -2.0114 O   0  0  0  0  0  0  0  0  0  0  0  0
    5.6717   -2.9703   -3.0810 O   0  0  0  0  0  0  0  0  0  0  0  0
    9.0642   -3.5600    0.2549 H   0  0  0  0  0  0  0  0  0  0  0  0
    8.9963   -4.6387   -1.1469 H   0  0  0  0  0  0  0  0  0  0  0  0
    9.0872   -5.3408    0.4623 H   0  0  0  0  0  0  0  0  0  0  0  0
    7.6802   -6.9278    1.3366 H   0  0  0  0  0  0  0  0  0  0  0  0
    6.1979   -8.4349    2.1258 H   0  0  0  0  0  0  0  0  0  0  0  0
    3.6877   -9.7570    1.9469 H   0  0  0  0  0  0  0  0  0  0  0  0
    1.1496   -8.6858    1.5695 H   0  0  0  0  0  0  0  0  0  0  0  0
    1.6631   -6.0258    1.0795 H   0  0  0  0  0  0  0  0  0  0  0  0
    5.2715   -4.9757   -1.9626 H   0  0  0  0  0  0  0  0  0  0  0  0
    3.8128   -4.3929   -3.9340 H   0  0  0  0  0  0  0  0  0  0  0  0
    3.5285   -2.7956   -4.5886 H   0  0  0  0  0  0  0  0  0  0  0  0
    2.3996   -3.4763   -3.4031 H   0  0  0  0  0  0  0  0  0  0  0  0
    3.8421   -0.8041   -3.1442 H   0  0  0  0  0  0  0  0  0  0  0  0
    2.8342   -1.4397   -1.8804 H   0  0  0  0  0  0  0  0  0  0  0  0
    5.6898   -0.4429   -1.6009 H   0  0  0  0  0  0  0  0  0  0  0  0
    4.2203    0.1502   -0.9119 H   0  0  0  0  0  0  0  0  0  0  0  0
    3.9552   -2.0447    0.3583 H   0  0  0  0  0  0  0  0  0  0  0  0
    5.6859    0.2816    1.0981 H   0  0  0  0  0  0  0  0  0  0  0  0
    2.9779   -0.7342    2.1421 H   0  0  0  0  0  0  0  0  0  0  0  0
    3.2177    0.6917    1.1325 H   0  0  0  0  0  0  0  0  0  0  0  0
    3.8419    0.6646    2.7769 H   0  0  0  0  0  0  0  0  0  0  0  0
    6.5741   -0.8386    2.8262 H   0  0  0  0  0  0  0  0  0  0  0  0
    5.0711   -1.6458    3.2621 H   0  0  0  0  0  0  0  0  0  0  0  0
    7.1269   -3.0379    1.9556 H   0  0  0  0  0  0  0  0  0  0  0  0
    5.4404   -3.4666    1.9419 H   0  0  0  0  0  0  0  0  0  0  0  0
    6.9563   -1.6525    0.0547 H   0  0  0  0  0  0  0  0  0  0  0  0
  1  2  1  0
  1 27  1  0
  1 28  1  0
  1 29  1  0
 24  2  1  1
  2  3  2  0
  3  4  1  0
  3 11  1  0
  4  5  2  3
  4 30  1  0
  5  6  1  0
  5 31  1  0
  6 10  1  0
  6  7  2  0
  7  8  1  0
  7 32  1  0
  8  9  2  0
  8 33  1  0
  9 10  1  0
  9 34  1  0
 11 12  1  0
 12 24  1  0
 12 13  1  0
 12 35  1  6
 13 14  1  0
 14 26  1  0
 14 15  1  6
 14 16  1  0
 15 36  1  0
 15 37  1  0
 15 38  1  0
 16 17  1  0
 16 39  1  0
 16 40  1  0
 17 18  1  0
 17 41  1  0
 17 42  1  0
 18 23  1  0
 18 19  1  0
 18 43  1  1
 19 20  1  0
 19 21  1  0
 19 44  1  6
 20 45  1  0
 20 46  1  0
 20 47  1  0
 21 22  1  0
 21 48  1  0
 21 49  1  0
 22 23  1  0
 22 50  1  0
 22 51  1  0
 23 24  1  0
 23 52  1  1
 24 25  1  0
 25 26  1  0
M  END
>  <i_m_ct_stereo_status>  (345) 
1

>  <s_m_source_file>  (345) 
/var/tmp/pbs.5076255.sched01/tmporjl5eer/117expd_qi0.sdf

>  <i_m_source_file_index>  (345) 
31

>  <i_lp_mmshare_version>  (345) 
48012

>  <i_f3d_flags>  (345) 
0

>  <s_epik_input>  (345) 
bzFbY0hdW2NIXVtjSF1jMVxbQ0hdPVtDSF1cQyg9QzJbQ0gzXSlPW0NASF0oW0NAXTIzNClPW0NAXShbQ0gzXSkoT080KVtDSDJdW0NIMl1bQ0BIXTVbQ0BIXTNbQ0gyXVtDSDJdW0NAQEhdNVtDSDNd

>  <s_epik_cmdline>  (345) 
J2VwaWtfcHl0aG9uJywgJy1waHQnLCAnMi4wJywgJy1waCcsICc3LjAnLCAnLXRuJywgJzgnLCAnLW1hJywgJzIwMCcsICctaW1hZScsICc8aW5maWxlLm1hZT4nLCAnLW9tYWUnLCAnPG91dGZpbGUubWFlPic=

>  <r_lp_tautomer_probability>  (345) 
1

>  <r_epik_Ionization_Penalty>  (345) 
0

>  <r_epik_Ionization_Penalty_Charging>  (345) 
0

>  <r_epik_Ionization_Penalty_Neutral>  (345) 
0

>  <r_epik_State_Penalty>  (345) 
-0

>  <r_epik_Charging_Adjusted_Penalty>  (345) 
0

>  <i_epik_Tot_Q>  (345) 
0

>  <i_epik_Tot_abs_Q>  (345) 
0

>  <s_epik_Chemistry_Notes>  (345) 
This compound contains an acetal/aminal-like group ( X-CH(R)-Y where X, Y are N, S, or O) that may be acid/base labile, releasing an aldehyde.

>  <s_lp_Force_Field>  (345) 
OPLS3e

>  <r_lp_Energy>  (345) 
37.9488

>  <b_lp_Chiralities_Consistent>  (345) 
1

>  <s_lp_Variant>  (345) 
117:0-2

>  <s_i_glide_gridfile>  (345) 
pfpi4k_grid

>  <i_i_glide_lignum>  (345) 
31

>  <i_i_glide_rotatable_bonds>  (345) 
2

>  <r_i_docking_score>  (345) 
-3.07531

>  <r_i_glide_ligand_efficiency>  (345) 
-0.118281

>  <r_i_glide_ligand_efficiency_sa>  (345) 
-0.350407

>  <r_i_glide_ligand_efficiency_ln>  (345) 
-0.722226

>  <r_i_glide_gscore>  (345) 
-3.07531

>  <r_i_glide_lipo>  (345) 
-1.07719

>  <r_i_glide_hbond>  (345) 
0

>  <r_i_glide_metal>  (345) 
-0

>  <r_i_glide_rewards>  (345) 
-1.00613

>  <r_i_glide_evdw>  (345) 
-25.8068

>  <r_i_glide_ecoul>  (345) 
0.0416784

>  <r_i_glide_erotb>  (345) 
0.29821

>  <r_i_glide_esite>  (345) 
-0.00610797

>  <r_i_glide_emodel>  (345) 
-29.6554

>  <r_i_glide_energy>  (345) 
-25.7651

>  <r_i_glide_einternal>  (345) 
0.62829

>  <r_i_glide_intrahb_reward>  (345) 
-0

>  <i_i_glide_confnum>  (345) 
4

>  <i_i_glide_posenum>  (345) 
22

>  <r_i_glide_eff_state_penalty>  (345) 
0

>  <ligand_id>  (345) 
117

>  <original_smiles>  (345) 
CC1=C(C=Cc2ccco2)OC2OC3(C)CCC4C(C)CCC4C12OO3

>  <smiles>  (345) 
[H]C(C1=C(C([H])([H])[H])C23OOC(C([H])([H])[H])(OC2([H])O1)C([H])([H])C([H])([H])C1([H])C([H])(C([H])([H])[H])C([H])([H])C([H])([H])C31[H])=C([H])c1oc([H])c([H])c1[H]

$$$$
117:1:1
     RDKit          3D

 52 56  0  0  1  0  0  0  0  0999 V2000
    8.0067   -5.4682    0.9565 C   0  0  0  0  0  0  0  0  0  0  0  0
    6.5365   -5.3055    0.6034 C   0  0  0  0  0  0  0  0  0  0  0  0
    5.5328   -6.1985    0.6845 C   0  0  0  0  0  0  0  0  0  0  0  0
    5.5558   -7.5544    1.2086 C   0  0  0  0  0  0  0  0  0  0  0  0
    4.4725   -8.2762    1.5724 C   0  0  0  0  0  0  0  0  0  0  0  0
    3.0794   -7.9417    1.6827 C   0  0  0  0  0  0  0  0  0  0  0  0
    1.9362   -8.7009    1.7159 C   0  0  0  0  0  0  0  0  0  0  0  0
    0.8380   -7.7916    1.7822 C   0  0  0  0  0  0  0  0  0  0  0  0
    1.3920   -6.5450    1.7948 C   0  0  0  0  0  0  0  0  0  0  0  0
    2.7474   -6.6248    1.7647 O   0  0  0  0  0  0  0  0  0  0  0  0
    4.4130   -5.6955    0.0782 O   0  0  0  0  0  0  0  0  0  0  0  0
    4.8111   -4.5907   -0.6526 C   0  0  1  0  0  0  0  0  0  0  0  0
    3.9047   -3.6210   -0.9507 O   0  0  0  0  0  0  0  0  0  0  0  0
    4.5239   -2.6307   -1.7817 C   0  0  1  0  0  0  0  0  0  0  0  0
    3.9204   -2.8319   -3.1839 C   0  0  0  0  0  0  0  0  0  0  0  0
    4.1314   -1.2558   -1.2071 C   0  0  0  0  0  0  0  0  0  0  0  0
    4.7567   -0.9159    0.1573 C   0  0  0  0  0  0  0  0  0  0  0  0
    4.5179   -1.9879    1.2418 C   0  0  2  0  0  0  0  0  0  0  0  0
    4.4374   -1.4223    2.6711 C   0  0  1  0  0  0  0  0  0  0  0  0
    3.0748   -0.7904    3.0034 C   0  0  0  0  0  0  0  0  0  0  0  0
    4.7906   -2.6013    3.5950 C   0  0  0  0  0  0  0  0  0  0  0  0
    5.3341   -3.7185    2.6960 C   0  0  0  0  0  0  0  0  0  0  0  0
    5.6313   -3.0546    1.3380 C   0  0  1  0  0  0  0  0  0  0  0  0
    5.9758   -3.9906    0.1130 C   0  0  1  0  0  0  0  0  0  0  0  0
    6.7738   -3.2565   -0.8002 O   0  0  0  0  0  0  0  0  0  0  0  0
    5.9504   -2.7814   -2.0179 O   0  0  0  0  0  0  0  0  0  0  0  0
    8.3364   -4.6842    1.6437 H   0  0  0  0  0  0  0  0  0  0  0  0
    8.6079   -5.3970    0.0469 H   0  0  0  0  0  0  0  0  0  0  0  0
    8.2115   -6.4405    1.4104 H   0  0  0  0  0  0  0  0  0  0  0  0
    6.5119   -8.0519    1.2762 H   0  0  0  0  0  0  0  0  0  0  0  0
    4.6755   -9.2943    1.8606 H   0  0  0  0  0  0  0  0  0  0  0  0
    1.8954   -9.7797    1.6829 H   0  0  0  0  0  0  0  0  0  0  0  0
   -0.2216   -8.0165    1.8144 H   0  0  0  0  0  0  0  0  0  0  0  0
    1.0125   -5.5372    1.8290 H   0  0  0  0  0  0  0  0  0  0  0  0
    5.1285   -5.0205   -1.6054 H   0  0  0  0  0  0  0  0  0  0  0  0
    4.2094   -3.8070   -3.5771 H   0  0  0  0  0  0  0  0  0  0  0  0
    4.2861   -2.0808   -3.8817 H   0  0  0  0  0  0  0  0  0  0  0  0
    2.8316   -2.7956   -3.1784 H   0  0  0  0  0  0  0  0  0  0  0  0
    4.3794   -0.4710   -1.9193 H   0  0  0  0  0  0  0  0  0  0  0  0
    3.0446   -1.2222   -1.1030 H   0  0  0  0  0  0  0  0  0  0  0  0
    5.8222   -0.7165    0.0414 H   0  0  0  0  0  0  0  0  0  0  0  0
    4.3145    0.0281    0.4833 H   0  0  0  0  0  0  0  0  0  0  0  0
    3.5595   -2.4785    1.0722 H   0  0  0  0  0  0  0  0  0  0  0  0
    5.2136   -0.6647    2.7912 H   0  0  0  0  0  0  0  0  0  0  0  0
    2.2615   -1.5071    2.8817 H   0  0  0  0  0  0  0  0  0  0  0  0
    2.8629    0.0591    2.3544 H   0  0  0  0  0  0  0  0  0  0  0  0
    3.0483   -0.4311    4.0321 H   0  0  0  0  0  0  0  0  0  0  0  0
    5.5325   -2.2914    4.3307 H   0  0  0  0  0  0  0  0  0  0  0  0
    3.9259   -2.9628    4.1508 H   0  0  0  0  0  0  0  0  0  0  0  0
    6.2071   -4.2105    3.1269 H   0  0  0  0  0  0  0  0  0  0  0  0
    4.5613   -4.4786    2.5805 H   0  0  0  0  0  0  0  0  0  0  0  0
    6.5575   -2.4996    1.5142 H   0  0  0  0  0  0  0  0  0  0  0  0
  1  2  1  0
  1 27  1  0
  1 28  1  0
  1 29  1  0
 24  2  1  1
  2  3  2  0
  3  4  1  0
  3 11  1  0
  4  5  2  3
  4 30  1  0
  5  6  1  0
  5 31  1  0
  6 10  1  0
  6  7  2  0
  7  8  1  0
  7 32  1  0
  8  9  2  0
  8 33  1  0
  9 10  1  0
  9 34  1  0
 11 12  1  0
 12 24  1  0
 12 13  1  0
 12 35  1  6
 13 14  1  0
 14 26  1  0
 14 15  1  6
 14 16  1  0
 15 36  1  0
 15 37  1  0
 15 38  1  0
 16 17  1  0
 16 39  1  0
 16 40  1  0
 17 18  1  0
 17 41  1  0
 17 42  1  0
 18 23  1  0
 18 19  1  0
 18 43  1  6
 19 20  1  0
 19 21  1  0
 19 44  1  6
 20 45  1  0
 20 46  1  0
 20 47  1  0
 21 22  1  0
 21 48  1  0
 21 49  1  0
 22 23  1  0
 22 50  1  0
 22 51  1  0
 23 24  1  0
 23 52  1  1
 24 25  1  0
 25 26  1  0
M  END
>  <i_m_ct_stereo_status>  (346) 
1

>  <s_m_source_file>  (346) 
/var/tmp/pbs.5076255.sched01/tmporjl5eer/117expd_qi0.sdf

>  <i_m_source_file_index>  (346) 
31

>  <i_lp_mmshare_version>  (346) 
48012

>  <i_f3d_flags>  (346) 
0

>  <s_epik_input>  (346) 
bzFbY0hdW2NIXVtjSF1jMVxbQ0hdPVtDSF1cQyg9QzJbQ0gzXSlPW0NASF0oW0NAXTIzNClPW0NAXShbQ0gzXSkoT080KVtDSDJdW0NIMl1bQ0BIXTVbQ0BIXTNbQ0gyXVtDSDJdW0NAQEhdNVtDSDNd

>  <s_epik_cmdline>  (346) 
J2VwaWtfcHl0aG9uJywgJy1waHQnLCAnMi4wJywgJy1waCcsICc3LjAnLCAnLXRuJywgJzgnLCAnLW1hJywgJzIwMCcsICctaW1hZScsICc8aW5maWxlLm1hZT4nLCAnLW9tYWUnLCAnPG91dGZpbGUubWFlPic=

>  <r_lp_tautomer_probability>  (346) 
1

>  <r_epik_Ionization_Penalty>  (346) 
0

>  <r_epik_Ionization_Penalty_Charging>  (346) 
0

>  <r_epik_Ionization_Penalty_Neutral>  (346) 
0

>  <r_epik_State_Penalty>  (346) 
-0

>  <r_epik_Charging_Adjusted_Penalty>  (346) 
0

>  <i_epik_Tot_Q>  (346) 
0

>  <i_epik_Tot_abs_Q>  (346) 
0

>  <s_epik_Chemistry_Notes>  (346) 
This compound contains an acetal/aminal-like group ( X-CH(R)-Y where X, Y are N, S, or O) that may be acid/base labile, releasing an aldehyde.

>  <s_lp_Force_Field>  (346) 
OPLS3e

>  <r_lp_Energy>  (346) 
37.9488

>  <b_lp_Chiralities_Consistent>  (346) 
1

>  <s_lp_Variant>  (346) 
117:0-2

>  <s_i_glide_gridfile>  (346) 
pfpi4k_grid

>  <i_i_glide_lignum>  (346) 
31

>  <i_i_glide_rotatable_bonds>  (346) 
2

>  <r_i_docking_score>  (346) 
-2.99216

>  <r_i_glide_ligand_efficiency>  (346) 
-0.115083

>  <r_i_glide_ligand_efficiency_sa>  (346) 
-0.340933

>  <r_i_glide_ligand_efficiency_ln>  (346) 
-0.702698

>  <r_i_glide_gscore>  (346) 
-2.99216

>  <r_i_glide_lipo>  (346) 
-0.800471

>  <r_i_glide_hbond>  (346) 
0

>  <r_i_glide_metal>  (346) 
-0

>  <r_i_glide_rewards>  (346) 
-0.965263

>  <r_i_glide_evdw>  (346) 
-30.4704

>  <r_i_glide_ecoul>  (346) 
0.0941262

>  <r_i_glide_erotb>  (346) 
0.29821

>  <r_i_glide_esite>  (346) 
-0.015231

>  <r_i_glide_emodel>  (346) 
-34.7659

>  <r_i_glide_energy>  (346) 
-30.3763

>  <r_i_glide_einternal>  (346) 
1.66219

>  <r_i_glide_intrahb_reward>  (346) 
-0

>  <i_i_glide_confnum>  (346) 
4

>  <i_i_glide_posenum>  (346) 
7

>  <r_i_glide_eff_state_penalty>  (346) 
0

>  <ligand_id>  (346) 
117

>  <original_smiles>  (346) 
CC1=C(C=Cc2ccco2)OC2OC3(C)CCC4C(C)CCC4C12OO3

>  <smiles>  (346) 
[H]C(C1=C(C([H])([H])[H])C23OOC(C([H])([H])[H])(OC2([H])O1)C([H])([H])C([H])([H])C1([H])C([H])(C([H])([H])[H])C([H])([H])C([H])([H])C31[H])=C([H])c1oc([H])c([H])c1[H]

$$$$
117:1:2
     RDKit          3D

 52 56  0  0  1  0  0  0  0  0999 V2000
    1.6891   -5.2061    6.7801 C   0  0  0  0  0  0  0  0  0  0  0  0
    1.5686   -5.5986    5.3186 C   0  0  0  0  0  0  0  0  0  0  0  0
    1.6910   -4.8285    4.2207 C   0  0  0  0  0  0  0  0  0  0  0  0
    2.0963   -3.4357    4.1037 C   0  0  0  0  0  0  0  0  0  0  0  0
    2.4535   -2.8036    2.9621 C   0  0  0  0  0  0  0  0  0  0  0  0
    2.6453   -3.2486    1.6031 C   0  0  0  0  0  0  0  0  0  0  0  0
    2.7597   -2.5957    0.4080 C   0  0  0  0  0  0  0  0  0  0  0  0
    2.8568   -3.6037   -0.6058 C   0  0  0  0  0  0  0  0  0  0  0  0
    2.7993   -4.7870    0.0537 C   0  0  0  0  0  0  0  0  0  0  0  0
    2.7360   -4.5856    1.3872 O   0  0  0  0  0  0  0  0  0  0  0  0
    1.2571   -5.5288    3.1318 O   0  0  0  0  0  0  0  0  0  0  0  0
    0.6176   -6.6587    3.5807 C   0  0  1  0  0  0  0  0  0  0  0  0
    0.5351   -7.7419    2.7625 O   0  0  0  0  0  0  0  0  0  0  0  0
   -0.2724   -8.7340    3.4071 C   0  0  1  0  0  0  0  0  0  0  0  0
   -1.5733   -8.7549    2.5937 C   0  0  0  0  0  0  0  0  0  0  0  0
    0.4763  -10.0767    3.2840 C   0  0  0  0  0  0  0  0  0  0  0  0
    1.7496  -10.1989    4.1301 C   0  0  0  0  0  0  0  0  0  0  0  0
    2.7612   -9.0616    3.8880 C   0  0  2  0  0  0  0  0  0  0  0  0
    4.2280   -9.4849    4.0822 C   0  0  1  0  0  0  0  0  0  0  0  0
    4.8095  -10.2529    2.8822 C   0  0  0  0  0  0  0  0  0  0  0  0
    4.9933   -8.1854    4.3868 C   0  0  0  0  0  0  0  0  0  0  0  0
    3.9378   -7.1048    4.6464 C   0  0  0  0  0  0  0  0  0  0  0  0
    2.6060   -7.8600    4.8439 C   0  0  1  0  0  0  0  0  0  0  0  0
    1.2698   -7.0196    4.8947 C   0  0  1  0  0  0  0  0  0  0  0  0
    0.3078   -7.7253    5.6667 O   0  0  0  0  0  0  0  0  0  0  0  0
   -0.7405   -8.4069    4.7505 O   0  0  0  0  0  0  0  0  0  0  0  0
    2.3791   -5.8667    7.3099 H   0  0  0  0  0  0  0  0  0  0  0  0
    0.7091   -5.2873    7.2606 H   0  0  0  0  0  0  0  0  0  0  0  0
    2.0279   -4.1741    6.8984 H   0  0  0  0  0  0  0  0  0  0  0  0
    2.0901   -2.8376    5.0026 H   0  0  0  0  0  0  0  0  0  0  0  0
    2.6592   -1.7591    3.0748 H   0  0  0  0  0  0  0  0  0  0  0  0
    2.7528   -1.5259    0.2621 H   0  0  0  0  0  0  0  0  0  0  0  0
    2.9463   -3.5007   -1.6796 H   0  0  0  0  0  0  0  0  0  0  0  0
    2.7974   -5.8286   -0.2480 H   0  0  0  0  0  0  0  0  0  0  0  0
   -0.3934   -6.2948    3.7308 H   0  0  0  0  0  0  0  0  0  0  0  0
   -2.0947   -7.8025    2.6849 H   0  0  0  0  0  0  0  0  0  0  0  0
   -2.2551   -9.5160    2.9719 H   0  0  0  0  0  0  0  0  0  0  0  0
   -1.4094   -8.9372    1.5311 H   0  0  0  0  0  0  0  0  0  0  0  0
   -0.1835  -10.8971    3.5568 H   0  0  0  0  0  0  0  0  0  0  0  0
    0.7326  -10.2507    2.2369 H   0  0  0  0  0  0  0  0  0  0  0  0
    1.4861  -10.2689    5.1871 H   0  0  0  0  0  0  0  0  0  0  0  0
    2.2139  -11.1557    3.8792 H   0  0  0  0  0  0  0  0  0  0  0  0
    2.6922   -8.7172    2.8558 H   0  0  0  0  0  0  0  0  0  0  0  0
    4.2925  -10.1190    4.9678 H   0  0  0  0  0  0  0  0  0  0  0  0
    4.7478   -9.6674    1.9641 H   0  0  0  0  0  0  0  0  0  0  0  0
    4.2690  -11.1834    2.7104 H   0  0  0  0  0  0  0  0  0  0  0  0
    5.8572  -10.5079    3.0448 H   0  0  0  0  0  0  0  0  0  0  0  0
    5.6329   -8.3222    5.2587 H   0  0  0  0  0  0  0  0  0  0  0  0
    5.6390   -7.8865    3.5607 H   0  0  0  0  0  0  0  0  0  0  0  0
    4.2025   -6.4737    5.4970 H   0  0  0  0  0  0  0  0  0  0  0  0
    3.8743   -6.4656    3.7667 H   0  0  0  0  0  0  0  0  0  0  0  0
    2.6951   -8.2701    5.8547 H   0  0  0  0  0  0  0  0  0  0  0  0
  1  2  1  0
  1 27  1  0
  1 28  1  0
  1 29  1  0
 24  2  1  1
  2  3  2  0
  3  4  1  0
  3 11  1  0
  4  5  2  3
  4 30  1  0
  5  6  1  0
  5 31  1  0
  6 10  1  0
  6  7  2  0
  7  8  1  0
  7 32  1  0
  8  9  2  0
  8 33  1  0
  9 10  1  0
  9 34  1  0
 11 12  1  0
 12 24  1  0
 12 13  1  0
 12 35  1  1
 13 14  1  0
 14 26  1  0
 14 15  1  6
 14 16  1  0
 15 36  1  0
 15 37  1  0
 15 38  1  0
 16 17  1  0
 16 39  1  0
 16 40  1  0
 17 18  1  0
 17 41  1  0
 17 42  1  0
 18 23  1  0
 18 19  1  0
 18 43  1  6
 19 20  1  0
 19 21  1  0
 19 44  1  1
 20 45  1  0
 20 46  1  0
 20 47  1  0
 21 22  1  0
 21 48  1  0
 21 49  1  0
 22 23  1  0
 22 50  1  0
 22 51  1  0
 23 24  1  0
 23 52  1  1
 24 25  1  0
 25 26  1  0
M  END
>  <i_m_ct_stereo_status>  (347) 
1

>  <s_m_source_file>  (347) 
/var/tmp/pbs.5076255.sched01/tmporjl5eer/117expd_qi0.sdf

>  <i_m_source_file_index>  (347) 
31

>  <i_lp_mmshare_version>  (347) 
48012

>  <i_f3d_flags>  (347) 
0

>  <s_epik_input>  (347) 
bzFbY0hdW2NIXVtjSF1jMVxbQ0hdPVtDSF1cQyg9QzJbQ0gzXSlPW0NASF0oW0NAXTIzNClPW0NAXShbQ0gzXSkoT080KVtDSDJdW0NIMl1bQ0BIXTVbQ0BIXTNbQ0gyXVtDSDJdW0NAQEhdNVtDSDNd

>  <s_epik_cmdline>  (347) 
J2VwaWtfcHl0aG9uJywgJy1waHQnLCAnMi4wJywgJy1waCcsICc3LjAnLCAnLXRuJywgJzgnLCAnLW1hJywgJzIwMCcsICctaW1hZScsICc8aW5maWxlLm1hZT4nLCAnLW9tYWUnLCAnPG91dGZpbGUubWFlPic=

>  <r_lp_tautomer_probability>  (347) 
1

>  <r_epik_Ionization_Penalty>  (347) 
0

>  <r_epik_Ionization_Penalty_Charging>  (347) 
0

>  <r_epik_Ionization_Penalty_Neutral>  (347) 
0

>  <r_epik_State_Penalty>  (347) 
-0

>  <r_epik_Charging_Adjusted_Penalty>  (347) 
0

>  <i_epik_Tot_Q>  (347) 
0

>  <i_epik_Tot_abs_Q>  (347) 
0

>  <s_epik_Chemistry_Notes>  (347) 
This compound contains an acetal/aminal-like group ( X-CH(R)-Y where X, Y are N, S, or O) that may be acid/base labile, releasing an aldehyde.

>  <s_lp_Force_Field>  (347) 
OPLS3e

>  <r_lp_Energy>  (347) 
37.9488

>  <b_lp_Chiralities_Consistent>  (347) 
1

>  <s_lp_Variant>  (347) 
117:0-2

>  <s_i_glide_gridfile>  (347) 
pfpi4k_grid

>  <i_i_glide_lignum>  (347) 
31

>  <i_i_glide_rotatable_bonds>  (347) 
2

>  <r_i_docking_score>  (347) 
-2.09605

>  <r_i_glide_ligand_efficiency>  (347) 
-0.0806174

>  <r_i_glide_ligand_efficiency_sa>  (347) 
-0.238829

>  <r_i_glide_ligand_efficiency_ln>  (347) 
-0.492251

>  <r_i_glide_gscore>  (347) 
-2.09605

>  <r_i_glide_lipo>  (347) 
-0.0907985

>  <r_i_glide_hbond>  (347) 
0

>  <r_i_glide_metal>  (347) 
-0

>  <r_i_glide_rewards>  (347) 
-0.965263

>  <r_i_glide_evdw>  (347) 
-22.5186

>  <r_i_glide_ecoul>  (347) 
-0.878368

>  <r_i_glide_erotb>  (347) 
0.29821

>  <r_i_glide_esite>  (347) 
-0.0805149

>  <r_i_glide_emodel>  (347) 
-26.3465

>  <r_i_glide_energy>  (347) 
-23.397

>  <r_i_glide_einternal>  (347) 
0.585036

>  <r_i_glide_intrahb_reward>  (347) 
-0

>  <i_i_glide_confnum>  (347) 
5

>  <i_i_glide_posenum>  (347) 
11

>  <r_i_glide_eff_state_penalty>  (347) 
0

>  <ligand_id>  (347) 
117

>  <original_smiles>  (347) 
CC1=C(C=Cc2ccco2)OC2OC3(C)CCC4C(C)CCC4C12OO3

>  <smiles>  (347) 
[H]C(C1=C(C([H])([H])[H])C23OOC(C([H])([H])[H])(OC2([H])O1)C([H])([H])C([H])([H])C1([H])C([H])(C([H])([H])[H])C([H])([H])C([H])([H])C31[H])=C([H])c1oc([H])c([H])c1[H]

$$$$
118:0:0
     RDKit          3D

 89 96  0  0  1  0  0  0  0  0999 V2000
    3.7174    0.3863    6.8585 C   0  0  0  0  0  0  0  0  0  0  0  0
    3.5489    0.7108    5.3506 C   0  0  2  0  0  0  0  0  0  0  0  0
    2.6908    1.9958    5.3291 C   0  0  0  0  0  0  0  0  0  0  0  0
    2.0517    2.2902    4.0130 C   0  0  0  0  0  0  0  0  0  0  0  0
    2.6535    3.1642    3.0671 O   0  0  0  0  0  0  0  0  0  0  0  0
    1.4054    3.5434    3.8182 O   0  0  0  0  0  0  0  0  0  0  0  0
    1.3446    1.1855    3.4815 O   0  0  0  0  0  0  0  0  0  0  0  0
    2.1759    0.0580    3.2454 C   0  0  1  0  0  0  0  0  0  0  0  0
    3.1430    0.2993    2.0911 C   0  0  0  0  0  0  0  0  0  0  0  0
    3.6385   -1.0552    1.6115 C   0  0  0  0  0  0  0  0  0  0  0  0
    4.3924   -1.8596    2.7018 C   0  0  2  0  0  0  0  0  0  0  0  0
    4.5150   -3.4019    2.4092 C   0  0  2  0  0  0  0  0  0  0  0  0
    3.9592   -3.8902    1.0413 C   0  0  0  0  0  0  0  0  0  0  0  0
    2.5609   -4.4546    1.3337 C   0  0  0  0  0  0  0  0  0  0  0  0
    2.8130   -5.1632    2.6553 C   0  0  2  0  0  0  0  0  0  0  0  0
    1.7133   -5.9805    3.4165 C   0  0  1  0  0  0  0  0  0  0  0  0
    0.6492   -5.0504    4.0587 C   0  0  0  0  0  0  0  0  0  0  0  0
    1.0025   -6.9376    2.4246 C   0  0  0  0  0  0  0  0  0  0  0  0
    0.2094   -8.0835    3.0969 C   0  0  1  0  0  0  0  0  0  0  0  0
   -0.4735   -8.8027    2.0944 O   0  0  0  0  0  0  0  0  0  0  0  0
    1.0158   -8.9434    4.1315 C   0  0  1  0  0  0  0  0  0  0  0  0
    1.9143  -10.1259    3.5372 C   0  0  0  0  0  0  0  0  0  0  0  0
    1.0091  -11.3583    3.2720 C   0  0  0  0  0  0  0  0  0  0  0  0
    2.6532   -9.7845    2.2197 C   0  0  0  0  0  0  0  0  0  0  0  0
    3.0187  -10.6076    4.5114 C   0  0  0  0  0  0  0  0  0  0  0  0
    3.4366  -11.7676    4.5132 O   0  0  0  0  0  0  0  0  0  0  0  0
    3.6658   -9.5880    5.4264 C   0  0  0  0  0  0  0  0  0  0  0  0
    2.5722   -8.8147    6.1493 C   0  0  0  0  0  0  0  0  0  0  0  0
    1.6811   -7.9803    5.1957 C   0  0  2  0  0  0  0  0  0  0  0  0
    0.6046   -7.3888    6.1476 C   0  0  0  0  0  0  0  0  0  0  0  0
    2.5085   -6.8583    4.4501 C   0  0  2  0  0  0  0  0  0  0  0  0
    3.4900   -6.0086    5.3176 C   0  0  0  0  0  0  0  0  0  0  0  0
    4.4536   -5.0931    4.5057 C   0  0  1  0  0  0  0  0  0  0  0  0
    5.4394   -5.8974    3.8793 O   0  0  0  0  0  0  0  0  0  0  0  0
    3.6944   -4.1885    3.4850 C   0  0  1  0  0  0  0  0  0  0  0  0
    2.9696   -3.0253    4.2170 C   0  0  0  0  0  0  0  0  0  0  0  0
    3.8274   -1.7420    4.1538 C   0  0  1  0  0  0  0  0  0  0  0  0
    5.0363   -1.8793    5.1088 C   0  0  0  0  0  0  0  0  0  0  0  0
    2.9169   -0.4684    4.5065 C   0  0  1  0  0  0  0  0  0  0  0  0
    2.7764    0.0342    7.2855 H   0  0  0  0  0  0  0  0  0  0  0  0
    4.0010    1.2817    7.4176 H   0  0  0  0  0  0  0  0  0  0  0  0
    4.4759   -0.3533    7.0831 H   0  0  0  0  0  0  0  0  0  0  0  0
    4.5129    0.9780    4.9200 H   0  0  0  0  0  0  0  0  0  0  0  0
    1.8926    1.9422    6.0676 H   0  0  0  0  0  0  0  0  0  0  0  0
    3.2912    2.8576    5.6145 H   0  0  0  0  0  0  0  0  0  0  0  0
    1.4572   -0.6961    2.9190 H   0  0  0  0  0  0  0  0  0  0  0  0
    2.6310    0.8054    1.2707 H   0  0  0  0  0  0  0  0  0  0  0  0
    3.9806    0.9336    2.3904 H   0  0  0  0  0  0  0  0  0  0  0  0
    2.7694   -1.5967    1.2353 H   0  0  0  0  0  0  0  0  0  0  0  0
    4.2991   -0.8977    0.7570 H   0  0  0  0  0  0  0  0  0  0  0  0
    5.3975   -1.4376    2.6954 H   0  0  0  0  0  0  0  0  0  0  0  0
    5.5663   -3.6751    2.4658 H   0  0  0  0  0  0  0  0  0  0  0  0
    3.9691   -3.1648    0.2289 H   0  0  0  0  0  0  0  0  0  0  0  0
    4.5891   -4.7071    0.6869 H   0  0  0  0  0  0  0  0  0  0  0  0
    1.8291   -3.6565    1.4457 H   0  0  0  0  0  0  0  0  0  0  0  0
    2.2279   -5.1328    0.5472 H   0  0  0  0  0  0  0  0  0  0  0  0
    3.4840   -5.9508    2.3097 H   0  0  0  0  0  0  0  0  0  0  0  0
   -0.3172   -5.5310    4.1906 H   0  0  0  0  0  0  0  0  0  0  0  0
    0.4367   -4.1950    3.4214 H   0  0  0  0  0  0  0  0  0  0  0  0
    0.9486   -4.6750    5.0359 H   0  0  0  0  0  0  0  0  0  0  0  0
    0.3146   -6.3638    1.8039 H   0  0  0  0  0  0  0  0  0  0  0  0
    1.7266   -7.3478    1.7265 H   0  0  0  0  0  0  0  0  0  0  0  0
   -0.6242   -7.6405    3.6356 H   0  0  0  0  0  0  0  0  0  0  0  0
    0.1447   -9.2247    1.5111 H   0  0  0  0  0  0  0  0  0  0  0  0
    0.2483   -9.4740    4.6988 H   0  0  0  0  0  0  0  0  0  0  0  0
    0.2574  -11.1683    2.5098 H   0  0  0  0  0  0  0  0  0  0  0  0
    0.4832  -11.6749    4.1771 H   0  0  0  0  0  0  0  0  0  0  0  0
    1.5754  -12.2210    2.9171 H   0  0  0  0  0  0  0  0  0  0  0  0
    1.9729   -9.6108    1.3889 H   0  0  0  0  0  0  0  0  0  0  0  0
    3.2911  -10.6146    1.9132 H   0  0  0  0  0  0  0  0  0  0  0  0
    3.3088   -8.9211    2.3136 H   0  0  0  0  0  0  0  0  0  0  0  0
    4.2938  -10.1097    6.1482 H   0  0  0  0  0  0  0  0  0  0  0  0
    4.3187   -8.9390    4.8451 H   0  0  0  0  0  0  0  0  0  0  0  0
    1.9552   -9.5486    6.6738 H   0  0  0  0  0  0  0  0  0  0  0  0
    2.9997   -8.2043    6.9443 H   0  0  0  0  0  0  0  0  0  0  0  0
    1.0006   -6.5652    6.7420 H   0  0  0  0  0  0  0  0  0  0  0  0
    0.2348   -8.1393    6.8490 H   0  0  0  0  0  0  0  0  0  0  0  0
   -0.2883   -7.0310    5.6458 H   0  0  0  0  0  0  0  0  0  0  0  0
    3.1887   -7.4410    3.8383 H   0  0  0  0  0  0  0  0  0  0  0  0
    2.9258   -5.4024    6.0246 H   0  0  0  0  0  0  0  0  0  0  0  0
    4.1168   -6.6577    5.9268 H   0  0  0  0  0  0  0  0  0  0  0  0
    4.9968   -4.4970    5.2299 H   0  0  0  0  0  0  0  0  0  0  0  0
    5.0215   -6.4748    3.2620 H   0  0  0  0  0  0  0  0  0  0  0  0
    2.0373   -2.8086    3.7071 H   0  0  0  0  0  0  0  0  0  0  0  0
    2.7223   -3.2665    5.2465 H   0  0  0  0  0  0  0  0  0  0  0  0
    4.7409   -2.2263    6.0968 H   0  0  0  0  0  0  0  0  0  0  0  0
    5.5955   -0.9506    5.1997 H   0  0  0  0  0  0  0  0  0  0  0  0
    5.7709   -2.5873    4.7314 H   0  0  0  0  0  0  0  0  0  0  0  0
    2.1166   -0.8261    5.1513 H   0  0  0  0  0  0  0  0  0  0  0  0
  1  2  1  0
  1 40  1  0
  1 41  1  0
  1 42  1  0
  2 39  1  0
  2  3  1  0
  2 43  1  6
  3  4  1  0
  3 44  1  0
  3 45  1  0
  4  6  1  0
  4  5  1  0
  4  7  1  0
  5  6  1  0
  7  8  1  0
  8 39  1  0
  8  9  1  0
  8 46  1  6
  9 10  1  0
  9 47  1  0
  9 48  1  0
 10 11  1  0
 10 49  1  0
 10 50  1  0
 11 37  1  0
 11 12  1  0
 11 51  1  1
 12 35  1  0
 12 13  1  0
 12 52  1  6
 13 14  1  0
 13 53  1  0
 13 54  1  0
 14 15  1  0
 14 55  1  0
 14 56  1  0
 15 35  1  0
 15 16  1  0
 15 57  1  6
 16 31  1  0
 16 17  1  1
 16 18  1  0
 17 58  1  0
 17 59  1  0
 17 60  1  0
 18 19  1  0
 18 61  1  0
 18 62  1  0
 19 20  1  0
 19 21  1  0
 19 63  1  1
 20 64  1  0
 21 29  1  0
 21 22  1  0
 21 65  1  1
 22 23  1  0
 22 24  1  0
 22 25  1  0
 23 66  1  0
 23 67  1  0
 23 68  1  0
 24 69  1  0
 24 70  1  0
 24 71  1  0
 25 26  2  0
 25 27  1  0
 27 28  1  0
 27 72  1  0
 27 73  1  0
 28 29  1  0
 28 74  1  0
 28 75  1  0
 29 30  1  1
 29 31  1  0
 30 76  1  0
 30 77  1  0
 30 78  1  0
 31 32  1  0
 31 79  1  6
 32 33  1  0
 32 80  1  0
 32 81  1  0
 33 34  1  0
 33 35  1  0
 33 82  1  1
 34 83  1  0
 35 36  1  1
 36 37  1  0
 36 84  1  0
 36 85  1  0
 37 38  1  1
 37 39  1  0
 38 86  1  0
 38 87  1  0
 38 88  1  0
 39 89  1  1
M  END
>  <i_m_ct_stereo_status>  (348) 
1

>  <s_m_source_file>  (348) 
/var/tmp/pbs.5076255.sched01/tmporjl5eer/117expd_qi0.sdf

>  <i_m_source_file_index>  (348) 
32

>  <i_lp_mmshare_version>  (348) 
48012

>  <i_f3d_flags>  (348) 
0

>  <s_epik_input>  (348) 
TzFPQzEyW0NIMl1bQ0BASF0oW0NIM10pW0NASF0zW0NAQEhdKE8yKVtDSDJdW0NIMl1bQ0BASF00W0NASF01W0NAQF02KFtDSDJdW0NAXTM0W0NIM10pW0NASF0oW0NIMl1bQ0gyXTUpW0NAXTcoW0NIM10pW0NAQEhdKFtDSDJdW0NASF02W09IXSlbQ0BAXTgoW0NIM10pW0NAQEhdKFtDQEBIXShbQ0gyXTcpW09IXSlDKFtDSDNdKShbQ0gzXSlDKD1PKVtDSDJdW0NIMl04

>  <s_epik_cmdline>  (348) 
J2VwaWtfcHl0aG9uJywgJy1waHQnLCAnMi4wJywgJy1waCcsICc3LjAnLCAnLXRuJywgJzgnLCAnLW1hJywgJzIwMCcsICctaW1hZScsICc8aW5maWxlLm1hZT4nLCAnLW9tYWUnLCAnPG91dGZpbGUubWFlPic=

>  <r_lp_tautomer_probability>  (348) 
1

>  <r_epik_Ionization_Penalty>  (348) 
3.59239e-06

>  <r_epik_Ionization_Penalty_Charging>  (348) 
0

>  <r_epik_Ionization_Penalty_Neutral>  (348) 
3.59239e-06

>  <r_epik_State_Penalty>  (348) 
-0

>  <r_epik_Charging_Adjusted_Penalty>  (348) 
0

>  <i_epik_Tot_Q>  (348) 
0

>  <i_epik_Tot_abs_Q>  (348) 
0

>  <s_lp_Force_Field>  (348) 
OPLS3e

>  <r_lp_Energy>  (348) 
101.496

>  <b_lp_Chiralities_Consistent>  (348) 
1

>  <s_lp_Variant>  (348) 
118:0-1

>  <s_i_glide_gridfile>  (348) 
pfpi4k_grid

>  <i_i_glide_lignum>  (348) 
32

>  <i_i_glide_rotatable_bonds>  (348) 
2

>  <r_i_docking_score>  (348) 
-2.42273

>  <r_i_glide_ligand_efficiency>  (348) 
-0.0621212

>  <r_i_glide_ligand_efficiency_sa>  (348) 
-0.210666

>  <r_i_glide_ligand_efficiency_ln>  (348) 
-0.519501

>  <r_i_glide_gscore>  (348) 
-2.42273

>  <r_i_glide_lipo>  (348) 
-0.398926

>  <r_i_glide_hbond>  (348) 
-0.202549

>  <r_i_glide_metal>  (348) 
-0

>  <r_i_glide_rewards>  (348) 
0

>  <r_i_glide_evdw>  (348) 
-31.5394

>  <r_i_glide_ecoul>  (348) 
-1.42973

>  <r_i_glide_erotb>  (348) 
0

>  <r_i_glide_esite>  (348) 
-0.0298191

>  <r_i_glide_emodel>  (348) 
-37.3331

>  <r_i_glide_energy>  (348) 
-32.9692

>  <r_i_glide_einternal>  (348) 
0.0219017

>  <r_i_glide_intrahb_reward>  (348) 
-0

>  <i_i_glide_confnum>  (348) 
2

>  <i_i_glide_posenum>  (348) 
9

>  <r_i_glide_eff_state_penalty>  (348) 
0

>  <ligand_id>  (348) 
118

>  <original_smiles>  (348) 
CC1CC2(OO2)OC2CCC3C4CCC5C6(C)CC(O)C7C(C)(C)C(=O)CCC7(C)C6CC(O)C45CC3(C)C12

>  <smiles>  (348) 
[H]OC1([H])C([H])([H])C2(C([H])([H])[H])C([H])(C([H])([H])C([H])(O[H])C34C([H])([H])C5(C([H])([H])[H])C([H])(C([H])([H])C([H])([H])C6([H])OC7(OO7)C([H])([H])C([H])(C([H])([H])[H])C65[H])C3([H])C([H])([H])C([H])([H])C24[H])C2(C([H])([H])[H])C([H])([H])C([H])([H])C(=O)C(C([H])([H])[H])(C([H])([H])[H])C12[H]

$$$$
118:0:1
     RDKit          3D

 89 96  0  0  1  0  0  0  0  0999 V2000
   -1.3914   -1.4692    5.6876 C   0  0  0  0  0  0  0  0  0  0  0  0
   -0.2136   -0.7625    4.9878 C   0  0  2  0  0  0  0  0  0  0  0  0
   -0.8898    0.2628    4.0604 C   0  0  0  0  0  0  0  0  0  0  0  0
   -0.0036    0.7985    2.9830 C   0  0  0  0  0  0  0  0  0  0  0  0
    0.7058    2.0182    3.1591 O   0  0  0  0  0  0  0  0  0  0  0  0
   -0.4474    1.8958    2.1982 O   0  0  0  0  0  0  0  0  0  0  0  0
    0.6458   -0.2333    2.2514 O   0  0  0  0  0  0  0  0  0  0  0  0
    1.4914   -1.0307    3.0541 C   0  0  1  0  0  0  0  0  0  0  0  0
    2.7173   -0.2613    3.5392 C   0  0  0  0  0  0  0  0  0  0  0  0
    3.7539   -1.2846    3.9724 C   0  0  0  0  0  0  0  0  0  0  0  0
    3.2763   -2.2131    5.1167 C   0  0  2  0  0  0  0  0  0  0  0  0
    4.1036   -3.5423    5.2762 C   0  0  2  0  0  0  0  0  0  0  0  0
    5.3248   -3.7073    4.3316 C   0  0  0  0  0  0  0  0  0  0  0  0
    4.8579   -4.6014    3.1680 C   0  0  0  0  0  0  0  0  0  0  0  0
    4.0012   -5.6005    3.9314 C   0  0  2  0  0  0  0  0  0  0  0  0
    3.2860   -6.8114    3.2412 C   0  0  1  0  0  0  0  0  0  0  0  0
    2.0950   -6.3447    2.3618 C   0  0  0  0  0  0  0  0  0  0  0  0
    4.2956   -7.5603    2.3328 C   0  0  0  0  0  0  0  0  0  0  0  0
    3.8650   -8.9924    1.9333 C   0  0  1  0  0  0  0  0  0  0  0  0
    4.8535   -9.5205    1.0774 O   0  0  0  0  0  0  0  0  0  0  0  0
    3.4733   -9.9322    3.1262 C   0  0  1  0  0  0  0  0  0  0  0  0
    4.6804  -10.6770    3.8776 C   0  0  0  0  0  0  0  0  0  0  0  0
    5.0959  -11.9341    3.0627 C   0  0  0  0  0  0  0  0  0  0  0  0
    5.9491   -9.8181    4.0914 C   0  0  0  0  0  0  0  0  0  0  0  0
    4.2959  -11.1873    5.2892 C   0  0  0  0  0  0  0  0  0  0  0  0
    4.8127  -12.1942    5.7862 O   0  0  0  0  0  0  0  0  0  0  0  0
    3.3098  -10.3743    6.1043 C   0  0  0  0  0  0  0  0  0  0  0  0
    2.0782  -10.0917    5.2544 C   0  0  0  0  0  0  0  0  0  0  0  0
    2.3804   -9.2124    4.0153 C   0  0  2  0  0  0  0  0  0  0  0  0
    1.0163   -9.1620    3.2704 C   0  0  0  0  0  0  0  0  0  0  0  0
    2.8964   -7.7746    4.4246 C   0  0  2  0  0  0  0  0  0  0  0  0
    2.1115   -7.0407    5.5571 C   0  0  0  0  0  0  0  0  0  0  0  0
    2.8016   -5.7530    6.0958 C   0  0  1  0  0  0  0  0  0  0  0  0
    3.9275   -6.1216    6.8792 O   0  0  0  0  0  0  0  0  0  0  0  0
    3.1805   -4.7609    4.9507 C   0  0  1  0  0  0  0  0  0  0  0  0
    1.9141   -4.0363    4.4151 C   0  0  0  0  0  0  0  0  0  0  0  0
    1.7766   -2.6449    5.0766 C   0  0  1  0  0  0  0  0  0  0  0  0
    1.3268   -2.8062    6.5500 C   0  0  0  0  0  0  0  0  0  0  0  0
    0.7604   -1.7462    4.2238 C   0  0  1  0  0  0  0  0  0  0  0  0
   -1.9018   -2.1170    4.9835 H   0  0  0  0  0  0  0  0  0  0  0  0
   -2.1227   -0.7417    6.0509 H   0  0  0  0  0  0  0  0  0  0  0  0
   -1.1134   -2.0749    6.5401 H   0  0  0  0  0  0  0  0  0  0  0  0
    0.3651   -0.1880    5.7106 H   0  0  0  0  0  0  0  0  0  0  0  0
   -1.7657   -0.1620    3.5701 H   0  0  0  0  0  0  0  0  0  0  0  0
   -1.2737    1.1091    4.6323 H   0  0  0  0  0  0  0  0  0  0  0  0
    1.8344   -1.7806    2.3407 H   0  0  0  0  0  0  0  0  0  0  0  0
    3.1277    0.3436    2.7290 H   0  0  0  0  0  0  0  0  0  0  0  0
    2.4801    0.4219    4.3589 H   0  0  0  0  0  0  0  0  0  0  0  0
    4.0161   -1.8591    3.0831 H   0  0  0  0  0  0  0  0  0  0  0  0
    4.6588   -0.7600    4.2806 H   0  0  0  0  0  0  0  0  0  0  0  0
    3.4290   -1.6126    6.0140 H   0  0  0  0  0  0  0  0  0  0  0  0
    4.4549   -3.6021    6.3045 H   0  0  0  0  0  0  0  0  0  0  0  0
    5.8029   -2.7862    4.0042 H   0  0  0  0  0  0  0  0  0  0  0  0
    6.1039   -4.2389    4.8818 H   0  0  0  0  0  0  0  0  0  0  0  0
    4.2784   -4.0466    2.4297 H   0  0  0  0  0  0  0  0  0  0  0  0
    5.7025   -5.0737    2.6634 H   0  0  0  0  0  0  0  0  0  0  0  0
    4.7775   -6.0984    4.5160 H   0  0  0  0  0  0  0  0  0  0  0  0
    1.8635   -7.0330    1.5533 H   0  0  0  0  0  0  0  0  0  0  0  0
    2.3160   -5.4069    1.8562 H   0  0  0  0  0  0  0  0  0  0  0  0
    1.1828   -6.2173    2.9416 H   0  0  0  0  0  0  0  0  0  0  0  0
    4.4584   -6.9796    1.4235 H   0  0  0  0  0  0  0  0  0  0  0  0
    5.2709   -7.5941    2.8136 H   0  0  0  0  0  0  0  0  0  0  0  0
    3.0029   -8.9140    1.2766 H   0  0  0  0  0  0  0  0  0  0  0  0
    4.6056  -10.4154    0.8511 H   0  0  0  0  0  0  0  0  0  0  0  0
    2.9302  -10.7530    2.6528 H   0  0  0  0  0  0  0  0  0  0  0  0
    5.5034  -11.6895    2.0850 H   0  0  0  0  0  0  0  0  0  0  0  0
    4.2425  -12.5967    2.8990 H   0  0  0  0  0  0  0  0  0  0  0  0
    5.8655  -12.5261    3.5599 H   0  0  0  0  0  0  0  0  0  0  0  0
    6.4244   -9.5474    3.1505 H   0  0  0  0  0  0  0  0  0  0  0  0
    6.7023  -10.3687    4.6581 H   0  0  0  0  0  0  0  0  0  0  0  0
    5.7512   -8.9066    4.6497 H   0  0  0  0  0  0  0  0  0  0  0  0
    3.0232  -10.9493    6.9843 H   0  0  0  0  0  0  0  0  0  0  0  0
    3.7925   -9.4647    6.4581 H   0  0  0  0  0  0  0  0  0  0  0  0
    1.6838  -11.0571    4.9291 H   0  0  0  0  0  0  0  0  0  0  0  0
    1.2815   -9.6721    5.8691 H   0  0  0  0  0  0  0  0  0  0  0  0
    0.3153   -8.4905    3.7666 H   0  0  0  0  0  0  0  0  0  0  0  0
    0.5409  -10.1447    3.2376 H   0  0  0  0  0  0  0  0  0  0  0  0
    1.0819   -8.8601    2.2304 H   0  0  0  0  0  0  0  0  0  0  0  0
    3.8414   -8.0002    4.9088 H   0  0  0  0  0  0  0  0  0  0  0  0
    1.1070   -6.8014    5.2136 H   0  0  0  0  0  0  0  0  0  0  0  0
    1.9754   -7.6998    6.4131 H   0  0  0  0  0  0  0  0  0  0  0  0
    2.1104   -5.2981    6.7968 H   0  0  0  0  0  0  0  0  0  0  0  0
    4.5446   -6.5768    6.3342 H   0  0  0  0  0  0  0  0  0  0  0  0
    2.0255   -3.8729    3.3479 H   0  0  0  0  0  0  0  0  0  0  0  0
    1.0058   -4.6173    4.5516 H   0  0  0  0  0  0  0  0  0  0  0  0
    0.4812   -3.4845    6.6430 H   0  0  0  0  0  0  0  0  0  0  0  0
    1.0855   -1.8517    7.0125 H   0  0  0  0  0  0  0  0  0  0  0  0
    2.1229   -3.2036    7.1762 H   0  0  0  0  0  0  0  0  0  0  0  0
    0.0781   -2.4309    3.7212 H   0  0  0  0  0  0  0  0  0  0  0  0
  1  2  1  0
  1 40  1  0
  1 41  1  0
  1 42  1  0
  2 39  1  0
  2  3  1  0
  2 43  1  1
  3  4  1  0
  3 44  1  0
  3 45  1  0
  4  6  1  0
  4  5  1  0
  4  7  1  0
  5  6  1  0
  7  8  1  0
  8 39  1  0
  8  9  1  0
  8 46  1  6
  9 10  1  0
  9 47  1  0
  9 48  1  0
 10 11  1  0
 10 49  1  0
 10 50  1  0
 11 37  1  0
 11 12  1  0
 11 51  1  1
 12 35  1  0
 12 13  1  0
 12 52  1  1
 13 14  1  0
 13 53  1  0
 13 54  1  0
 14 15  1  0
 14 55  1  0
 14 56  1  0
 15 35  1  0
 15 16  1  0
 15 57  1  1
 16 31  1  0
 16 17  1  6
 16 18  1  0
 17 58  1  0
 17 59  1  0
 17 60  1  0
 18 19  1  0
 18 61  1  0
 18 62  1  0
 19 20  1  0
 19 21  1  0
 19 63  1  6
 20 64  1  0
 21 29  1  0
 21 22  1  0
 21 65  1  6
 22 23  1  0
 22 24  1  0
 22 25  1  0
 23 66  1  0
 23 67  1  0
 23 68  1  0
 24 69  1  0
 24 70  1  0
 24 71  1  0
 25 26  2  0
 25 27  1  0
 27 28  1  0
 27 72  1  0
 27 73  1  0
 28 29  1  0
 28 74  1  0
 28 75  1  0
 29 30  1  6
 29 31  1  0
 30 76  1  0
 30 77  1  0
 30 78  1  0
 31 32  1  0
 31 79  1  1
 32 33  1  0
 32 80  1  0
 32 81  1  0
 33 34  1  0
 33 35  1  0
 33 82  1  1
 34 83  1  0
 35 36  1  6
 36 37  1  0
 36 84  1  0
 36 85  1  0
 37 38  1  1
 37 39  1  0
 38 86  1  0
 38 87  1  0
 38 88  1  0
 39 89  1  6
M  END
>  <i_m_ct_stereo_status>  (349) 
1

>  <s_m_source_file>  (349) 
/var/tmp/pbs.5076255.sched01/tmporjl5eer/117expd_qi0.sdf

>  <i_m_source_file_index>  (349) 
32

>  <i_lp_mmshare_version>  (349) 
48012

>  <i_f3d_flags>  (349) 
0

>  <s_epik_input>  (349) 
TzFPQzEyW0NIMl1bQ0BASF0oW0NIM10pW0NASF0zW0NAQEhdKE8yKVtDSDJdW0NIMl1bQ0BASF00W0NASF01W0NAQF02KFtDSDJdW0NAXTM0W0NIM10pW0NASF0oW0NIMl1bQ0gyXTUpW0NAXTcoW0NIM10pW0NAQEhdKFtDSDJdW0NASF02W09IXSlbQ0BAXTgoW0NIM10pW0NAQEhdKFtDQEBIXShbQ0gyXTcpW09IXSlDKFtDSDNdKShbQ0gzXSlDKD1PKVtDSDJdW0NIMl04

>  <s_epik_cmdline>  (349) 
J2VwaWtfcHl0aG9uJywgJy1waHQnLCAnMi4wJywgJy1waCcsICc3LjAnLCAnLXRuJywgJzgnLCAnLW1hJywgJzIwMCcsICctaW1hZScsICc8aW5maWxlLm1hZT4nLCAnLW9tYWUnLCAnPG91dGZpbGUubWFlPic=

>  <r_lp_tautomer_probability>  (349) 
1

>  <r_epik_Ionization_Penalty>  (349) 
3.59239e-06

>  <r_epik_Ionization_Penalty_Charging>  (349) 
0

>  <r_epik_Ionization_Penalty_Neutral>  (349) 
3.59239e-06

>  <r_epik_State_Penalty>  (349) 
-0

>  <r_epik_Charging_Adjusted_Penalty>  (349) 
0

>  <i_epik_Tot_Q>  (349) 
0

>  <i_epik_Tot_abs_Q>  (349) 
0

>  <s_lp_Force_Field>  (349) 
OPLS3e

>  <r_lp_Energy>  (349) 
101.496

>  <b_lp_Chiralities_Consistent>  (349) 
1

>  <s_lp_Variant>  (349) 
118:0-1

>  <s_i_glide_gridfile>  (349) 
pfpi4k_grid

>  <i_i_glide_lignum>  (349) 
32

>  <i_i_glide_rotatable_bonds>  (349) 
2

>  <r_i_docking_score>  (349) 
-2.13646

>  <r_i_glide_ligand_efficiency>  (349) 
-0.0547811

>  <r_i_glide_ligand_efficiency_sa>  (349) 
-0.185774

>  <r_i_glide_ligand_efficiency_ln>  (349) 
-0.458118

>  <r_i_glide_gscore>  (349) 
-2.13646

>  <r_i_glide_lipo>  (349) 
-0.0373071

>  <r_i_glide_hbond>  (349) 
-0.16

>  <r_i_glide_metal>  (349) 
-0

>  <r_i_glide_rewards>  (349) 
0

>  <r_i_glide_evdw>  (349) 
-29.1993

>  <r_i_glide_ecoul>  (349) 
-2.77892

>  <r_i_glide_erotb>  (349) 
0

>  <r_i_glide_esite>  (349) 
-0.0623551

>  <r_i_glide_emodel>  (349) 
-35.6026

>  <r_i_glide_energy>  (349) 
-31.9782

>  <r_i_glide_einternal>  (349) 
0.399282

>  <r_i_glide_intrahb_reward>  (349) 
-0

>  <i_i_glide_confnum>  (349) 
1

>  <i_i_glide_posenum>  (349) 
10

>  <r_i_glide_eff_state_penalty>  (349) 
0

>  <ligand_id>  (349) 
118

>  <original_smiles>  (349) 
CC1CC2(OO2)OC2CCC3C4CCC5C6(C)CC(O)C7C(C)(C)C(=O)CCC7(C)C6CC(O)C45CC3(C)C12

>  <smiles>  (349) 
[H]OC1([H])C([H])([H])C2(C([H])([H])[H])C([H])(C([H])([H])C([H])(O[H])C34C([H])([H])C5(C([H])([H])[H])C([H])(C([H])([H])C([H])([H])C6([H])OC7(OO7)C([H])([H])C([H])(C([H])([H])[H])C65[H])C3([H])C([H])([H])C([H])([H])C24[H])C2(C([H])([H])[H])C([H])([H])C([H])([H])C(=O)C(C([H])([H])[H])(C([H])([H])[H])C12[H]

$$$$
118:0:2
     RDKit          3D

 89 96  0  0  1  0  0  0  0  0999 V2000
    3.7101    0.5488    6.8459 C   0  0  0  0  0  0  0  0  0  0  0  0
    3.5350    0.8095    5.3258 C   0  0  2  0  0  0  0  0  0  0  0  0
    2.6726    2.0896    5.2554 C   0  0  0  0  0  0  0  0  0  0  0  0
    2.0320    2.3251    3.9253 C   0  0  0  0  0  0  0  0  0  0  0  0
    2.6351    3.1607    2.9467 O   0  0  0  0  0  0  0  0  0  0  0  0
    1.3874    3.5700    3.6766 O   0  0  0  0  0  0  0  0  0  0  0  0
    1.3289    1.1999    3.4404 O   0  0  0  0  0  0  0  0  0  0  0  0
    2.1608    0.0658    3.2534 C   0  0  1  0  0  0  0  0  0  0  0  0
    3.1197    0.2630    2.0848 C   0  0  0  0  0  0  0  0  0  0  0  0
    3.6230   -1.1077    1.6637 C   0  0  0  0  0  0  0  0  0  0  0  0
    4.3825   -1.8646    2.7830 C   0  0  2  0  0  0  0  0  0  0  0  0
    4.5078   -3.4168    2.5540 C   0  0  2  0  0  0  0  0  0  0  0  0
    3.9464   -3.9668    1.2117 C   0  0  0  0  0  0  0  0  0  0  0  0
    2.5498   -4.5242    1.5336 C   0  0  0  0  0  0  0  0  0  0  0  0
    2.8140   -5.1754    2.8827 C   0  0  2  0  0  0  0  0  0  0  0  0
    1.7208   -5.9659    3.6800 C   0  0  1  0  0  0  0  0  0  0  0  0
    0.6511   -5.0137    4.2817 C   0  0  0  0  0  0  0  0  0  0  0  0
    1.0123   -6.9716    2.7338 C   0  0  0  0  0  0  0  0  0  0  0  0
    0.2279   -8.0963    3.4539 C   0  0  1  0  0  0  0  0  0  0  0  0
   -0.4337   -8.8790    2.4832 O   0  0  0  0  0  0  0  0  0  0  0  0
    1.0450   -8.9018    4.5226 C   0  0  1  0  0  0  0  0  0  0  0  0
    1.9447  -10.1063    3.9704 C   0  0  0  0  0  0  0  0  0  0  0  0
    1.0400  -11.3527    3.7527 C   0  0  0  0  0  0  0  0  0  0  0  0
    2.6810   -9.8186    2.6379 C   0  0  0  0  0  0  0  0  0  0  0  0
    3.0555  -10.5394    4.9611 C   0  0  0  0  0  0  0  0  0  0  0  0
    3.4856  -11.6927    5.0034 O   0  0  0  0  0  0  0  0  0  0  0  0
    3.7001   -9.4777    5.8328 C   0  0  0  0  0  0  0  0  0  0  0  0
    2.6069   -8.6793    6.5278 C   0  0  0  0  0  0  0  0  0  0  0  0
    1.7085   -7.8896    5.5431 C   0  0  2  0  0  0  0  0  0  0  0  0
    0.6309   -7.2636    6.4727 C   0  0  0  0  0  0  0  0  0  0  0  0
    2.5264   -6.7942    4.7484 C   0  0  2  0  0  0  0  0  0  0  0  0
    3.5076   -5.9043    5.5754 C   0  0  0  0  0  0  0  0  0  0  0  0
    4.4625   -5.0188    4.7209 C   0  0  1  0  0  0  0  0  0  0  0  0
    5.4342   -5.8509    4.1119 O   0  0  0  0  0  0  0  0  0  0  0  0
    3.6948   -4.1615    3.6667 C   0  0  1  0  0  0  0  0  0  0  0  0
    2.9695   -2.9733    4.3527 C   0  0  0  0  0  0  0  0  0  0  0  0
    3.8211   -1.6883    4.2321 C   0  0  1  0  0  0  0  0  0  0  0  0
    5.0365   -1.7811    5.1861 C   0  0  0  0  0  0  0  0  0  0  0  0
    2.9067   -0.4066    4.5341 C   0  0  1  0  0  0  0  0  0  0  0  0
    2.7730    0.2109    7.2923 H   0  0  0  0  0  0  0  0  0  0  0  0
    3.9916    1.4680    7.3649 H   0  0  0  0  0  0  0  0  0  0  0  0
    4.4731   -0.1767    7.0983 H   0  0  0  0  0  0  0  0  0  0  0  0
    4.4968    1.0603    4.8804 H   0  0  0  0  0  0  0  0  0  0  0  0
    1.8728    2.0632    5.9944 H   0  0  0  0  0  0  0  0  0  0  0  0
    3.2706    2.9638    5.5024 H   0  0  0  0  0  0  0  0  0  0  0  0
    1.4465   -0.7043    2.9618 H   0  0  0  0  0  0  0  0  0  0  0  0
    2.5964    0.7254    1.2452 H   0  0  0  0  0  0  0  0  0  0  0  0
    3.9464    0.9259    2.3485 H   0  0  0  0  0  0  0  0  0  0  0  0
    2.7562   -1.6677    1.3152 H   0  0  0  0  0  0  0  0  0  0  0  0
    4.2787   -0.9873    0.7996 H   0  0  0  0  0  0  0  0  0  0  0  0
    5.3867   -1.4406    2.7557 H   0  0  0  0  0  0  0  0  0  0  0  0
    5.5616   -3.6788    2.6117 H   0  0  0  0  0  0  0  0  0  0  0  0
    3.9534   -3.2781    0.3688 H   0  0  0  0  0  0  0  0  0  0  0  0
    4.5795   -4.7963    0.8901 H   0  0  0  0  0  0  0  0  0  0  0  0
    1.8127   -3.7325    1.6142 H   0  0  0  0  0  0  0  0  0  0  0  0
    2.2217   -5.2388    0.7781 H   0  0  0  0  0  0  0  0  0  0  0  0
    3.4904   -5.9739    2.5708 H   0  0  0  0  0  0  0  0  0  0  0  0
   -0.3114   -5.4940    4.4419 H   0  0  0  0  0  0  0  0  0  0  0  0
    0.4263   -4.1873    3.6116 H   0  0  0  0  0  0  0  0  0  0  0  0
    0.9544   -4.5965    5.2405 H   0  0  0  0  0  0  0  0  0  0  0  0
    0.3203   -6.4280    2.0902 H   0  0  0  0  0  0  0  0  0  0  0  0
    1.7388   -7.4063    2.0524 H   0  0  0  0  0  0  0  0  0  0  0  0
   -0.6113   -7.6371    3.9720 H   0  0  0  0  0  0  0  0  0  0  0  0
    0.2078   -9.3359    1.9520 H   0  0  0  0  0  0  0  0  0  0  0  0
    0.2836   -9.4118    5.1161 H   0  0  0  0  0  0  0  0  0  0  0  0
    0.2811  -11.2036    2.9885 H   0  0  0  0  0  0  0  0  0  0  0  0
    0.5220  -11.6300    4.6734 H   0  0  0  0  0  0  0  0  0  0  0  0
    1.6100  -12.2290    3.4396 H   0  0  0  0  0  0  0  0  0  0  0  0
    1.9977   -9.6780    1.8033 H   0  0  0  0  0  0  0  0  0  0  0  0
    3.3224  -10.6564    2.3559 H   0  0  0  0  0  0  0  0  0  0  0  0
    3.3316   -8.9480    2.6979 H   0  0  0  0  0  0  0  0  0  0  0  0
    4.3347   -9.9636    6.5728 H   0  0  0  0  0  0  0  0  0  0  0  0
    4.3471   -8.8490    5.2235 H   0  0  0  0  0  0  0  0  0  0  0  0
    1.9950   -9.3924    7.0847 H   0  0  0  0  0  0  0  0  0  0  0  0
    3.0350   -8.0341    7.2943 H   0  0  0  0  0  0  0  0  0  0  0  0
    1.0253   -6.4141    7.0301 H   0  0  0  0  0  0  0  0  0  0  0  0
    0.2668   -7.9841    7.2068 H   0  0  0  0  0  0  0  0  0  0  0  0
   -0.2626   -6.9299    5.9570 H   0  0  0  0  0  0  0  0  0  0  0  0
    3.2110   -7.3964    4.1592 H   0  0  0  0  0  0  0  0  0  0  0  0
    2.9451   -5.2735    6.2605 H   0  0  0  0  0  0  0  0  0  0  0  0
    4.1425   -6.5263    6.2045 H   0  0  0  0  0  0  0  0  0  0  0  0
    5.0129   -4.3947    5.4169 H   0  0  0  0  0  0  0  0  0  0  0  0
    6.0547   -5.3061    3.6547 H   0  0  0  0  0  0  0  0  0  0  0  0
    2.0336   -2.7846    3.8374 H   0  0  0  0  0  0  0  0  0  0  0  0
    2.7277   -3.1735    5.3931 H   0  0  0  0  0  0  0  0  0  0  0  0
    4.7462   -2.0863    6.1892 H   0  0  0  0  0  0  0  0  0  0  0  0
    5.5918   -0.8469    5.2365 H   0  0  0  0  0  0  0  0  0  0  0  0
    5.7721   -2.5004    4.8375 H   0  0  0  0  0  0  0  0  0  0  0  0
    2.1092   -0.7429    5.1948 H   0  0  0  0  0  0  0  0  0  0  0  0
  1  2  1  0
  1 40  1  0
  1 41  1  0
  1 42  1  0
  2 39  1  0
  2  3  1  0
  2 43  1  6
  3  4  1  0
  3 44  1  0
  3 45  1  0
  4  6  1  0
  4  5  1  0
  4  7  1  0
  5  6  1  0
  7  8  1  0
  8 39  1  0
  8  9  1  0
  8 46  1  6
  9 10  1  0
  9 47  1  0
  9 48  1  0
 10 11  1  0
 10 49  1  0
 10 50  1  0
 11 37  1  0
 11 12  1  0
 11 51  1  1
 12 35  1  0
 12 13  1  0
 12 52  1  1
 13 14  1  0
 13 53  1  0
 13 54  1  0
 14 15  1  0
 14 55  1  0
 14 56  1  0
 15 35  1  0
 15 16  1  0
 15 57  1  6
 16 31  1  0
 16 17  1  1
 16 18  1  0
 17 58  1  0
 17 59  1  0
 17 60  1  0
 18 19  1  0
 18 61  1  0
 18 62  1  0
 19 20  1  0
 19 21  1  0
 19 63  1  1
 20 64  1  0
 21 29  1  0
 21 22  1  0
 21 65  1  1
 22 23  1  0
 22 24  1  0
 22 25  1  0
 23 66  1  0
 23 67  1  0
 23 68  1  0
 24 69  1  0
 24 70  1  0
 24 71  1  0
 25 26  2  0
 25 27  1  0
 27 28  1  0
 27 72  1  0
 27 73  1  0
 28 29  1  0
 28 74  1  0
 28 75  1  0
 29 30  1  1
 29 31  1  0
 30 76  1  0
 30 77  1  0
 30 78  1  0
 31 32  1  0
 31 79  1  6
 32 33  1  0
 32 80  1  0
 32 81  1  0
 33 34  1  0
 33 35  1  0
 33 82  1  1
 34 83  1  0
 35 36  1  1
 36 37  1  0
 36 84  1  0
 36 85  1  0
 37 38  1  1
 37 39  1  0
 38 86  1  0
 38 87  1  0
 38 88  1  0
 39 89  1  1
M  END
>  <i_m_ct_stereo_status>  (350) 
1

>  <s_m_source_file>  (350) 
/var/tmp/pbs.5076255.sched01/tmporjl5eer/117expd_qi0.sdf

>  <i_m_source_file_index>  (350) 
32

>  <i_lp_mmshare_version>  (350) 
48012

>  <i_f3d_flags>  (350) 
0

>  <s_epik_input>  (350) 
TzFPQzEyW0NIMl1bQ0BASF0oW0NIM10pW0NASF0zW0NAQEhdKE8yKVtDSDJdW0NIMl1bQ0BASF00W0NASF01W0NAQF02KFtDSDJdW0NAXTM0W0NIM10pW0NASF0oW0NIMl1bQ0gyXTUpW0NAXTcoW0NIM10pW0NAQEhdKFtDSDJdW0NASF02W09IXSlbQ0BAXTgoW0NIM10pW0NAQEhdKFtDQEBIXShbQ0gyXTcpW09IXSlDKFtDSDNdKShbQ0gzXSlDKD1PKVtDSDJdW0NIMl04

>  <s_epik_cmdline>  (350) 
J2VwaWtfcHl0aG9uJywgJy1waHQnLCAnMi4wJywgJy1waCcsICc3LjAnLCAnLXRuJywgJzgnLCAnLW1hJywgJzIwMCcsICctaW1hZScsICc8aW5maWxlLm1hZT4nLCAnLW9tYWUnLCAnPG91dGZpbGUubWFlPic=

>  <r_lp_tautomer_probability>  (350) 
1

>  <r_epik_Ionization_Penalty>  (350) 
3.59239e-06

>  <r_epik_Ionization_Penalty_Charging>  (350) 
0

>  <r_epik_Ionization_Penalty_Neutral>  (350) 
3.59239e-06

>  <r_epik_State_Penalty>  (350) 
-0

>  <r_epik_Charging_Adjusted_Penalty>  (350) 
0

>  <i_epik_Tot_Q>  (350) 
0

>  <i_epik_Tot_abs_Q>  (350) 
0

>  <s_lp_Force_Field>  (350) 
OPLS3e

>  <r_lp_Energy>  (350) 
101.496

>  <b_lp_Chiralities_Consistent>  (350) 
1

>  <s_lp_Variant>  (350) 
118:0-1

>  <s_i_glide_gridfile>  (350) 
pfpi4k_grid

>  <i_i_glide_lignum>  (350) 
32

>  <i_i_glide_rotatable_bonds>  (350) 
2

>  <r_i_docking_score>  (350) 
-2.07882

>  <r_i_glide_ligand_efficiency>  (350) 
-0.0533032

>  <r_i_glide_ligand_efficiency_sa>  (350) 
-0.180762

>  <r_i_glide_ligand_efficiency_ln>  (350) 
-0.445759

>  <r_i_glide_gscore>  (350) 
-2.07882

>  <r_i_glide_lipo>  (350) 
-0.356903

>  <r_i_glide_hbond>  (350) 
-0.0482056

>  <r_i_glide_metal>  (350) 
-0

>  <r_i_glide_rewards>  (350) 
0

>  <r_i_glide_evdw>  (350) 
-32.6927

>  <r_i_glide_ecoul>  (350) 
0.0336809

>  <r_i_glide_erotb>  (350) 
0

>  <r_i_glide_esite>  (350) 
-0.0441312

>  <r_i_glide_emodel>  (350) 
-36.2364

>  <r_i_glide_energy>  (350) 
-32.659

>  <r_i_glide_einternal>  (350) 
0.325691

>  <r_i_glide_intrahb_reward>  (350) 
-0

>  <i_i_glide_confnum>  (350) 
2

>  <i_i_glide_posenum>  (350) 
7

>  <r_i_glide_eff_state_penalty>  (350) 
0

>  <ligand_id>  (350) 
118

>  <original_smiles>  (350) 
CC1CC2(OO2)OC2CCC3C4CCC5C6(C)CC(O)C7C(C)(C)C(=O)CCC7(C)C6CC(O)C45CC3(C)C12

>  <smiles>  (350) 
[H]OC1([H])C([H])([H])C2(C([H])([H])[H])C([H])(C([H])([H])C([H])(O[H])C34C([H])([H])C5(C([H])([H])[H])C([H])(C([H])([H])C([H])([H])C6([H])OC7(OO7)C([H])([H])C([H])(C([H])([H])[H])C65[H])C3([H])C([H])([H])C([H])([H])C24[H])C2(C([H])([H])[H])C([H])([H])C([H])([H])C(=O)C(C([H])([H])[H])(C([H])([H])[H])C12[H]

$$$$
119:0:0
     RDKit          3D

 84 89  0  0  1  0  0  0  0  0999 V2000
    0.7325    4.7761    4.0269 C   0  0  0  0  0  0  0  0  0  0  0  0
   -0.2618    3.6452    3.7168 C   0  0  0  0  0  0  0  0  0  0  0  0
   -1.0327    3.3377    4.8939 O   0  0  0  0  0  0  0  0  0  0  0  0
   -0.3649    2.6914    5.9972 C   0  0  2  0  0  0  0  0  0  0  0  0
    0.0812    1.2783    5.4986 C   0  0  2  0  0  0  0  0  0  0  0  0
    0.4313    0.2299    6.5697 C   0  0  0  0  0  0  0  0  0  0  0  0
    1.0704   -1.0632    6.1130 C   0  0  1  0  0  0  0  0  0  0  0  0
   -0.0400   -1.9919    5.5573 C   0  0  0  0  0  0  0  0  0  0  0  0
    2.2303   -0.6464    5.1706 C   0  0  2  0  0  0  0  0  0  0  0  0
    1.7213    0.2837    4.0880 C   0  0  2  0  0  0  0  0  0  0  0  0
    2.9305    0.4624    3.1596 C   0  0  0  0  0  0  0  0  0  0  0  0
    3.9864   -0.6258    3.5306 C   0  0  2  0  0  0  0  0  0  0  0  0
    5.1352    0.1198    4.2866 C   0  0  0  0  0  0  0  0  0  0  0  0
    4.6472   -1.3442    2.2807 C   0  0  2  0  0  0  0  0  0  0  0  0
    5.1370   -0.3361    1.2028 C   0  0  0  0  0  0  0  0  0  0  0  0
    6.0262   -0.9864    0.1376 C   0  0  1  0  0  0  0  0  0  0  0  0
    7.3183   -1.1701    0.7005 O   0  0  0  0  0  0  0  0  0  0  0  0
    5.4721   -2.3001   -0.4015 C   0  0  2  0  0  0  0  0  0  0  0  0
    6.2052   -2.7992   -1.5432 O   0  0  0  0  0  0  0  0  0  0  0  0
    4.8292   -2.4660   -1.7392 C   0  0  1  0  0  0  0  0  0  0  0  0
    3.9408   -3.5697   -1.6044 O   0  0  0  0  0  0  0  0  0  0  0  0
    4.1396   -4.2529   -0.3683 C   0  0  0  0  0  0  0  0  0  0  0  0
    4.9000   -3.2978    0.5919 C   0  0  1  0  0  0  0  0  0  0  0  0
    6.0777   -4.0918    1.2302 C   0  0  0  0  0  0  0  0  0  0  0  0
    3.8970   -2.5531    1.6142 C   0  0  2  0  0  0  0  0  0  0  0  0
    2.6557   -2.0329    0.8176 C   0  0  0  0  0  0  0  0  0  0  0  0
    3.3129   -3.4983    2.7112 C   0  0  1  0  0  0  0  0  0  0  0  0
    4.2590   -4.2874    3.4058 O   0  0  0  0  0  0  0  0  0  0  0  0
    2.4830   -2.7468    3.7636 C   0  0  0  0  0  0  0  0  0  0  0  0
    3.2336   -1.6100    4.5185 C   0  0  2  0  0  0  0  0  0  0  0  0
    4.1341   -2.2265    5.6230 C   0  0  0  0  0  0  0  0  0  0  0  0
    1.2931    1.4584    4.7181 O   0  0  0  0  0  0  0  0  0  0  0  0
   -1.3723    2.7746    7.2110 C   0  0  0  0  0  0  0  0  0  0  0  0
   -2.7907    2.3578    6.8179 C   0  0  0  0  0  0  0  0  0  0  0  0
   -0.9220    2.0579    8.5326 C   0  0  0  0  0  0  0  0  0  0  0  0
   -1.4424    4.1474    7.5969 O   0  0  0  0  0  0  0  0  0  0  0  0
    1.3494    4.9815    3.1515 H   0  0  0  0  0  0  0  0  0  0  0  0
    1.4209    4.5139    4.8332 H   0  0  0  0  0  0  0  0  0  0  0  0
    0.2044    5.6823    4.3147 H   0  0  0  0  0  0  0  0  0  0  0  0
   -0.9449    3.9583    2.9169 H   0  0  0  0  0  0  0  0  0  0  0  0
    0.2321    2.7863    3.2907 H   0  0  0  0  0  0  0  0  0  0  0  0
    0.5162    3.2501    6.2981 H   0  0  0  0  0  0  0  0  0  0  0  0
   -0.7081    0.8721    4.8625 H   0  0  0  0  0  0  0  0  0  0  0  0
    1.0766    0.7043    7.3276 H   0  0  0  0  0  0  0  0  0  0  0  0
   -0.4978   -0.0812    7.0313 H   0  0  0  0  0  0  0  0  0  0  0  0
    1.5026   -1.5459    6.9926 H   0  0  0  0  0  0  0  0  0  0  0  0
   -0.4560   -1.6227    4.6214 H   0  0  0  0  0  0  0  0  0  0  0  0
   -0.8776   -2.0449    6.2594 H   0  0  0  0  0  0  0  0  0  0  0  0
    0.2849   -3.0136    5.4482 H   0  0  0  0  0  0  0  0  0  0  0  0
    2.8317    0.0025    5.8124 H   0  0  0  0  0  0  0  0  0  0  0  0
    0.9114   -0.1840    3.5109 H   0  0  0  0  0  0  0  0  0  0  0  0
    2.6008    0.4337    2.1282 H   0  0  0  0  0  0  0  0  0  0  0  0
    3.3253    1.4728    3.2908 H   0  0  0  0  0  0  0  0  0  0  0  0
    5.9597   -0.5438    4.5412 H   0  0  0  0  0  0  0  0  0  0  0  0
    4.8060    0.5802    5.2163 H   0  0  0  0  0  0  0  0  0  0  0  0
    5.5626    0.9343    3.7081 H   0  0  0  0  0  0  0  0  0  0  0  0
    5.5487   -1.7825    2.6985 H   0  0  0  0  0  0  0  0  0  0  0  0
    4.2975    0.1401    0.6974 H   0  0  0  0  0  0  0  0  0  0  0  0
    5.6899    0.4832    1.6384 H   0  0  0  0  0  0  0  0  0  0  0  0
    6.1313   -0.2927   -0.6889 H   0  0  0  0  0  0  0  0  0  0  0  0
    7.5917   -0.3790    1.1284 H   0  0  0  0  0  0  0  0  0  0  0  0
    4.5643   -1.6408   -2.3943 H   0  0  0  0  0  0  0  0  0  0  0  0
    3.2001   -4.6329    0.0233 H   0  0  0  0  0  0  0  0  0  0  0  0
    4.7364   -5.1428   -0.5824 H   0  0  0  0  0  0  0  0  0  0  0  0
    5.7761   -5.0661    1.6112 H   0  0  0  0  0  0  0  0  0  0  0  0
    6.5842   -3.5600    2.0385 H   0  0  0  0  0  0  0  0  0  0  0  0
    6.8500   -4.3186    0.4892 H   0  0  0  0  0  0  0  0  0  0  0  0
    2.0388   -2.8340    0.4186 H   0  0  0  0  0  0  0  0  0  0  0  0
    2.9208   -1.4056   -0.0286 H   0  0  0  0  0  0  0  0  0  0  0  0
    1.9659   -1.4453    1.4139 H   0  0  0  0  0  0  0  0  0  0  0  0
    2.6496   -4.2239    2.2408 H   0  0  0  0  0  0  0  0  0  0  0  0
    4.6983   -4.8262    2.7906 H   0  0  0  0  0  0  0  0  0  0  0  0
    1.5862   -2.3550    3.2943 H   0  0  0  0  0  0  0  0  0  0  0  0
    2.1145   -3.4762    4.4814 H   0  0  0  0  0  0  0  0  0  0  0  0
    5.0300   -2.6835    5.2019 H   0  0  0  0  0  0  0  0  0  0  0  0
    3.6051   -2.9977    6.1825 H   0  0  0  0  0  0  0  0  0  0  0  0
    4.4691   -1.4912    6.3556 H   0  0  0  0  0  0  0  0  0  0  0  0
   -2.8122    1.3073    6.5132 H   0  0  0  0  0  0  0  0  0  0  0  0
   -3.1821    2.9472    5.9835 H   0  0  0  0  0  0  0  0  0  0  0  0
   -3.4892    2.4950    7.6418 H   0  0  0  0  0  0  0  0  0  0  0  0
   -0.9097    1.0117    8.4910 H   0  0  0  0  0  0  0  0  0  0  0  0
   -1.6275    2.2369    9.3381 H   0  0  0  0  0  0  0  0  0  0  0  0
    0.0806    2.4117    8.8362 H   0  0  0  0  0  0  0  0  0  0  0  0
   -0.6435    4.4048    7.9646 H   0  0  0  0  0  0  0  0  0  0  0  0
  1  2  1  0
  1 37  1  0
  1 38  1  0
  1 39  1  0
  2  3  1  0
  2 40  1  0
  2 41  1  0
  3  4  1  0
  4  5  1  0
  4 33  1  0
  4 42  1  1
  5 32  1  0
  5  6  1  0
  5 43  1  6
  6  7  1  0
  6 44  1  0
  6 45  1  0
  7  8  1  0
  7  9  1  0
  7 46  1  1
  8 47  1  0
  8 48  1  0
  8 49  1  0
  9 30  1  0
  9 10  1  0
  9 50  1  1
 10 11  1  0
 10 32  1  0
 10 51  1  6
 11 12  1  0
 11 52  1  0
 11 53  1  0
 12 30  1  0
 12 13  1  1
 12 14  1  0
 13 54  1  0
 13 55  1  0
 13 56  1  0
 14 25  1  0
 14 15  1  0
 14 57  1  1
 15 16  1  0
 15 58  1  0
 15 59  1  0
 16 17  1  0
 16 18  1  0
 16 60  1  6
 17 61  1  0
 18 20  1  0
 18 23  1  0
 18 19  1  6
 19 20  1  0
 20 21  1  0
 20 62  1  6
 21 22  1  0
 22 23  1  0
 22 63  1  0
 22 64  1  0
 23 24  1  1
 23 25  1  0
 24 65  1  0
 24 66  1  0
 24 67  1  0
 25 26  1  6
 25 27  1  0
 26 68  1  0
 26 69  1  0
 26 70  1  0
 27 28  1  0
 27 29  1  0
 27 71  1  6
 28 72  1  0
 29 30  1  0
 29 73  1  0
 29 74  1  0
 30 31  1  1
 31 75  1  0
 31 76  1  0
 31 77  1  0
 33 34  1  0
 33 35  1  0
 33 36  1  0
 34 78  1  0
 34 79  1  0
 34 80  1  0
 35 81  1  0
 35 82  1  0
 35 83  1  0
 36 84  1  0
M  END
>  <i_m_ct_stereo_status>  (351) 
1

>  <s_m_source_file>  (351) 
/var/tmp/pbs.5076255.sched01/tmporjl5eer/117expd_qi0.sdf

>  <i_m_source_file_index>  (351) 
33

>  <i_lp_mmshare_version>  (351) 
48012

>  <i_f3d_flags>  (351) 
0

>  <s_epik_input>  (351) 
W0NIM11bQ0gyXU9bQ0BASF0oQyhbQ0gzXSkoW0NIM10pW09IXSlbQ0BIXShbQ0gyXVtDQEhdMVtDSDNdKU9bQ0BASF0oW0NIMl0yKVtDQEBIXTFbQ0BAXShbQ0gzXSkoW0NIMl1bQ0BASF0zW09IXSlbQ0BAXTIoW0NIM10pW0NASF0oW0NIMl1bQ0BIXTRbT0hdKVtDQEBdMyhbQ0gzXSlbQ0BAXTUoW0NIM10pW0NIMl1PW0NAQEhdKFtDQEBdNDU2KU82

>  <s_epik_cmdline>  (351) 
J2VwaWtfcHl0aG9uJywgJy1waHQnLCAnMi4wJywgJy1waCcsICc3LjAnLCAnLXRuJywgJzgnLCAnLW1hJywgJzIwMCcsICctaW1hZScsICc8aW5maWxlLm1hZT4nLCAnLW9tYWUnLCAnPG91dGZpbGUubWFlPic=

>  <r_lp_tautomer_probability>  (351) 
1

>  <r_epik_Ionization_Penalty>  (351) 
4.37376e-07

>  <r_epik_Ionization_Penalty_Charging>  (351) 
0

>  <r_epik_Ionization_Penalty_Neutral>  (351) 
4.37376e-07

>  <r_epik_State_Penalty>  (351) 
-0

>  <r_epik_Charging_Adjusted_Penalty>  (351) 
0

>  <i_epik_Tot_Q>  (351) 
0

>  <i_epik_Tot_abs_Q>  (351) 
0

>  <s_epik_Chemistry_Notes>  (351) 
This compound contains an acetal/aminal-like group ( X-CH(R)-Y where X, Y are N, S, or O) that may be acid/base labile, releasing an aldehyde.

>  <s_lp_Force_Field>  (351) 
OPLS3e

>  <r_lp_Energy>  (351) 
77.5525

>  <b_lp_Chiralities_Consistent>  (351) 
1

>  <s_lp_Variant>  (351) 
119:0-1

>  <s_i_glide_gridfile>  (351) 
pfpi4k_grid

>  <i_i_glide_lignum>  (351) 
33

>  <i_i_glide_rotatable_bonds>  (351) 
7

>  <r_i_docking_score>  (351) 
-2.19162

>  <r_i_glide_ligand_efficiency>  (351) 
-0.0608784

>  <r_i_glide_ligand_efficiency_sa>  (351) 
-0.201016

>  <r_i_glide_ligand_efficiency_ln>  (351) 
-0.478153

>  <r_i_glide_gscore>  (351) 
-2.19162

>  <r_i_glide_lipo>  (351) 
-0.63036

>  <r_i_glide_hbond>  (351) 
0

>  <r_i_glide_metal>  (351) 
-0

>  <r_i_glide_rewards>  (351) 
0

>  <r_i_glide_evdw>  (351) 
-23.8925

>  <r_i_glide_ecoul>  (351) 
-3.95366

>  <r_i_glide_erotb>  (351) 
0.237379

>  <r_i_glide_esite>  (351) 
-0.0109697

>  <r_i_glide_emodel>  (351) 
-28.3109

>  <r_i_glide_energy>  (351) 
-27.8461

>  <r_i_glide_einternal>  (351) 
4.12741

>  <r_i_glide_intrahb_reward>  (351) 
-0

>  <i_i_glide_confnum>  (351) 
2

>  <i_i_glide_posenum>  (351) 
36

>  <r_i_glide_eff_state_penalty>  (351) 
0

>  <ligand_id>  (351) 
119

>  <original_smiles>  (351) 
CCOC(C1CC(C)C2C(CC3(C)C4CC(O)C56OC5OCC6(C)C4(C)C(O)CC23C)O1)C(C)(C)O

>  <smiles>  (351) 
[H]OC1([H])C([H])([H])C2([H])C3(C([H])([H])[H])C([H])([H])C4([H])OC([H])(C([H])(OC([H])([H])C([H])([H])[H])C(O[H])(C([H])([H])[H])C([H])([H])[H])C([H])([H])C([H])(C([H])([H])[H])C4([H])C3(C([H])([H])[H])C([H])([H])C([H])(O[H])C2(C([H])([H])[H])C2(C([H])([H])[H])C([H])([H])OC3([H])OC312

$$$$
119:0:1
     RDKit          3D

 84 89  0  0  1  0  0  0  0  0999 V2000
    4.3780   -0.5886    0.3876 C   0  0  0  0  0  0  0  0  0  0  0  0
    3.8096    0.2705    1.5243 C   0  0  0  0  0  0  0  0  0  0  0  0
    2.5215   -0.2130    1.8739 O   0  0  0  0  0  0  0  0  0  0  0  0
    1.9889    0.2551    3.1172 C   0  0  2  0  0  0  0  0  0  0  0  0
    1.3670   -1.0250    3.7599 C   0  0  2  0  0  0  0  0  0  0  0  0
    1.1123   -0.9426    5.2971 C   0  0  0  0  0  0  0  0  0  0  0  0
    0.6733   -2.2794    5.9284 C   0  0  1  0  0  0  0  0  0  0  0  0
   -0.8061   -2.5755    5.6046 C   0  0  0  0  0  0  0  0  0  0  0  0
    1.7332   -3.3182    5.4811 C   0  0  2  0  0  0  0  0  0  0  0  0
    1.8463   -3.3820    3.9706 C   0  0  2  0  0  0  0  0  0  0  0  0
    2.8205   -4.5328    3.7151 C   0  0  0  0  0  0  0  0  0  0  0  0
    2.9340   -5.3640    5.0387 C   0  0  2  0  0  0  0  0  0  0  0  0
    4.3447   -5.0415    5.6280 C   0  0  0  0  0  0  0  0  0  0  0  0
    2.8895   -6.9329    4.8404 C   0  0  2  0  0  0  0  0  0  0  0  0
    3.8211   -7.4324    3.7015 C   0  0  0  0  0  0  0  0  0  0  0  0
    3.9887   -8.9581    3.6772 C   0  0  1  0  0  0  0  0  0  0  0  0
    4.8842   -9.2850    4.7232 O   0  0  0  0  0  0  0  0  0  0  0  0
    2.6718   -9.7219    3.8061 C   0  0  2  0  0  0  0  0  0  0  0  0
    2.8032  -11.1481    3.6145 O   0  0  0  0  0  0  0  0  0  0  0  0
    1.9717  -10.4284    2.6874 C   0  0  1  0  0  0  0  0  0  0  0  0
    0.5906  -10.4077    3.0251 O   0  0  0  0  0  0  0  0  0  0  0  0
    0.4043  -10.0016    4.3816 C   0  0  0  0  0  0  0  0  0  0  0  0
    1.6706   -9.2372    4.8283 C   0  0  1  0  0  0  0  0  0  0  0  0
    2.1190   -9.7848    6.2190 C   0  0  0  0  0  0  0  0  0  0  0  0
    1.4841   -7.6410    4.7296 C   0  0  2  0  0  0  0  0  0  0  0  0
    0.8173   -7.3134    3.3558 C   0  0  0  0  0  0  0  0  0  0  0  0
    0.5133   -7.0553    5.8095 C   0  0  1  0  0  0  0  0  0  0  0  0
    0.7748   -7.4390    7.1401 O   0  0  0  0  0  0  0  0  0  0  0  0
    0.4475   -5.5189    5.7980 C   0  0  0  0  0  0  0  0  0  0  0  0
    1.8036   -4.7879    5.9846 C   0  0  2  0  0  0  0  0  0  0  0  0
    2.1799   -4.7897    7.4917 C   0  0  0  0  0  0  0  0  0  0  0  0
    2.3001   -2.1066    3.5201 O   0  0  0  0  0  0  0  0  0  0  0  0
    1.0176    1.4597    2.8392 C   0  0  0  0  0  0  0  0  0  0  0  0
    0.0567    1.1965    1.6764 C   0  0  0  0  0  0  0  0  0  0  0  0
    0.2049    1.9445    4.0472 C   0  0  0  0  0  0  0  0  0  0  0  0
    1.7993    2.5935    2.4778 O   0  0  0  0  0  0  0  0  0  0  0  0
    5.3906   -0.2746    0.1262 H   0  0  0  0  0  0  0  0  0  0  0  0
    3.7683   -0.5384   -0.5130 H   0  0  0  0  0  0  0  0  0  0  0  0
    4.4192   -1.6327    0.6957 H   0  0  0  0  0  0  0  0  0  0  0  0
    4.4960    0.2026    2.3679 H   0  0  0  0  0  0  0  0  0  0  0  0
    3.7521    1.3178    1.2312 H   0  0  0  0  0  0  0  0  0  0  0  0
    2.8026    0.5768    3.7717 H   0  0  0  0  0  0  0  0  0  0  0  0
    0.4520   -1.2854    3.2220 H   0  0  0  0  0  0  0  0  0  0  0  0
    2.0353   -0.6162    5.7707 H   0  0  0  0  0  0  0  0  0  0  0  0
    0.3503   -0.2077    5.5591 H   0  0  0  0  0  0  0  0  0  0  0  0
    0.7466   -2.1728    7.0162 H   0  0  0  0  0  0  0  0  0  0  0  0
   -0.9475   -2.8391    4.5604 H   0  0  0  0  0  0  0  0  0  0  0  0
   -1.4147   -1.6932    5.7867 H   0  0  0  0  0  0  0  0  0  0  0  0
   -1.2204   -3.3591    6.2294 H   0  0  0  0  0  0  0  0  0  0  0  0
    2.6649   -2.8684    5.8154 H   0  0  0  0  0  0  0  0  0  0  0  0
    0.8876   -3.6122    3.5054 H   0  0  0  0  0  0  0  0  0  0  0  0
    2.4898   -5.1148    2.8563 H   0  0  0  0  0  0  0  0  0  0  0  0
    3.7967   -4.1392    3.4218 H   0  0  0  0  0  0  0  0  0  0  0  0
    4.5603   -5.6234    6.5233 H   0  0  0  0  0  0  0  0  0  0  0  0
    4.4674   -3.9933    5.8893 H   0  0  0  0  0  0  0  0  0  0  0  0
    5.1471   -5.2524    4.9243 H   0  0  0  0  0  0  0  0  0  0  0  0
    3.3179   -7.3079    5.7683 H   0  0  0  0  0  0  0  0  0  0  0  0
    3.4420   -7.1243    2.7353 H   0  0  0  0  0  0  0  0  0  0  0  0
    4.8116   -6.9857    3.7629 H   0  0  0  0  0  0  0  0  0  0  0  0
    4.4540   -9.2416    2.7361 H   0  0  0  0  0  0  0  0  0  0  0  0
    4.4231   -9.2502    5.5536 H   0  0  0  0  0  0  0  0  0  0  0  0
    2.2909  -10.2619    1.6599 H   0  0  0  0  0  0  0  0  0  0  0  0
   -0.5222   -9.4551    4.5434 H   0  0  0  0  0  0  0  0  0  0  0  0
    0.3126  -10.9054    4.9705 H   0  0  0  0  0  0  0  0  0  0  0  0
    1.2848   -9.8709    6.9114 H   0  0  0  0  0  0  0  0  0  0  0  0
    2.9008   -9.2106    6.7178 H   0  0  0  0  0  0  0  0  0  0  0  0
    2.4989  -10.8014    6.1260 H   0  0  0  0  0  0  0  0  0  0  0  0
   -0.2008   -7.6958    3.2927 H   0  0  0  0  0  0  0  0  0  0  0  0
    1.3523   -7.7375    2.5080 H   0  0  0  0  0  0  0  0  0  0  0  0
    0.7266   -6.2502    3.1740 H   0  0  0  0  0  0  0  0  0  0  0  0
   -0.4895   -7.4289    5.6057 H   0  0  0  0  0  0  0  0  0  0  0  0
    0.8370   -8.3882    7.1752 H   0  0  0  0  0  0  0  0  0  0  0  0
   -0.0325   -5.1904    4.8826 H   0  0  0  0  0  0  0  0  0  0  0  0
   -0.2363   -5.2304    6.5908 H   0  0  0  0  0  0  0  0  0  0  0  0
    2.5295   -5.7682    7.8215 H   0  0  0  0  0  0  0  0  0  0  0  0
    1.3287   -4.5232    8.1185 H   0  0  0  0  0  0  0  0  0  0  0  0
    2.9729   -4.0803    7.7336 H   0  0  0  0  0  0  0  0  0  0  0  0
   -0.6216    0.3785    1.8943 H   0  0  0  0  0  0  0  0  0  0  0  0
    0.6042    0.9482    0.7679 H   0  0  0  0  0  0  0  0  0  0  0  0
   -0.5529    2.0755    1.4652 H   0  0  0  0  0  0  0  0  0  0  0  0
   -0.5494    1.2070    4.3317 H   0  0  0  0  0  0  0  0  0  0  0  0
   -0.3110    2.8832    3.8348 H   0  0  0  0  0  0  0  0  0  0  0  0
    0.8575    2.1171    4.8933 H   0  0  0  0  0  0  0  0  0  0  0  0
    1.2446    3.2024    1.9833 H   0  0  0  0  0  0  0  0  0  0  0  0
  1  2  1  0
  1 37  1  0
  1 38  1  0
  1 39  1  0
  2  3  1  0
  2 40  1  0
  2 41  1  0
  3  4  1  0
  4  5  1  0
  4 33  1  0
  4 42  1  1
  5 32  1  0
  5  6  1  0
  5 43  1  6
  6  7  1  0
  6 44  1  0
  6 45  1  0
  7  8  1  0
  7  9  1  0
  7 46  1  1
  8 47  1  0
  8 48  1  0
  8 49  1  0
  9 30  1  0
  9 10  1  0
  9 50  1  1
 10 11  1  0
 10 32  1  0
 10 51  1  6
 11 12  1  0
 11 52  1  0
 11 53  1  0
 12 30  1  0
 12 13  1  1
 12 14  1  0
 13 54  1  0
 13 55  1  0
 13 56  1  0
 14 25  1  0
 14 15  1  0
 14 57  1  1
 15 16  1  0
 15 58  1  0
 15 59  1  0
 16 17  1  0
 16 18  1  0
 16 60  1  6
 17 61  1  0
 18 20  1  0
 18 23  1  0
 18 19  1  1
 19 20  1  0
 20 21  1  0
 20 62  1  6
 21 22  1  0
 22 23  1  0
 22 63  1  0
 22 64  1  0
 23 24  1  1
 23 25  1  0
 24 65  1  0
 24 66  1  0
 24 67  1  0
 25 26  1  6
 25 27  1  0
 26 68  1  0
 26 69  1  0
 26 70  1  0
 27 28  1  0
 27 29  1  0
 27 71  1  6
 28 72  1  0
 29 30  1  0
 29 73  1  0
 29 74  1  0
 30 31  1  1
 31 75  1  0
 31 76  1  0
 31 77  1  0
 33 34  1  0
 33 35  1  0
 33 36  1  0
 34 78  1  0
 34 79  1  0
 34 80  1  0
 35 81  1  0
 35 82  1  0
 35 83  1  0
 36 84  1  0
M  END
>  <i_m_ct_stereo_status>  (352) 
1

>  <s_m_source_file>  (352) 
/var/tmp/pbs.5076255.sched01/tmporjl5eer/117expd_qi0.sdf

>  <i_m_source_file_index>  (352) 
33

>  <i_lp_mmshare_version>  (352) 
48012

>  <i_f3d_flags>  (352) 
0

>  <s_epik_input>  (352) 
W0NIM11bQ0gyXU9bQ0BASF0oQyhbQ0gzXSkoW0NIM10pW09IXSlbQ0BIXShbQ0gyXVtDQEhdMVtDSDNdKU9bQ0BASF0oW0NIMl0yKVtDQEBIXTFbQ0BAXShbQ0gzXSkoW0NIMl1bQ0BASF0zW09IXSlbQ0BAXTIoW0NIM10pW0NASF0oW0NIMl1bQ0BIXTRbT0hdKVtDQEBdMyhbQ0gzXSlbQ0BAXTUoW0NIM10pW0NIMl1PW0NAQEhdKFtDQEBdNDU2KU82

>  <s_epik_cmdline>  (352) 
J2VwaWtfcHl0aG9uJywgJy1waHQnLCAnMi4wJywgJy1waCcsICc3LjAnLCAnLXRuJywgJzgnLCAnLW1hJywgJzIwMCcsICctaW1hZScsICc8aW5maWxlLm1hZT4nLCAnLW9tYWUnLCAnPG91dGZpbGUubWFlPic=

>  <r_lp_tautomer_probability>  (352) 
1

>  <r_epik_Ionization_Penalty>  (352) 
4.37376e-07

>  <r_epik_Ionization_Penalty_Charging>  (352) 
0

>  <r_epik_Ionization_Penalty_Neutral>  (352) 
4.37376e-07

>  <r_epik_State_Penalty>  (352) 
-0

>  <r_epik_Charging_Adjusted_Penalty>  (352) 
0

>  <i_epik_Tot_Q>  (352) 
0

>  <i_epik_Tot_abs_Q>  (352) 
0

>  <s_epik_Chemistry_Notes>  (352) 
This compound contains an acetal/aminal-like group ( X-CH(R)-Y where X, Y are N, S, or O) that may be acid/base labile, releasing an aldehyde.

>  <s_lp_Force_Field>  (352) 
OPLS3e

>  <r_lp_Energy>  (352) 
77.5525

>  <b_lp_Chiralities_Consistent>  (352) 
1

>  <s_lp_Variant>  (352) 
119:0-1

>  <s_i_glide_gridfile>  (352) 
pfpi4k_grid

>  <i_i_glide_lignum>  (352) 
33

>  <i_i_glide_rotatable_bonds>  (352) 
7

>  <r_i_docking_score>  (352) 
-1.5554

>  <r_i_glide_ligand_efficiency>  (352) 
-0.0432057

>  <r_i_glide_ligand_efficiency_sa>  (352) 
-0.142662

>  <r_i_glide_ligand_efficiency_ln>  (352) 
-0.339347

>  <r_i_glide_gscore>  (352) 
-1.5554

>  <r_i_glide_lipo>  (352) 
-0.150396

>  <r_i_glide_hbond>  (352) 
0

>  <r_i_glide_metal>  (352) 
-0

>  <r_i_glide_rewards>  (352) 
-0.116445

>  <r_i_glide_evdw>  (352) 
-24.165

>  <r_i_glide_ecoul>  (352) 
-2.11794

>  <r_i_glide_erotb>  (352) 
0.237379

>  <r_i_glide_esite>  (352) 
0

>  <r_i_glide_emodel>  (352) 
-26.0267

>  <r_i_glide_energy>  (352) 
-26.283

>  <r_i_glide_einternal>  (352) 
5.65677

>  <r_i_glide_intrahb_reward>  (352) 
-0

>  <i_i_glide_confnum>  (352) 
2

>  <i_i_glide_posenum>  (352) 
35

>  <r_i_glide_eff_state_penalty>  (352) 
0

>  <ligand_id>  (352) 
119

>  <original_smiles>  (352) 
CCOC(C1CC(C)C2C(CC3(C)C4CC(O)C56OC5OCC6(C)C4(C)C(O)CC23C)O1)C(C)(C)O

>  <smiles>  (352) 
[H]OC1([H])C([H])([H])C2([H])C3(C([H])([H])[H])C([H])([H])C4([H])OC([H])(C([H])(OC([H])([H])C([H])([H])[H])C(O[H])(C([H])([H])[H])C([H])([H])[H])C([H])([H])C([H])(C([H])([H])[H])C4([H])C3(C([H])([H])[H])C([H])([H])C([H])(O[H])C2(C([H])([H])[H])C2(C([H])([H])[H])C([H])([H])OC3([H])OC312

$$$$
119:0:2
     RDKit          3D

 84 89  0  0  1  0  0  0  0  0999 V2000
    3.8103   -1.1267    0.0326 C   0  0  0  0  0  0  0  0  0  0  0  0
    3.6886   -0.2349    1.2801 C   0  0  0  0  0  0  0  0  0  0  0  0
    2.3176   -0.0171    1.5726 O   0  0  0  0  0  0  0  0  0  0  0  0
    1.9994    0.3697    2.9100 C   0  0  2  0  0  0  0  0  0  0  0  0
    1.3995   -0.9195    3.5657 C   0  0  2  0  0  0  0  0  0  0  0  0
    1.1660   -0.8403    5.1062 C   0  0  0  0  0  0  0  0  0  0  0  0
    0.7590   -2.1816    5.7556 C   0  0  1  0  0  0  0  0  0  0  0  0
   -0.7369   -2.4639    5.4886 C   0  0  0  0  0  0  0  0  0  0  0  0
    1.7960   -3.2125    5.2729 C   0  0  2  0  0  0  0  0  0  0  0  0
    1.8577   -3.2804    3.7614 C   0  0  2  0  0  0  0  0  0  0  0  0
    2.8128   -4.4345    3.4705 C   0  0  0  0  0  0  0  0  0  0  0  0
    2.9660   -5.2704    4.7909 C   0  0  2  0  0  0  0  0  0  0  0  0
    4.4002   -4.9516    5.3310 C   0  0  0  0  0  0  0  0  0  0  0  0
    2.9041   -6.8376    4.5925 C   0  0  2  0  0  0  0  0  0  0  0  0
    3.8007   -7.3396    3.4248 C   0  0  0  0  0  0  0  0  0  0  0  0
    3.9435   -8.8608    3.3810 C   0  0  1  0  0  0  0  0  0  0  0  0
    4.8407   -9.2308    4.4080 O   0  0  0  0  0  0  0  0  0  0  0  0
    2.6297   -9.6213    3.5526 C   0  0  2  0  0  0  0  0  0  0  0  0
    2.7523  -11.0380    3.3626 O   0  0  0  0  0  0  0  0  0  0  0  0
    1.8880  -10.3241    2.4745 C   0  0  1  0  0  0  0  0  0  0  0  0
    0.5189  -10.2977    2.8508 O   0  0  0  0  0  0  0  0  0  0  0  0
    0.3821   -9.8815    4.2190 C   0  0  0  0  0  0  0  0  0  0  0  0
    1.6699   -9.1241    4.6267 C   0  0  1  0  0  0  0  0  0  0  0  0
    2.1540   -9.6825    6.0024 C   0  0  0  0  0  0  0  0  0  0  0  0
    1.4918   -7.5280    4.5313 C   0  0  2  0  0  0  0  0  0  0  0  0
    0.7797   -7.1941    3.1769 C   0  0  0  0  0  0  0  0  0  0  0  0
    0.5617   -6.9387    5.6374 C   0  0  1  0  0  0  0  0  0  0  0  0
    0.8706   -7.3323    6.9591 O   0  0  0  0  0  0  0  0  0  0  0  0
    0.5065   -5.4041    5.6304 C   0  0  0  0  0  0  0  0  0  0  0  0
    1.8743   -4.6794    5.7723 C   0  0  2  0  0  0  0  0  0  0  0  0
    2.3004   -4.6855    7.2683 C   0  0  0  0  0  0  0  0  0  0  0  0
    2.3079   -2.0101    3.2902 O   0  0  0  0  0  0  0  0  0  0  0  0
    1.0622    1.6132    2.8026 C   0  0  0  0  0  0  0  0  0  0  0  0
   -0.1404    1.3905    1.8794 C   0  0  0  0  0  0  0  0  0  0  0  0
    0.5782    2.2097    4.1380 C   0  0  0  0  0  0  0  0  0  0  0  0
    1.8055    2.6744    2.2407 O   0  0  0  0  0  0  0  0  0  0  0  0
    4.8531   -1.3434   -0.2053 H   0  0  0  0  0  0  0  0  0  0  0  0
    3.3575   -0.6573   -0.8398 H   0  0  0  0  0  0  0  0  0  0  0  0
    3.3007   -2.0768    0.1950 H   0  0  0  0  0  0  0  0  0  0  0  0
    4.2024   -0.7336    2.1039 H   0  0  0  0  0  0  0  0  0  0  0  0
    4.1923    0.7198    1.1116 H   0  0  0  0  0  0  0  0  0  0  0  0
    2.9168    0.6521    3.4370 H   0  0  0  0  0  0  0  0  0  0  0  0
    0.4664   -1.1725    3.0618 H   0  0  0  0  0  0  0  0  0  0  0  0
    2.0858   -0.4881    5.5705 H   0  0  0  0  0  0  0  0  0  0  0  0
    0.3995   -0.1564    5.3723 H   0  0  0  0  0  0  0  0  0  0  0  0
    0.8737   -2.0696    6.8418 H   0  0  0  0  0  0  0  0  0  0  0  0
   -0.9201   -2.7115    4.4467 H   0  0  0  0  0  0  0  0  0  0  0  0
   -1.3310   -1.5733    5.6931 H   0  0  0  0  0  0  0  0  0  0  0  0
   -1.1395   -3.2384    6.1225 H   0  0  0  0  0  0  0  0  0  0  0  0
    2.7408   -2.7748    5.5746 H   0  0  0  0  0  0  0  0  0  0  0  0
    0.8792   -3.5044    3.3294 H   0  0  0  0  0  0  0  0  0  0  0  0
    2.4502   -5.0134    2.6204 H   0  0  0  0  0  0  0  0  0  0  0  0
    3.7819   -4.0429    3.1438 H   0  0  0  0  0  0  0  0  0  0  0  0
    4.6411   -5.5359    6.2196 H   0  0  0  0  0  0  0  0  0  0  0  0
    4.5380   -3.9028    5.5903 H   0  0  0  0  0  0  0  0  0  0  0  0
    5.1782   -5.1656    4.6013 H   0  0  0  0  0  0  0  0  0  0  0  0
    3.3655   -7.2165    5.5009 H   0  0  0  0  0  0  0  0  0  0  0  0
    3.3908   -7.0266    2.4741 H   0  0  0  0  0  0  0  0  0  0  0  0
    4.7962   -6.8999    3.4565 H   0  0  0  0  0  0  0  0  0  0  0  0
    4.3738   -9.1514    2.4314 H   0  0  0  0  0  0  0  0  0  0  0  0
    4.9913  -10.1534    4.3291 H   0  0  0  0  0  0  0  0  0  0  0  0
    2.1701  -10.1983    1.4278 H   0  0  0  0  0  0  0  0  0  0  0  0
   -0.5386   -9.3331    4.4051 H   0  0  0  0  0  0  0  0  0  0  0  0
    0.3009  -10.7869    4.8082 H   0  0  0  0  0  0  0  0  0  0  0  0
    1.3488   -9.7608    6.7193 H   0  0  0  0  0  0  0  0  0  0  0  0
    2.9625   -9.1189    6.4598 H   0  0  0  0  0  0  0  0  0  0  0  0
    2.5180  -10.7019    5.9009 H   0  0  0  0  0  0  0  0  0  0  0  0
   -0.2446   -7.5697    3.1475 H   0  0  0  0  0  0  0  0  0  0  0  0
    1.2836   -7.6197    2.3096 H   0  0  0  0  0  0  0  0  0  0  0  0
    0.6902   -6.1307    3.0002 H   0  0  0  0  0  0  0  0  0  0  0  0
   -0.4516   -7.3066    5.4735 H   0  0  0  0  0  0  0  0  0  0  0  0
    1.0017   -8.2567    6.9759 H   0  0  0  0  0  0  0  0  0  0  0  0
    0.0006   -5.0691    4.7327 H   0  0  0  0  0  0  0  0  0  0  0  0
   -0.1479   -5.1075    6.4451 H   0  0  0  0  0  0  0  0  0  0  0  0
    2.6556   -5.6689    7.5891 H   0  0  0  0  0  0  0  0  0  0  0  0
    1.4719   -4.4148    7.9211 H   0  0  0  0  0  0  0  0  0  0  0  0
    3.1042   -3.9822    7.4834 H   0  0  0  0  0  0  0  0  0  0  0  0
   -0.8079    0.6184    2.2545 H   0  0  0  0  0  0  0  0  0  0  0  0
    0.1981    1.0925    0.8900 H   0  0  0  0  0  0  0  0  0  0  0  0
   -0.7218    2.2997    1.7624 H   0  0  0  0  0  0  0  0  0  0  0  0
   -0.1569    1.6031    4.6225 H   0  0  0  0  0  0  0  0  0  0  0  0
    0.1071    3.1941    3.9816 H   0  0  0  0  0  0  0  0  0  0  0  0
    1.4192    2.3792    4.8034 H   0  0  0  0  0  0  0  0  0  0  0  0
    1.2337    3.2821    1.8019 H   0  0  0  0  0  0  0  0  0  0  0  0
  1  2  1  0
  1 37  1  0
  1 38  1  0
  1 39  1  0
  2  3  1  0
  2 40  1  0
  2 41  1  0
  3  4  1  0
  4  5  1  0
  4 33  1  0
  4 42  1  1
  5 32  1  0
  5  6  1  0
  5 43  1  6
  6  7  1  0
  6 44  1  0
  6 45  1  0
  7  8  1  0
  7  9  1  0
  7 46  1  1
  8 47  1  0
  8 48  1  0
  8 49  1  0
  9 30  1  0
  9 10  1  0
  9 50  1  1
 10 11  1  0
 10 32  1  0
 10 51  1  6
 11 12  1  0
 11 52  1  0
 11 53  1  0
 12 30  1  0
 12 13  1  1
 12 14  1  0
 13 54  1  0
 13 55  1  0
 13 56  1  0
 14 25  1  0
 14 15  1  0
 14 57  1  1
 15 16  1  0
 15 58  1  0
 15 59  1  0
 16 17  1  0
 16 18  1  0
 16 60  1  6
 17 61  1  0
 18 20  1  0
 18 23  1  0
 18 19  1  1
 19 20  1  0
 20 21  1  0
 20 62  1  6
 21 22  1  0
 22 23  1  0
 22 63  1  0
 22 64  1  0
 23 24  1  1
 23 25  1  0
 24 65  1  0
 24 66  1  0
 24 67  1  0
 25 26  1  6
 25 27  1  0
 26 68  1  0
 26 69  1  0
 26 70  1  0
 27 28  1  0
 27 29  1  0
 27 71  1  6
 28 72  1  0
 29 30  1  0
 29 73  1  0
 29 74  1  0
 30 31  1  1
 31 75  1  0
 31 76  1  0
 31 77  1  0
 33 34  1  0
 33 35  1  0
 33 36  1  0
 34 78  1  0
 34 79  1  0
 34 80  1  0
 35 81  1  0
 35 82  1  0
 35 83  1  0
 36 84  1  0
M  END
>  <i_m_ct_stereo_status>  (353) 
1

>  <s_m_source_file>  (353) 
/var/tmp/pbs.5076255.sched01/tmporjl5eer/117expd_qi0.sdf

>  <i_m_source_file_index>  (353) 
33

>  <i_lp_mmshare_version>  (353) 
48012

>  <i_f3d_flags>  (353) 
0

>  <s_epik_input>  (353) 
W0NIM11bQ0gyXU9bQ0BASF0oQyhbQ0gzXSkoW0NIM10pW09IXSlbQ0BIXShbQ0gyXVtDQEhdMVtDSDNdKU9bQ0BASF0oW0NIMl0yKVtDQEBIXTFbQ0BAXShbQ0gzXSkoW0NIMl1bQ0BASF0zW09IXSlbQ0BAXTIoW0NIM10pW0NASF0oW0NIMl1bQ0BIXTRbT0hdKVtDQEBdMyhbQ0gzXSlbQ0BAXTUoW0NIM10pW0NIMl1PW0NAQEhdKFtDQEBdNDU2KU82

>  <s_epik_cmdline>  (353) 
J2VwaWtfcHl0aG9uJywgJy1waHQnLCAnMi4wJywgJy1waCcsICc3LjAnLCAnLXRuJywgJzgnLCAnLW1hJywgJzIwMCcsICctaW1hZScsICc8aW5maWxlLm1hZT4nLCAnLW9tYWUnLCAnPG91dGZpbGUubWFlPic=

>  <r_lp_tautomer_probability>  (353) 
1

>  <r_epik_Ionization_Penalty>  (353) 
4.37376e-07

>  <r_epik_Ionization_Penalty_Charging>  (353) 
0

>  <r_epik_Ionization_Penalty_Neutral>  (353) 
4.37376e-07

>  <r_epik_State_Penalty>  (353) 
-0

>  <r_epik_Charging_Adjusted_Penalty>  (353) 
0

>  <i_epik_Tot_Q>  (353) 
0

>  <i_epik_Tot_abs_Q>  (353) 
0

>  <s_epik_Chemistry_Notes>  (353) 
This compound contains an acetal/aminal-like group ( X-CH(R)-Y where X, Y are N, S, or O) that may be acid/base labile, releasing an aldehyde.

>  <s_lp_Force_Field>  (353) 
OPLS3e

>  <r_lp_Energy>  (353) 
77.5525

>  <b_lp_Chiralities_Consistent>  (353) 
1

>  <s_lp_Variant>  (353) 
119:0-1

>  <s_i_glide_gridfile>  (353) 
pfpi4k_grid

>  <i_i_glide_lignum>  (353) 
33

>  <i_i_glide_rotatable_bonds>  (353) 
7

>  <r_i_docking_score>  (353) 
-1.52151

>  <r_i_glide_ligand_efficiency>  (353) 
-0.0422643

>  <r_i_glide_ligand_efficiency_sa>  (353) 
-0.139554

>  <r_i_glide_ligand_efficiency_ln>  (353) 
-0.331953

>  <r_i_glide_gscore>  (353) 
-1.52151

>  <r_i_glide_lipo>  (353) 
-0.0241701

>  <r_i_glide_hbond>  (353) 
0

>  <r_i_glide_metal>  (353) 
-0

>  <r_i_glide_rewards>  (353) 
-0.145642

>  <r_i_glide_evdw>  (353) 
-24.2013

>  <r_i_glide_ecoul>  (353) 
-2.52678

>  <r_i_glide_erotb>  (353) 
0.237379

>  <r_i_glide_esite>  (353) 
0

>  <r_i_glide_emodel>  (353) 
-26.1207

>  <r_i_glide_energy>  (353) 
-26.728

>  <r_i_glide_einternal>  (353) 
5.99238

>  <r_i_glide_intrahb_reward>  (353) 
-0

>  <i_i_glide_confnum>  (353) 
2

>  <i_i_glide_posenum>  (353) 
28

>  <r_i_glide_eff_state_penalty>  (353) 
0

>  <ligand_id>  (353) 
119

>  <original_smiles>  (353) 
CCOC(C1CC(C)C2C(CC3(C)C4CC(O)C56OC5OCC6(C)C4(C)C(O)CC23C)O1)C(C)(C)O

>  <smiles>  (353) 
[H]OC1([H])C([H])([H])C2([H])C3(C([H])([H])[H])C([H])([H])C4([H])OC([H])(C([H])(OC([H])([H])C([H])([H])[H])C(O[H])(C([H])([H])[H])C([H])([H])[H])C([H])([H])C([H])(C([H])([H])[H])C4([H])C3(C([H])([H])[H])C([H])([H])C([H])(O[H])C2(C([H])([H])[H])C2(C([H])([H])[H])C([H])([H])OC3([H])OC312

$$$$
120:0:0
     RDKit          3D

 40 44  0  0  1  0  0  0  0  0999 V2000
    4.3997   -3.6415   -3.5536 C   0  0  0  0  0  0  0  0  0  0  0  0
    4.7890   -3.2321   -2.2673 C   0  0  0  0  0  0  0  0  0  0  0  0
    4.2556   -2.0381   -1.7377 C   0  0  0  0  0  0  0  0  0  0  0  0
    4.6211   -1.5718   -0.3916 C   0  0  0  0  0  0  0  0  0  0  0  0
    5.9363   -1.7445    0.0792 C   0  0  0  0  0  0  0  0  0  0  0  0
    6.3067   -1.2939    1.3552 C   0  0  0  0  0  0  0  0  0  0  0  0
    5.3802   -0.6756    2.2111 C   0  0  0  0  0  0  0  0  0  0  0  0
    5.7572   -0.2516    3.4318 N   0  0  0  0  0  0  0  0  0  0  0  0
    4.8372    0.3270    4.1854 C   0  0  0  0  0  0  0  0  0  0  0  0
    3.5704    0.5449    3.8558 N   0  0  0  0  0  0  0  0  0  0  0  0
    3.1444    0.1298    2.6421 C   0  0  0  0  0  0  0  0  0  0  0  0
    1.7987    0.3182    2.2768 N   0  0  0  0  0  0  0  0  0  0  0  0
    0.7483    0.9863    2.9389 C   0  0  0  0  0  0  0  0  0  0  0  0
   -0.3187    1.4643    2.1330 C   0  0  0  0  0  0  0  0  0  0  0  0
   -1.4387    2.1103    2.7015 C   0  0  0  0  0  0  0  0  0  0  0  0
   -1.4751    2.2578    4.0941 C   0  0  0  0  0  0  0  0  0  0  0  0
   -0.4514    1.7971    4.8913 C   0  0  0  0  0  0  0  0  0  0  0  0
    0.6790    1.1618    4.3491 C   0  0  0  0  0  0  0  0  0  0  0  0
   -0.7589    2.0202    6.1946 O   0  0  0  0  0  0  0  0  0  0  0  0
   -2.0576    2.5542    6.1954 C   0  0  0  0  0  0  0  0  0  0  0  0
   -2.4486    2.8009    4.8694 O   0  0  0  0  0  0  0  0  0  0  0  0
    4.0507   -0.5011    1.7524 C   0  0  0  0  0  0  0  0  0  0  0  0
    3.6831   -0.9457    0.4630 C   0  0  0  0  0  0  0  0  0  0  0  0
    3.3634   -1.3138   -2.5548 C   0  0  0  0  0  0  0  0  0  0  0  0
    3.0266   -1.8091   -3.8214 C   0  0  0  0  0  0  0  0  0  0  0  0
    3.5442   -2.9451   -4.3209 N   0  0  0  0  0  0  0  0  0  0  0  0
    1.5854    0.0460    1.3246 H   0  0  0  0  0  0  0  0  0  0  0  0
    4.7711   -4.5593   -3.9759 H   0  0  0  0  0  0  0  0  0  0  0  0
    5.4652   -3.8517   -1.6984 H   0  0  0  0  0  0  0  0  0  0  0  0
    6.6796   -2.2148   -0.5463 H   0  0  0  0  0  0  0  0  0  0  0  0
    7.3321   -1.4007    1.6767 H   0  0  0  0  0  0  0  0  0  0  0  0
    5.1589    0.6693    5.1592 H   0  0  0  0  0  0  0  0  0  0  0  0
   -0.2763    1.3430    1.0615 H   0  0  0  0  0  0  0  0  0  0  0  0
   -2.2563    2.4530    2.0887 H   0  0  0  0  0  0  0  0  0  0  0  0
    1.4313    0.7978    5.0293 H   0  0  0  0  0  0  0  0  0  0  0  0
   -2.7256    1.7980    6.6119 H   0  0  0  0  0  0  0  0  0  0  0  0
   -2.1171    3.4610    6.8044 H   0  0  0  0  0  0  0  0  0  0  0  0
    2.6708   -0.8171    0.1166 H   0  0  0  0  0  0  0  0  0  0  0  0
    2.9005   -0.3963   -2.2347 H   0  0  0  0  0  0  0  0  0  0  0  0
    2.3324   -1.2691   -4.4437 H   0  0  0  0  0  0  0  0  0  0  0  0
  1 26  2  0
  1  2  1  0
  1 28  1  0
  2  3  2  0
  2 29  1  0
  3 24  1  0
  3  4  1  0
  4 23  1  0
  4  5  2  0
  5 30  1  0
  5  6  1  0
  6 31  1  0
  6  7  2  0
  7 22  1  0
  7  8  1  0
  8  9  2  0
  9 32  1  0
  9 10  1  0
 10 11  2  0
 11 12  1  0
 11 22  1  0
 12 13  1  0
 12 27  1  0
 13 18  1  0
 13 14  2  0
 14 15  1  0
 14 33  1  0
 15 16  2  0
 15 34  1  0
 16 21  1  0
 16 17  1  0
 17 18  2  0
 17 19  1  0
 18 35  1  0
 19 20  1  0
 20 21  1  0
 20 36  1  0
 20 37  1  0
 22 23  2  0
 23 38  1  0
 24 25  2  0
 24 39  1  0
 25 26  1  0
 25 40  1  0
M  END
>  <i_m_ct_stereo_status>  (354) 
1

>  <s_m_source_file>  (354) 
/var/tmp/pbs.5076255.sched01/tmporjl5eer/117expd_qi0.sdf

>  <i_m_source_file_index>  (354) 
34

>  <i_lp_mmshare_version>  (354) 
48012

>  <i_f3d_flags>  (354) 
0

>  <s_epik_input>  (354) 
W2NIXTFbY0hdbltjSF1bY0hdYzEtYyhbY0hdW2NIXTIpW2NIXWMoYzIzKWMoXG5bY0hdW25IXTMpPU5cYyhbY0hdW2NIXTQpW2NIXWMoYzQ1KU9bQ0gyXU81

>  <s_epik_cmdline>  (354) 
J2VwaWtfcHl0aG9uJywgJy1waHQnLCAnMi4wJywgJy1waCcsICc3LjAnLCAnLXRuJywgJzgnLCAnLW1hJywgJzIwMCcsICctaW1hZScsICc8aW5maWxlLm1hZT4nLCAnLW9tYWUnLCAnPG91dGZpbGUubWFlPic=

>  <r_lp_tautomer_probability>  (354) 
1

>  <r_epik_Ionization_Penalty>  (354) 
0.00600474

>  <r_epik_Ionization_Penalty_Charging>  (354) 
0

>  <r_epik_Ionization_Penalty_Neutral>  (354) 
0.00600474

>  <r_epik_State_Penalty>  (354) 
-0

>  <r_epik_Charging_Adjusted_Penalty>  (354) 
0

>  <i_epik_Tot_Q>  (354) 
0

>  <i_epik_Tot_abs_Q>  (354) 
0

>  <s_epik_Chemistry_Notes>  (354) 
This compound contains an acetal/aminal-like group ( X-CH(R)-Y where X, Y are N, S, or O) that may be acid/base labile, releasing an aldehyde.

>  <s_lp_Force_Field>  (354) 
OPLS3e

>  <r_lp_Energy>  (354) 
50.6081

>  <b_lp_Chiralities_Consistent>  (354) 
1

>  <s_lp_Variant>  (354) 
120:0-1

>  <s_i_glide_gridfile>  (354) 
pfpi4k_grid

>  <i_i_glide_lignum>  (354) 
34

>  <i_i_glide_rotatable_bonds>  (354) 
3

>  <r_i_docking_score>  (354) 
-3.86816

>  <r_i_glide_ligand_efficiency>  (354) 
-0.148775

>  <r_i_glide_ligand_efficiency_sa>  (354) 
-0.440747

>  <r_i_glide_ligand_efficiency_ln>  (354) 
-0.908425

>  <r_i_glide_gscore>  (354) 
-3.86816

>  <r_i_glide_lipo>  (354) 
-0.680714

>  <r_i_glide_hbond>  (354) 
-0.266985

>  <r_i_glide_metal>  (354) 
-0

>  <r_i_glide_rewards>  (354) 
-1.26296

>  <r_i_glide_evdw>  (354) 
-32.3285

>  <r_i_glide_ecoul>  (354) 
-3.29797

>  <r_i_glide_erotb>  (354) 
0.485344

>  <r_i_glide_esite>  (354) 
-0.031723

>  <r_i_glide_emodel>  (354) 
-44.4072

>  <r_i_glide_energy>  (354) 
-35.6265

>  <r_i_glide_einternal>  (354) 
0.235144

>  <r_i_glide_intrahb_reward>  (354) 
-0

>  <i_i_glide_confnum>  (354) 
4

>  <i_i_glide_posenum>  (354) 
22

>  <r_i_glide_eff_state_penalty>  (354) 
0

>  <ligand_id>  (354) 
120

>  <original_smiles>  (354) 
c1cc(-c2ccc3[nH]cnc(=Nc4ccc5c(c4)OCO5)c3c2)ccn1

>  <smiles>  (354) 
[H]c1nc(N([H])c2c([H])c([H])c3c(c2[H])OC([H])([H])O3)c2c([H])c(-c3c([H])c([H])nc([H])c3[H])c([H])c([H])c2n1

$$$$
120:0:1
     RDKit          3D

 40 44  0  0  1  0  0  0  0  0999 V2000
    4.6120   -3.7487   -3.5814 C   0  0  0  0  0  0  0  0  0  0  0  0
    4.9991   -3.3169   -2.3070 C   0  0  0  0  0  0  0  0  0  0  0  0
    4.3507   -2.1940   -1.7448 C   0  0  0  0  0  0  0  0  0  0  0  0
    4.7016   -1.7041   -0.4015 C   0  0  0  0  0  0  0  0  0  0  0  0
    6.0268   -1.8057    0.0634 C   0  0  0  0  0  0  0  0  0  0  0  0
    6.3829   -1.3253    1.3303 C   0  0  0  0  0  0  0  0  0  0  0  0
    5.4234   -0.7427    2.1772 C   0  0  0  0  0  0  0  0  0  0  0  0
    5.7852   -0.2856    3.3870 N   0  0  0  0  0  0  0  0  0  0  0  0
    4.8400    0.2618    4.1354 C   0  0  0  0  0  0  0  0  0  0  0  0
    3.5632    0.4155    3.7976 N   0  0  0  0  0  0  0  0  0  0  0  0
    3.1531   -0.0383    2.5960 C   0  0  0  0  0  0  0  0  0  0  0  0
    1.7955    0.0988    2.2386 N   0  0  0  0  0  0  0  0  0  0  0  0
    0.7464    0.7147    2.9551 C   0  0  0  0  0  0  0  0  0  0  0  0
    0.6776    0.7026    4.3823 C   0  0  0  0  0  0  0  0  0  0  0  0
   -0.3777    1.3255    5.0772 C   0  0  0  0  0  0  0  0  0  0  0  0
   -1.3732    1.9416    4.3233 C   0  0  0  0  0  0  0  0  0  0  0  0
   -1.3355    1.9424    2.9458 C   0  0  0  0  0  0  0  0  0  0  0  0
   -0.2972    1.3349    2.2235 C   0  0  0  0  0  0  0  0  0  0  0  0
   -2.4178    2.6196    2.4787 O   0  0  0  0  0  0  0  0  0  0  0  0
   -3.0642    3.1371    3.6074 C   0  0  0  0  0  0  0  0  0  0  0  0
   -2.4562    2.6325    4.7559 O   0  0  0  0  0  0  0  0  0  0  0  0
    4.0853   -0.6420    1.7225 C   0  0  0  0  0  0  0  0  0  0  0  0
    3.7341   -1.1225    0.4473 C   0  0  0  0  0  0  0  0  0  0  0  0
    3.3491   -1.5619   -2.5118 C   0  0  0  0  0  0  0  0  0  0  0  0
    3.0313   -2.0829   -3.7702 C   0  0  0  0  0  0  0  0  0  0  0  0
    3.6603   -3.1423   -4.3078 N   0  0  0  0  0  0  0  0  0  0  0  0
    1.5577   -0.2009    1.2940 H   0  0  0  0  0  0  0  0  0  0  0  0
    5.0610   -4.6164   -4.0327 H   0  0  0  0  0  0  0  0  0  0  0  0
    5.7583   -3.8627   -1.7678 H   0  0  0  0  0  0  0  0  0  0  0  0
    6.7929   -2.2403   -0.5635 H   0  0  0  0  0  0  0  0  0  0  0  0
    7.4099   -1.3684    1.6574 H   0  0  0  0  0  0  0  0  0  0  0  0
    5.1397    0.6031    5.1108 H   0  0  0  0  0  0  0  0  0  0  0  0
    1.4145    0.2155    4.9916 H   0  0  0  0  0  0  0  0  0  0  0  0
   -0.4136    1.3400    6.1554 H   0  0  0  0  0  0  0  0  0  0  0  0
   -0.2870    1.3556    1.1380 H   0  0  0  0  0  0  0  0  0  0  0  0
   -2.9142    4.2117    3.5979 H   0  0  0  0  0  0  0  0  0  0  0  0
   -4.1334    2.9166    3.5854 H   0  0  0  0  0  0  0  0  0  0  0  0
    2.7118   -1.0460    0.1119 H   0  0  0  0  0  0  0  0  0  0  0  0
    2.8027   -0.7009   -2.1516 H   0  0  0  0  0  0  0  0  0  0  0  0
    2.2573   -1.6250   -4.3613 H   0  0  0  0  0  0  0  0  0  0  0  0
  1 26  2  0
  1  2  1  0
  1 28  1  0
  2  3  2  0
  2 29  1  0
  3 24  1  0
  3  4  1  0
  4 23  1  0
  4  5  2  0
  5 30  1  0
  5  6  1  0
  6 31  1  0
  6  7  2  0
  7 22  1  0
  7  8  1  0
  8  9  2  0
  9 32  1  0
  9 10  1  0
 10 11  2  0
 11 12  1  0
 11 22  1  0
 12 13  1  0
 12 27  1  0
 13 18  1  0
 13 14  2  0
 14 15  1  0
 14 33  1  0
 15 16  2  0
 15 34  1  0
 16 21  1  0
 16 17  1  0
 17 18  2  0
 17 19  1  0
 18 35  1  0
 19 20  1  0
 20 21  1  0
 20 36  1  0
 20 37  1  0
 22 23  2  0
 23 38  1  0
 24 25  2  0
 24 39  1  0
 25 26  1  0
 25 40  1  0
M  END
>  <i_m_ct_stereo_status>  (355) 
1

>  <s_m_source_file>  (355) 
/var/tmp/pbs.5076255.sched01/tmporjl5eer/117expd_qi0.sdf

>  <i_m_source_file_index>  (355) 
34

>  <i_lp_mmshare_version>  (355) 
48012

>  <i_f3d_flags>  (355) 
0

>  <s_epik_input>  (355) 
W2NIXTFbY0hdbltjSF1bY0hdYzEtYyhbY0hdW2NIXTIpW2NIXWMoYzIzKWMoXG5bY0hdW25IXTMpPU5cYyhbY0hdW2NIXTQpW2NIXWMoYzQ1KU9bQ0gyXU81

>  <s_epik_cmdline>  (355) 
J2VwaWtfcHl0aG9uJywgJy1waHQnLCAnMi4wJywgJy1waCcsICc3LjAnLCAnLXRuJywgJzgnLCAnLW1hJywgJzIwMCcsICctaW1hZScsICc8aW5maWxlLm1hZT4nLCAnLW9tYWUnLCAnPG91dGZpbGUubWFlPic=

>  <r_lp_tautomer_probability>  (355) 
1

>  <r_epik_Ionization_Penalty>  (355) 
0.00600474

>  <r_epik_Ionization_Penalty_Charging>  (355) 
0

>  <r_epik_Ionization_Penalty_Neutral>  (355) 
0.00600474

>  <r_epik_State_Penalty>  (355) 
-0

>  <r_epik_Charging_Adjusted_Penalty>  (355) 
0

>  <i_epik_Tot_Q>  (355) 
0

>  <i_epik_Tot_abs_Q>  (355) 
0

>  <s_epik_Chemistry_Notes>  (355) 
This compound contains an acetal/aminal-like group ( X-CH(R)-Y where X, Y are N, S, or O) that may be acid/base labile, releasing an aldehyde.

>  <s_lp_Force_Field>  (355) 
OPLS3e

>  <r_lp_Energy>  (355) 
50.6081

>  <b_lp_Chiralities_Consistent>  (355) 
1

>  <s_lp_Variant>  (355) 
120:0-1

>  <s_i_glide_gridfile>  (355) 
pfpi4k_grid

>  <i_i_glide_lignum>  (355) 
34

>  <i_i_glide_rotatable_bonds>  (355) 
3

>  <r_i_docking_score>  (355) 
-3.82886

>  <r_i_glide_ligand_efficiency>  (355) 
-0.147264

>  <r_i_glide_ligand_efficiency_sa>  (355) 
-0.436268

>  <r_i_glide_ligand_efficiency_ln>  (355) 
-0.899194

>  <r_i_glide_gscore>  (355) 
-3.82886

>  <r_i_glide_lipo>  (355) 
-0.70733

>  <r_i_glide_hbond>  (355) 
-0.262059

>  <r_i_glide_metal>  (355) 
-0

>  <r_i_glide_rewards>  (355) 
-1.16287

>  <r_i_glide_evdw>  (355) 
-33.2521

>  <r_i_glide_ecoul>  (355) 
-2.90407

>  <r_i_glide_erotb>  (355) 
0.485344

>  <r_i_glide_esite>  (355) 
-0.0837251

>  <r_i_glide_emodel>  (355) 
-43.9753

>  <r_i_glide_energy>  (355) 
-36.1562

>  <r_i_glide_einternal>  (355) 
1.83235

>  <r_i_glide_intrahb_reward>  (355) 
-0

>  <i_i_glide_confnum>  (355) 
6

>  <i_i_glide_posenum>  (355) 
37

>  <r_i_glide_eff_state_penalty>  (355) 
0

>  <ligand_id>  (355) 
120

>  <original_smiles>  (355) 
c1cc(-c2ccc3[nH]cnc(=Nc4ccc5c(c4)OCO5)c3c2)ccn1

>  <smiles>  (355) 
[H]c1nc(N([H])c2c([H])c([H])c3c(c2[H])OC([H])([H])O3)c2c([H])c(-c3c([H])c([H])nc([H])c3[H])c([H])c([H])c2n1

$$$$
120:0:2
     RDKit          3D

 40 44  0  0  1  0  0  0  0  0999 V2000
    3.9358   -0.2729   -3.2132 C   0  0  0  0  0  0  0  0  0  0  0  0
    4.7559   -0.9681   -2.3116 C   0  0  0  0  0  0  0  0  0  0  0  0
    4.6275   -2.3694   -2.1981 C   0  0  0  0  0  0  0  0  0  0  0  0
    5.4932   -3.1561   -1.2928 C   0  0  0  0  0  0  0  0  0  0  0  0
    6.8466   -2.8082   -1.1180 C   0  0  0  0  0  0  0  0  0  0  0  0
    7.6835   -3.5211   -0.2431 C   0  0  0  0  0  0  0  0  0  0  0  0
    7.1824   -4.6280    0.4693 C   0  0  0  0  0  0  0  0  0  0  0  0
    8.0016   -5.3357    1.2668 N   0  0  0  0  0  0  0  0  0  0  0  0
    7.4723   -6.3784    1.8971 C   0  0  0  0  0  0  0  0  0  0  0  0
    6.2102   -6.7911    1.8242 N   0  0  0  0  0  0  0  0  0  0  0  0
    5.3662   -6.1231    1.0100 C   0  0  0  0  0  0  0  0  0  0  0  0
    4.0352   -6.5655    0.8972 N   0  0  0  0  0  0  0  0  0  0  0  0
    3.4066   -7.6668    1.5146 C   0  0  0  0  0  0  0  0  0  0  0  0
    4.0942   -8.8828    1.7857 C   0  0  0  0  0  0  0  0  0  0  0  0
    3.4445   -9.9716    2.4012 C   0  0  0  0  0  0  0  0  0  0  0  0
    2.0951   -9.8251    2.7210 C   0  0  0  0  0  0  0  0  0  0  0  0
    1.4079   -8.6589    2.4570 C   0  0  0  0  0  0  0  0  0  0  0  0
    2.0274   -7.5646    1.8348 C   0  0  0  0  0  0  0  0  0  0  0  0
    0.1292   -8.7785    2.8980 O   0  0  0  0  0  0  0  0  0  0  0  0
    0.0728  -10.0228    3.5536 C   0  0  0  0  0  0  0  0  0  0  0  0
    1.2707  -10.7136    3.3277 O   0  0  0  0  0  0  0  0  0  0  0  0
    5.8219   -4.9968    0.2870 C   0  0  0  0  0  0  0  0  0  0  0  0
    4.9927   -4.2680   -0.5904 C   0  0  0  0  0  0  0  0  0  0  0  0
    3.6392   -2.9869   -2.9869 C   0  0  0  0  0  0  0  0  0  0  0  0
    2.8527   -2.2013   -3.8375 C   0  0  0  0  0  0  0  0  0  0  0  0
    3.0162   -0.8727   -3.9811 N   0  0  0  0  0  0  0  0  0  0  0  0
    3.4371   -5.9911    0.3169 H   0  0  0  0  0  0  0  0  0  0  0  0
    4.0336    0.7936   -3.3149 H   0  0  0  0  0  0  0  0  0  0  0  0
    5.4675   -0.4235   -1.7077 H   0  0  0  0  0  0  0  0  0  0  0  0
    7.2594   -1.9934   -1.6851 H   0  0  0  0  0  0  0  0  0  0  0  0
    8.7243   -3.2383   -0.1355 H   0  0  0  0  0  0  0  0  0  0  0  0
    8.1338   -6.9377    2.5410 H   0  0  0  0  0  0  0  0  0  0  0  0
    5.1234   -9.0299    1.5087 H   0  0  0  0  0  0  0  0  0  0  0  0
    3.9606  -10.8966    2.6024 H   0  0  0  0  0  0  0  0  0  0  0  0
    1.4651   -6.6651    1.6314 H   0  0  0  0  0  0  0  0  0  0  0  0
   -0.0307   -9.8699    4.6298 H   0  0  0  0  0  0  0  0  0  0  0  0
   -0.7692  -10.6219    3.2080 H   0  0  0  0  0  0  0  0  0  0  0  0
    3.9682   -4.5583   -0.7332 H   0  0  0  0  0  0  0  0  0  0  0  0
    3.4725   -4.0523   -2.9552 H   0  0  0  0  0  0  0  0  0  0  0  0
    2.0556   -2.6522   -4.3983 H   0  0  0  0  0  0  0  0  0  0  0  0
  1 26  2  0
  1  2  1  0
  1 28  1  0
  2  3  2  0
  2 29  1  0
  3 24  1  0
  3  4  1  0
  4 23  1  0
  4  5  2  0
  5 30  1  0
  5  6  1  0
  6 31  1  0
  6  7  2  0
  7 22  1  0
  7  8  1  0
  8  9  2  0
  9 32  1  0
  9 10  1  0
 10 11  2  0
 11 12  1  0
 11 22  1  0
 12 13  1  0
 12 27  1  0
 13 18  1  0
 13 14  2  0
 14 15  1  0
 14 33  1  0
 15 16  2  0
 15 34  1  0
 16 21  1  0
 16 17  1  0
 17 18  2  0
 17 19  1  0
 18 35  1  0
 19 20  1  0
 20 21  1  0
 20 36  1  0
 20 37  1  0
 22 23  2  0
 23 38  1  0
 24 25  2  0
 24 39  1  0
 25 26  1  0
 25 40  1  0
M  END
>  <i_m_ct_stereo_status>  (356) 
1

>  <s_m_source_file>  (356) 
/var/tmp/pbs.5076255.sched01/tmporjl5eer/117expd_qi0.sdf

>  <i_m_source_file_index>  (356) 
34

>  <i_lp_mmshare_version>  (356) 
48012

>  <i_f3d_flags>  (356) 
0

>  <s_epik_input>  (356) 
W2NIXTFbY0hdbltjSF1bY0hdYzEtYyhbY0hdW2NIXTIpW2NIXWMoYzIzKWMoXG5bY0hdW25IXTMpPU5cYyhbY0hdW2NIXTQpW2NIXWMoYzQ1KU9bQ0gyXU81

>  <s_epik_cmdline>  (356) 
J2VwaWtfcHl0aG9uJywgJy1waHQnLCAnMi4wJywgJy1waCcsICc3LjAnLCAnLXRuJywgJzgnLCAnLW1hJywgJzIwMCcsICctaW1hZScsICc8aW5maWxlLm1hZT4nLCAnLW9tYWUnLCAnPG91dGZpbGUubWFlPic=

>  <r_lp_tautomer_probability>  (356) 
1

>  <r_epik_Ionization_Penalty>  (356) 
0.00600474

>  <r_epik_Ionization_Penalty_Charging>  (356) 
0

>  <r_epik_Ionization_Penalty_Neutral>  (356) 
0.00600474

>  <r_epik_State_Penalty>  (356) 
-0

>  <r_epik_Charging_Adjusted_Penalty>  (356) 
0

>  <i_epik_Tot_Q>  (356) 
0

>  <i_epik_Tot_abs_Q>  (356) 
0

>  <s_epik_Chemistry_Notes>  (356) 
This compound contains an acetal/aminal-like group ( X-CH(R)-Y where X, Y are N, S, or O) that may be acid/base labile, releasing an aldehyde.

>  <s_lp_Force_Field>  (356) 
OPLS3e

>  <r_lp_Energy>  (356) 
50.6081

>  <b_lp_Chiralities_Consistent>  (356) 
1

>  <s_lp_Variant>  (356) 
120:0-1

>  <s_i_glide_gridfile>  (356) 
pfpi4k_grid

>  <i_i_glide_lignum>  (356) 
34

>  <i_i_glide_rotatable_bonds>  (356) 
3

>  <r_i_docking_score>  (356) 
-3.69853

>  <r_i_glide_ligand_efficiency>  (356) 
-0.142251

>  <r_i_glide_ligand_efficiency_sa>  (356) 
-0.421419

>  <r_i_glide_ligand_efficiency_ln>  (356) 
-0.868588

>  <r_i_glide_gscore>  (356) 
-3.69853

>  <r_i_glide_lipo>  (356) 
-1.1437

>  <r_i_glide_hbond>  (356) 
0

>  <r_i_glide_metal>  (356) 
-0

>  <r_i_glide_rewards>  (356) 
-1.07488

>  <r_i_glide_evdw>  (356) 
-34.852

>  <r_i_glide_ecoul>  (356) 
-1.16045

>  <r_i_glide_erotb>  (356) 
0.485344

>  <r_i_glide_esite>  (356) 
-0.0486315

>  <r_i_glide_emodel>  (356) 
-43.6054

>  <r_i_glide_energy>  (356) 
-36.0124

>  <r_i_glide_einternal>  (356) 
1.75595

>  <r_i_glide_intrahb_reward>  (356) 
-0

>  <i_i_glide_confnum>  (356) 
6

>  <i_i_glide_posenum>  (356) 
2

>  <r_i_glide_eff_state_penalty>  (356) 
0

>  <ligand_id>  (356) 
120

>  <original_smiles>  (356) 
c1cc(-c2ccc3[nH]cnc(=Nc4ccc5c(c4)OCO5)c3c2)ccn1

>  <smiles>  (356) 
[H]c1nc(N([H])c2c([H])c([H])c3c(c2[H])OC([H])([H])O3)c2c([H])c(-c3c([H])c([H])nc([H])c3[H])c([H])c([H])c2n1

$$$$
121:0:0
     RDKit          3D

 48 52  0  0  1  0  0  0  0  0999 V2000
    2.7576   -2.2503   -3.6907 C   0  0  0  0  0  0  0  0  0  0  0  0
    3.3736   -2.6779   -2.5819 C   0  0  0  0  0  0  0  0  0  0  0  0
    2.7431   -3.4603   -1.5181 C   0  0  0  0  0  0  0  0  0  0  0  0
    1.5576   -3.7940   -1.4459 O   0  0  0  0  0  0  0  0  0  0  0  0
    3.8038   -3.8506   -0.4755 C   0  0  1  0  0  0  0  0  0  0  0  0
    5.0372   -3.8834   -1.4205 C   0  0  0  0  0  0  0  0  0  0  0  0
    4.8473   -2.6200   -2.2740 C   0  0  2  0  0  0  0  0  0  0  0  0
    5.1697   -1.3628   -1.4407 C   0  0  0  0  0  0  0  0  0  0  0  0
    5.0462   -1.5850    0.0863 C   0  0  0  0  0  0  0  0  0  0  0  0
    3.9482   -2.6042    0.5263 C   0  0  2  0  0  0  0  0  0  0  0  0
    4.1716   -3.1551    1.9353 C   0  0  2  0  0  0  0  0  0  0  0  0
    4.8164   -2.4571    3.1358 C   0  0  0  0  0  0  0  0  0  0  0  0
    5.0393   -3.5597    4.2246 C   0  0  0  0  0  0  0  0  0  0  0  0
    5.4200   -4.9890    3.6802 C   0  0  1  0  0  0  0  0  0  0  0  0
    4.8030   -6.0105    4.4318 O   0  0  0  0  0  0  0  0  0  0  0  0
    5.2671   -5.2039    2.1204 C   0  0  2  0  0  0  0  0  0  0  0  0
    6.4536   -5.9666    1.4616 C   0  0  0  0  0  0  0  0  0  0  0  0
    7.7200   -5.4779    1.8757 O   0  0  0  0  0  0  0  0  0  0  0  0
    5.3099   -3.9360    1.5943 O   0  0  0  0  0  0  0  0  0  0  0  0
    3.8842   -5.7493    1.5869 C   0  0  2  0  0  0  0  0  0  0  0  0
    3.8637   -7.1628    1.6496 O   0  0  0  0  0  0  0  0  0  0  0  0
    3.5155   -5.3386    0.0916 C   0  0  0  0  0  0  0  0  0  0  0  0
    2.8987   -5.2427    2.4112 O   0  0  0  0  0  0  0  0  0  0  0  0
    2.8244   -3.8329    2.3682 C   0  0  0  0  0  0  0  0  0  0  0  0
    3.2845   -1.7322   -4.4742 H   0  0  0  0  0  0  0  0  0  0  0  0
    1.7032   -2.4069   -3.8406 H   0  0  0  0  0  0  0  0  0  0  0  0
    5.9945   -3.9092   -0.8996 H   0  0  0  0  0  0  0  0  0  0  0  0
    5.0080   -4.7591   -2.0714 H   0  0  0  0  0  0  0  0  0  0  0  0
    5.4322   -2.6551   -3.1951 H   0  0  0  0  0  0  0  0  0  0  0  0
    6.1947   -1.0651   -1.6504 H   0  0  0  0  0  0  0  0  0  0  0  0
    4.5394   -0.5302   -1.7544 H   0  0  0  0  0  0  0  0  0  0  0  0
    6.0180   -1.9254    0.4486 H   0  0  0  0  0  0  0  0  0  0  0  0
    4.8699   -0.6266    0.5771 H   0  0  0  0  0  0  0  0  0  0  0  0
    3.0210   -2.0290    0.5368 H   0  0  0  0  0  0  0  0  0  0  0  0
    5.7773   -2.0119    2.8551 H   0  0  0  0  0  0  0  0  0  0  0  0
    4.1891   -1.6531    3.5226 H   0  0  0  0  0  0  0  0  0  0  0  0
    5.8028   -3.2244    4.9287 H   0  0  0  0  0  0  0  0  0  0  0  0
    4.1359   -3.6437    4.8294 H   0  0  0  0  0  0  0  0  0  0  0  0
    6.4730   -5.0688    3.9401 H   0  0  0  0  0  0  0  0  0  0  0  0
    5.2565   -6.8252    4.2714 H   0  0  0  0  0  0  0  0  0  0  0  0
    6.4166   -7.0140    1.7463 H   0  0  0  0  0  0  0  0  0  0  0  0
    6.3928   -5.9303    0.3750 H   0  0  0  0  0  0  0  0  0  0  0  0
    8.3881   -6.1081    1.6385 H   0  0  0  0  0  0  0  0  0  0  0  0
    4.0320   -7.4109    2.5431 H   0  0  0  0  0  0  0  0  0  0  0  0
    2.4624   -5.5911   -0.0219 H   0  0  0  0  0  0  0  0  0  0  0  0
    4.0270   -6.0516   -0.5503 H   0  0  0  0  0  0  0  0  0  0  0  0
    2.4869   -3.4769    3.3394 H   0  0  0  0  0  0  0  0  0  0  0  0
    2.0052   -3.5700    1.7019 H   0  0  0  0  0  0  0  0  0  0  0  0
  1  2  2  0
  1 25  1  0
  1 26  1  0
  2  7  1  0
  2  3  1  0
  3  4  2  0
  5  3  1  6
  5 10  1  0
  5 22  1  0
  5  6  1  0
  6  7  1  0
  6 27  1  0
  6 28  1  0
  7  8  1  0
  7 29  1  6
  8  9  1  0
  8 30  1  0
  8 31  1  0
  9 10  1  0
  9 32  1  0
  9 33  1  0
 10 11  1  0
 10 34  1  1
 11 19  1  0
 11 24  1  0
 11 12  1  1
 12 13  1  0
 12 35  1  0
 12 36  1  0
 13 14  1  0
 13 37  1  0
 13 38  1  0
 14 15  1  0
 14 16  1  0
 14 39  1  6
 15 40  1  0
 16 17  1  6
 16 19  1  0
 16 20  1  0
 17 18  1  0
 17 41  1  0
 17 42  1  0
 18 43  1  0
 20 21  1  6
 20 22  1  0
 20 23  1  0
 21 44  1  0
 22 45  1  0
 22 46  1  0
 23 24  1  0
 24 47  1  0
 24 48  1  0
M  END
>  <i_m_ct_stereo_status>  (357) 
1

>  <s_m_source_file>  (357) 
/var/tmp/pbs.5076255.sched01/tmporjl5eer/117expd_qi0.sdf

>  <i_m_source_file_index>  (357) 
35

>  <i_lp_mmshare_version>  (357) 
48012

>  <i_f3d_flags>  (357) 
0

>  <s_epik_input>  (357) 
Tz1DMUMoPVtDSDJdKVtDQEhdKFtDSDJdMilbQ0gyXVtDSDJdW0NAQEhdKFtDQEBdMTIzKVtDQF00NVtDSDJdW0NIMl1bQ0BASF0oW09IXSlbQ0BAXShPNCkoW0NIMl1bT0hdKVtDQF0oW09IXSkoW0NIMl0zKU9bQ0gyXTU=

>  <s_epik_cmdline>  (357) 
J2VwaWtfcHl0aG9uJywgJy1waHQnLCAnMi4wJywgJy1waCcsICc3LjAnLCAnLXRuJywgJzgnLCAnLW1hJywgJzIwMCcsICctaW1hZScsICc8aW5maWxlLm1hZT4nLCAnLW9tYWUnLCAnPG91dGZpbGUubWFlPic=

>  <r_lp_tautomer_probability>  (357) 
1

>  <r_epik_Ionization_Penalty>  (357) 
9.54862e-07

>  <r_epik_Ionization_Penalty_Charging>  (357) 
0

>  <r_epik_Ionization_Penalty_Neutral>  (357) 
9.54862e-07

>  <r_epik_State_Penalty>  (357) 
-0

>  <r_epik_Charging_Adjusted_Penalty>  (357) 
0

>  <i_epik_Tot_Q>  (357) 
0

>  <i_epik_Tot_abs_Q>  (357) 
0

>  <s_lp_Force_Field>  (357) 
OPLS3e

>  <r_lp_Energy>  (357) 
84.0636

>  <b_lp_Chiralities_Consistent>  (357) 
1

>  <s_lp_Variant>  (357) 
121:0-1

>  <s_i_glide_gridfile>  (357) 
pfpi4k_grid

>  <i_i_glide_lignum>  (357) 
35

>  <i_i_glide_rotatable_bonds>  (357) 
4

>  <r_i_docking_score>  (357) 
-2.80774

>  <r_i_glide_ligand_efficiency>  (357) 
-0.116989

>  <r_i_glide_ligand_efficiency_sa>  (357) 
-0.337455

>  <r_i_glide_ligand_efficiency_ln>  (357) 
-0.67202

>  <r_i_glide_gscore>  (357) 
-2.80774

>  <r_i_glide_lipo>  (357) 
-0.519432

>  <r_i_glide_hbond>  (357) 
-0.0133739

>  <r_i_glide_metal>  (357) 
-0

>  <r_i_glide_rewards>  (357) 
-1.29592

>  <r_i_glide_evdw>  (357) 
-21.083

>  <r_i_glide_ecoul>  (357) 
-0.611766

>  <r_i_glide_erotb>  (357) 
0.166906

>  <r_i_glide_esite>  (357) 
0

>  <r_i_glide_emodel>  (357) 
-23.5229

>  <r_i_glide_energy>  (357) 
-21.6948

>  <r_i_glide_einternal>  (357) 
3.7442

>  <r_i_glide_intrahb_reward>  (357) 
-0

>  <i_i_glide_confnum>  (357) 
5

>  <i_i_glide_posenum>  (357) 
38

>  <r_i_glide_eff_state_penalty>  (357) 
0

>  <ligand_id>  (357) 
121

>  <original_smiles>  (357) 
C=C1C(=O)C23CC1CCC2C12CCC(O)C(CO)(O1)C(O)(C3)OC2

>  <smiles>  (357) 
[H]OC([H])([H])C12OC3(C([H])([H])OC1(O[H])C([H])([H])C14C(=O)C(=C([H])[H])C([H])(C([H])([H])C([H])([H])C31[H])C4([H])[H])C([H])([H])C([H])([H])C2([H])O[H]

$$$$
121:0:1
     RDKit          3D

 48 52  0  0  1  0  0  0  0  0999 V2000
    3.0292   -1.7070   -2.7663 C   0  0  0  0  0  0  0  0  0  0  0  0
    3.6609   -2.3636   -1.7788 C   0  0  0  0  0  0  0  0  0  0  0  0
    3.0727   -3.4501   -0.9944 C   0  0  0  0  0  0  0  0  0  0  0  0
    1.9104   -3.8558   -1.0387 O   0  0  0  0  0  0  0  0  0  0  0  0
    4.1422   -4.0221   -0.0411 C   0  0  1  0  0  0  0  0  0  0  0  0
    5.3991   -3.6728   -0.8834 C   0  0  0  0  0  0  0  0  0  0  0  0
    5.1059   -2.2467   -1.3724 C   0  0  2  0  0  0  0  0  0  0  0  0
    5.2538   -1.2409   -0.2086 C   0  0  0  0  0  0  0  0  0  0  0  0
    5.1084   -1.8896    1.1915 C   0  0  0  0  0  0  0  0  0  0  0  0
    4.1216   -3.0958    1.2693 C   0  0  2  0  0  0  0  0  0  0  0  0
    4.3617   -3.9869    2.4900 C   0  0  2  0  0  0  0  0  0  0  0  0
    4.8853   -3.5847    3.8721 C   0  0  0  0  0  0  0  0  0  0  0  0
    5.1964   -4.9155    4.6326 C   0  0  0  0  0  0  0  0  0  0  0  0
    5.7555   -6.0948    3.7517 C   0  0  1  0  0  0  0  0  0  0  0  0
    5.2446   -7.3353    4.1917 O   0  0  0  0  0  0  0  0  0  0  0  0
    5.6689   -5.8962    2.1799 C   0  0  2  0  0  0  0  0  0  0  0  0
    6.9525   -6.3263    1.4115 C   0  0  0  0  0  0  0  0  0  0  0  0
    8.1569   -5.8760    2.0119 O   0  0  0  0  0  0  0  0  0  0  0  0
    5.5897   -4.5339    2.0173 O   0  0  0  0  0  0  0  0  0  0  0  0
    4.3693   -6.3995    1.4342 C   0  0  2  0  0  0  0  0  0  0  0  0
    4.4979   -7.7652    1.1237 O   0  0  0  0  0  0  0  0  0  0  0  0
    4.0034   -5.6274    0.0831 C   0  0  0  0  0  0  0  0  0  0  0  0
    3.3094   -6.2361    2.3064 O   0  0  0  0  0  0  0  0  0  0  0  0
    3.0836   -4.8871    2.6405 C   0  0  0  0  0  0  0  0  0  0  0  0
    3.5157   -0.9431   -3.3455 H   0  0  0  0  0  0  0  0  0  0  0  0
    2.0016   -1.9213   -2.9967 H   0  0  0  0  0  0  0  0  0  0  0  0
    6.3401   -3.7491   -0.3332 H   0  0  0  0  0  0  0  0  0  0  0  0
    5.4739   -4.3325   -1.7493 H   0  0  0  0  0  0  0  0  0  0  0  0
    5.7145   -1.9654   -2.2335 H   0  0  0  0  0  0  0  0  0  0  0  0
    6.2394   -0.7777   -0.2586 H   0  0  0  0  0  0  0  0  0  0  0  0
    4.5359   -0.4247   -0.3197 H   0  0  0  0  0  0  0  0  0  0  0  0
    6.1028   -2.2188    1.5021 H   0  0  0  0  0  0  0  0  0  0  0  0
    4.8125   -1.1279    1.9134 H   0  0  0  0  0  0  0  0  0  0  0  0
    3.1375   -2.6389    1.3829 H   0  0  0  0  0  0  0  0  0  0  0  0
    5.7943   -2.9873    3.7763 H   0  0  0  0  0  0  0  0  0  0  0  0
    4.1576   -2.9902    4.4194 H   0  0  0  0  0  0  0  0  0  0  0  0
    5.8943   -4.7126    5.4454 H   0  0  0  0  0  0  0  0  0  0  0  0
    4.2899   -5.2520    5.1369 H   0  0  0  0  0  0  0  0  0  0  0  0
    6.8052   -6.1325    4.0319 H   0  0  0  0  0  0  0  0  0  0  0  0
    5.6833   -8.0287    3.7221 H   0  0  0  0  0  0  0  0  0  0  0  0
    7.0097   -7.4111    1.3829 H   0  0  0  0  0  0  0  0  0  0  0  0
    6.9256   -5.9828    0.3773 H   0  0  0  0  0  0  0  0  0  0  0  0
    8.8647   -6.4531    1.7626 H   0  0  0  0  0  0  0  0  0  0  0  0
    3.6965   -8.0429    0.6987 H   0  0  0  0  0  0  0  0  0  0  0  0
    2.9843   -5.9320   -0.1512 H   0  0  0  0  0  0  0  0  0  0  0  0
    4.6005   -6.0866   -0.7086 H   0  0  0  0  0  0  0  0  0  0  0  0
    2.6808   -4.8487    3.6505 H   0  0  0  0  0  0  0  0  0  0  0  0
    2.2581   -4.5342    2.0222 H   0  0  0  0  0  0  0  0  0  0  0  0
  1  2  2  0
  1 25  1  0
  1 26  1  0
  2  7  1  0
  2  3  1  0
  3  4  2  0
  5  3  1  6
  5 10  1  0
  5 22  1  0
  5  6  1  0
  6  7  1  0
  6 27  1  0
  6 28  1  0
  7  8  1  0
  7 29  1  6
  8  9  1  0
  8 30  1  0
  8 31  1  0
  9 10  1  0
  9 32  1  0
  9 33  1  0
 10 11  1  0
 10 34  1  1
 11 19  1  0
 11 24  1  0
 11 12  1  1
 12 13  1  0
 12 35  1  0
 12 36  1  0
 13 14  1  0
 13 37  1  0
 13 38  1  0
 14 15  1  0
 14 16  1  0
 14 39  1  1
 15 40  1  0
 16 17  1  6
 16 19  1  0
 16 20  1  0
 17 18  1  0
 17 41  1  0
 17 42  1  0
 18 43  1  0
 20 21  1  6
 20 22  1  0
 20 23  1  0
 21 44  1  0
 22 45  1  0
 22 46  1  0
 23 24  1  0
 24 47  1  0
 24 48  1  0
M  END
>  <i_m_ct_stereo_status>  (358) 
1

>  <s_m_source_file>  (358) 
/var/tmp/pbs.5076255.sched01/tmporjl5eer/117expd_qi0.sdf

>  <i_m_source_file_index>  (358) 
35

>  <i_lp_mmshare_version>  (358) 
48012

>  <i_f3d_flags>  (358) 
0

>  <s_epik_input>  (358) 
Tz1DMUMoPVtDSDJdKVtDQEhdKFtDSDJdMilbQ0gyXVtDSDJdW0NAQEhdKFtDQEBdMTIzKVtDQF00NVtDSDJdW0NIMl1bQ0BASF0oW09IXSlbQ0BAXShPNCkoW0NIMl1bT0hdKVtDQF0oW09IXSkoW0NIMl0zKU9bQ0gyXTU=

>  <s_epik_cmdline>  (358) 
J2VwaWtfcHl0aG9uJywgJy1waHQnLCAnMi4wJywgJy1waCcsICc3LjAnLCAnLXRuJywgJzgnLCAnLW1hJywgJzIwMCcsICctaW1hZScsICc8aW5maWxlLm1hZT4nLCAnLW9tYWUnLCAnPG91dGZpbGUubWFlPic=

>  <r_lp_tautomer_probability>  (358) 
1

>  <r_epik_Ionization_Penalty>  (358) 
9.54862e-07

>  <r_epik_Ionization_Penalty_Charging>  (358) 
0

>  <r_epik_Ionization_Penalty_Neutral>  (358) 
9.54862e-07

>  <r_epik_State_Penalty>  (358) 
-0

>  <r_epik_Charging_Adjusted_Penalty>  (358) 
0

>  <i_epik_Tot_Q>  (358) 
0

>  <i_epik_Tot_abs_Q>  (358) 
0

>  <s_lp_Force_Field>  (358) 
OPLS3e

>  <r_lp_Energy>  (358) 
84.0636

>  <b_lp_Chiralities_Consistent>  (358) 
1

>  <s_lp_Variant>  (358) 
121:0-1

>  <s_i_glide_gridfile>  (358) 
pfpi4k_grid

>  <i_i_glide_lignum>  (358) 
35

>  <i_i_glide_rotatable_bonds>  (358) 
4

>  <r_i_docking_score>  (358) 
-2.54995

>  <r_i_glide_ligand_efficiency>  (358) 
-0.106248

>  <r_i_glide_ligand_efficiency_sa>  (358) 
-0.306472

>  <r_i_glide_ligand_efficiency_ln>  (358) 
-0.61032

>  <r_i_glide_gscore>  (358) 
-2.54995

>  <r_i_glide_lipo>  (358) 
-0.277029

>  <r_i_glide_hbond>  (358) 
-0.00481261

>  <r_i_glide_metal>  (358) 
-0

>  <r_i_glide_rewards>  (358) 
-1.30435

>  <r_i_glide_evdw>  (358) 
-20.7177

>  <r_i_glide_ecoul>  (358) 
-0.631859

>  <r_i_glide_erotb>  (358) 
0.166906

>  <r_i_glide_esite>  (358) 
0

>  <r_i_glide_emodel>  (358) 
-22.6411

>  <r_i_glide_energy>  (358) 
-21.3496

>  <r_i_glide_einternal>  (358) 
3.951

>  <r_i_glide_intrahb_reward>  (358) 
-0

>  <i_i_glide_confnum>  (358) 
2

>  <i_i_glide_posenum>  (358) 
30

>  <r_i_glide_eff_state_penalty>  (358) 
0

>  <ligand_id>  (358) 
121

>  <original_smiles>  (358) 
C=C1C(=O)C23CC1CCC2C12CCC(O)C(CO)(O1)C(O)(C3)OC2

>  <smiles>  (358) 
[H]OC([H])([H])C12OC3(C([H])([H])OC1(O[H])C([H])([H])C14C(=O)C(=C([H])[H])C([H])(C([H])([H])C([H])([H])C31[H])C4([H])[H])C([H])([H])C([H])([H])C2([H])O[H]

$$$$
122:0:0
     RDKit          3D

 20 21  0  0  1  0  0  0  0  0999 V2000
    6.6262   -3.2554   -1.1076 C   0  0  0  0  0  0  0  0  0  0  0  0
    5.8182   -1.9752   -1.3118 C   0  0  0  0  0  0  0  0  0  0  0  0
    5.6227   -1.1675   -0.0223 C   0  0  0  0  0  0  0  0  0  0  0  0
    4.5259   -2.1924   -2.0810 C   0  0  0  0  0  0  0  0  0  0  0  0
    4.3960   -1.6179   -3.3039 N   0  0  0  0  0  0  0  0  0  0  0  0
    3.2857   -1.7733   -4.0340 N   0  0  0  0  0  0  0  0  0  0  0  0
    2.2664   -2.5105   -3.5461 C   0  0  0  0  0  0  0  0  0  0  0  0
    2.3213   -3.1105   -2.2763 C   0  0  0  0  0  0  0  0  0  0  0  0
    1.5216   -3.8552   -1.5213 N   0  0  0  0  0  0  0  0  0  0  0  0
    2.2547   -4.1318   -0.3601 N   0  0  0  0  0  0  0  0  0  0  0  0
    3.4360   -3.5817   -0.3589 N   0  0  0  0  0  0  0  0  0  0  0  0
    3.4870   -2.9461   -1.5475 N   0  0  0  0  0  0  0  0  0  0  0  0
    6.7943   -3.7598   -2.0597 H   0  0  0  0  0  0  0  0  0  0  0  0
    6.1116   -3.9359   -0.4341 H   0  0  0  0  0  0  0  0  0  0  0  0
    7.5981   -3.0301   -0.6674 H   0  0  0  0  0  0  0  0  0  0  0  0
    6.4174   -1.3697   -1.9691 H   0  0  0  0  0  0  0  0  0  0  0  0
    5.1148   -0.2241   -0.2210 H   0  0  0  0  0  0  0  0  0  0  0  0
    6.5758   -0.9538    0.4645 H   0  0  0  0  0  0  0  0  0  0  0  0
    5.0182   -1.7168    0.6943 H   0  0  0  0  0  0  0  0  0  0  0  0
    1.3796   -2.6197   -4.1582 H   0  0  0  0  0  0  0  0  0  0  0  0
  1  2  1  0
  1 13  1  0
  1 14  1  0
  1 15  1  0
  2  3  1  0
  2  4  1  0
  2 16  1  0
  3 17  1  0
  3 18  1  0
  3 19  1  0
  4 12  1  0
  4  5  2  0
  5  6  1  0
  6  7  2  0
  7  8  1  0
  7 20  1  0
  8 12  1  0
  8  9  2  0
  9 10  1  0
 10 11  2  0
 11 12  1  0
M  END
>  <i_m_ct_stereo_status>  (359) 
1

>  <s_m_source_file>  (359) 
/var/tmp/pbs.5076255.sched01/tmporjl5eer/117expd_qi0.sdf

>  <i_m_source_file_index>  (359) 
36

>  <i_lp_mmshare_version>  (359) 
48012

>  <i_f3d_flags>  (359) 
0

>  <s_epik_input>  (359) 
W2NIXTFubmMoW0NIXShbQ0gzXSlbQ0gzXSluKGMxMilubm4y

>  <s_epik_cmdline>  (359) 
J2VwaWtfcHl0aG9uJywgJy1waHQnLCAnMi4wJywgJy1waCcsICc3LjAnLCAnLXRuJywgJzgnLCAnLW1hJywgJzIwMCcsICctaW1hZScsICc8aW5maWxlLm1hZT4nLCAnLW9tYWUnLCAnPG91dGZpbGUubWFlPic=

>  <r_lp_tautomer_probability>  (359) 
1

>  <r_epik_Ionization_Penalty>  (359) 
1.02058e-11

>  <r_epik_Ionization_Penalty_Charging>  (359) 
0

>  <r_epik_Ionization_Penalty_Neutral>  (359) 
1.02058e-11

>  <r_epik_State_Penalty>  (359) 
-0

>  <r_epik_Charging_Adjusted_Penalty>  (359) 
0

>  <i_epik_Tot_Q>  (359) 
0

>  <i_epik_Tot_abs_Q>  (359) 
0

>  <s_lp_Force_Field>  (359) 
OPLS3e

>  <r_lp_Energy>  (359) 
14.8197

>  <b_lp_Chiralities_Consistent>  (359) 
1

>  <s_lp_Variant>  (359) 
122:0-1

>  <s_i_glide_gridfile>  (359) 
pfpi4k_grid

>  <i_i_glide_lignum>  (359) 
36

>  <i_i_glide_rotatable_bonds>  (359) 
1

>  <r_i_docking_score>  (359) 
-3.97793

>  <r_i_glide_ligand_efficiency>  (359) 
-0.331494

>  <r_i_glide_ligand_efficiency_sa>  (359) 
-0.758931

>  <r_i_glide_ligand_efficiency_ln>  (359) 
-1.14147

>  <r_i_glide_gscore>  (359) 
-3.97793

>  <r_i_glide_lipo>  (359) 
-0.379696

>  <r_i_glide_hbond>  (359) 
0

>  <r_i_glide_metal>  (359) 
-0

>  <r_i_glide_rewards>  (359) 
-2.36853

>  <r_i_glide_evdw>  (359) 
-17.1701

>  <r_i_glide_ecoul>  (359) 
-1.5561

>  <r_i_glide_erotb>  (359) 
0

>  <r_i_glide_esite>  (359) 
-0.137774

>  <r_i_glide_emodel>  (359) 
-23.2024

>  <r_i_glide_energy>  (359) 
-18.7262

>  <r_i_glide_einternal>  (359) 
1.51639

>  <r_i_glide_intrahb_reward>  (359) 
-0

>  <i_i_glide_confnum>  (359) 
2

>  <i_i_glide_posenum>  (359) 
11

>  <r_i_glide_eff_state_penalty>  (359) 
0

>  <ligand_id>  (359) 
122

>  <original_smiles>  (359) 
CC(C)c1nncc2nnnn12

>  <smiles>  (359) 
[H]c1nnc(C([H])(C([H])([H])[H])C([H])([H])[H])n2nnnc12

$$$$
122:0:1
     RDKit          3D

 20 21  0  0  1  0  0  0  0  0999 V2000
    0.2723    1.0203    1.7530 C   0  0  0  0  0  0  0  0  0  0  0  0
    0.7640    1.9994    2.8302 C   0  0  0  0  0  0  0  0  0  0  0  0
    2.0860    1.5469    3.4722 C   0  0  0  0  0  0  0  0  0  0  0  0
   -0.3136    2.3199    3.8601 C   0  0  0  0  0  0  0  0  0  0  0  0
   -0.7606    3.5996    3.9679 N   0  0  0  0  0  0  0  0  0  0  0  0
   -1.6891    3.9510    4.8632 N   0  0  0  0  0  0  0  0  0  0  0  0
   -2.1980    3.0222    5.6983 C   0  0  0  0  0  0  0  0  0  0  0  0
   -1.7808    1.6743    5.6587 C   0  0  0  0  0  0  0  0  0  0  0  0
   -2.0605    0.5547    6.3240 N   0  0  0  0  0  0  0  0  0  0  0  0
   -1.2784   -0.4340    5.7268 N   0  0  0  0  0  0  0  0  0  0  0  0
   -0.5235    0.0172    4.7697 N   0  0  0  0  0  0  0  0  0  0  0  0
   -0.8298    1.3357    4.7058 N   0  0  0  0  0  0  0  0  0  0  0  0
   -0.6465    1.3724    1.2824 H   0  0  0  0  0  0  0  0  0  0  0  0
    0.0853    0.0323    2.1684 H   0  0  0  0  0  0  0  0  0  0  0  0
    1.0149    0.9020    0.9663 H   0  0  0  0  0  0  0  0  0  0  0  0
    0.9959    2.9379    2.3225 H   0  0  0  0  0  0  0  0  0  0  0  0
    2.4611    2.2936    4.1729 H   0  0  0  0  0  0  0  0  0  0  0  0
    2.8514    1.3825    2.7138 H   0  0  0  0  0  0  0  0  0  0  0  0
    1.9676    0.6103    4.0114 H   0  0  0  0  0  0  0  0  0  0  0  0
   -2.9528    3.3418    6.4035 H   0  0  0  0  0  0  0  0  0  0  0  0
  1  2  1  0
  1 13  1  0
  1 14  1  0
  1 15  1  0
  2  3  1  0
  2  4  1  0
  2 16  1  0
  3 17  1  0
  3 18  1  0
  3 19  1  0
  4 12  1  0
  4  5  2  0
  5  6  1  0
  6  7  2  0
  7  8  1  0
  7 20  1  0
  8 12  1  0
  8  9  2  0
  9 10  1  0
 10 11  2  0
 11 12  1  0
M  END
>  <i_m_ct_stereo_status>  (360) 
1

>  <s_m_source_file>  (360) 
/var/tmp/pbs.5076255.sched01/tmporjl5eer/117expd_qi0.sdf

>  <i_m_source_file_index>  (360) 
36

>  <i_lp_mmshare_version>  (360) 
48012

>  <i_f3d_flags>  (360) 
0

>  <s_epik_input>  (360) 
W2NIXTFubmMoW0NIXShbQ0gzXSlbQ0gzXSluKGMxMilubm4y

>  <s_epik_cmdline>  (360) 
J2VwaWtfcHl0aG9uJywgJy1waHQnLCAnMi4wJywgJy1waCcsICc3LjAnLCAnLXRuJywgJzgnLCAnLW1hJywgJzIwMCcsICctaW1hZScsICc8aW5maWxlLm1hZT4nLCAnLW9tYWUnLCAnPG91dGZpbGUubWFlPic=

>  <r_lp_tautomer_probability>  (360) 
1

>  <r_epik_Ionization_Penalty>  (360) 
1.02058e-11

>  <r_epik_Ionization_Penalty_Charging>  (360) 
0

>  <r_epik_Ionization_Penalty_Neutral>  (360) 
1.02058e-11

>  <r_epik_State_Penalty>  (360) 
-0

>  <r_epik_Charging_Adjusted_Penalty>  (360) 
0

>  <i_epik_Tot_Q>  (360) 
0

>  <i_epik_Tot_abs_Q>  (360) 
0

>  <s_lp_Force_Field>  (360) 
OPLS3e

>  <r_lp_Energy>  (360) 
14.8197

>  <b_lp_Chiralities_Consistent>  (360) 
1

>  <s_lp_Variant>  (360) 
122:0-1

>  <s_i_glide_gridfile>  (360) 
pfpi4k_grid

>  <i_i_glide_lignum>  (360) 
36

>  <i_i_glide_rotatable_bonds>  (360) 
1

>  <r_i_docking_score>  (360) 
-3.89521

>  <r_i_glide_ligand_efficiency>  (360) 
-0.324601

>  <r_i_glide_ligand_efficiency_sa>  (360) 
-0.74315

>  <r_i_glide_ligand_efficiency_ln>  (360) 
-1.11774

>  <r_i_glide_gscore>  (360) 
-3.89521

>  <r_i_glide_lipo>  (360) 
-0.0292985

>  <r_i_glide_hbond>  (360) 
0

>  <r_i_glide_metal>  (360) 
-0

>  <r_i_glide_rewards>  (360) 
-2.25

>  <r_i_glide_evdw>  (360) 
-14.002

>  <r_i_glide_ecoul>  (360) 
-3.7355

>  <r_i_glide_erotb>  (360) 
0

>  <r_i_glide_esite>  (360) 
-0.355486

>  <r_i_glide_emodel>  (360) 
-22.0785

>  <r_i_glide_energy>  (360) 
-17.7375

>  <r_i_glide_einternal>  (360) 
1.55844

>  <r_i_glide_intrahb_reward>  (360) 
-0

>  <i_i_glide_confnum>  (360) 
1

>  <i_i_glide_posenum>  (360) 
29

>  <r_i_glide_eff_state_penalty>  (360) 
0

>  <ligand_id>  (360) 
122

>  <original_smiles>  (360) 
CC(C)c1nncc2nnnn12

>  <smiles>  (360) 
[H]c1nnc(C([H])(C([H])([H])[H])C([H])([H])[H])n2nnnc12

$$$$
122:0:2
     RDKit          3D

 20 21  0  0  1  0  0  0  0  0999 V2000
   -0.9734    3.6407    4.9622 C   0  0  0  0  0  0  0  0  0  0  0  0
   -1.0954    3.0057    3.5696 C   0  0  0  0  0  0  0  0  0  0  0  0
   -2.5530    2.9295    3.0926 C   0  0  0  0  0  0  0  0  0  0  0  0
   -0.3708    1.6670    3.4663 C   0  0  0  0  0  0  0  0  0  0  0  0
    0.6875    1.5584    2.6189 N   0  0  0  0  0  0  0  0  0  0  0  0
    1.3670    0.4158    2.4747 N   0  0  0  0  0  0  0  0  0  0  0  0
    1.0040   -0.6708    3.1862 C   0  0  0  0  0  0  0  0  0  0  0  0
   -0.0879   -0.6414    4.0822 C   0  0  0  0  0  0  0  0  0  0  0  0
   -0.7025   -1.4999    4.8915 N   0  0  0  0  0  0  0  0  0  0  0  0
   -1.7406   -0.7827    5.4839 N   0  0  0  0  0  0  0  0  0  0  0  0
   -1.7830    0.4583    5.1103 N   0  0  0  0  0  0  0  0  0  0  0  0
   -0.7714    0.5606    4.2173 N   0  0  0  0  0  0  0  0  0  0  0  0
    0.0685    3.7282    5.2710 H   0  0  0  0  0  0  0  0  0  0  0  0
   -1.5029    3.0585    5.7125 H   0  0  0  0  0  0  0  0  0  0  0  0
   -1.4037    4.6391    4.9662 H   0  0  0  0  0  0  0  0  0  0  0  0
   -0.5842    3.6835    2.8886 H   0  0  0  0  0  0  0  0  0  0  0  0
   -2.6139    2.5378    2.0798 H   0  0  0  0  0  0  0  0  0  0  0  0
   -3.0330    3.9057    3.1089 H   0  0  0  0  0  0  0  0  0  0  0  0
   -3.1432    2.2695    3.7191 H   0  0  0  0  0  0  0  0  0  0  0  0
    1.5661   -1.5818    3.0421 H   0  0  0  0  0  0  0  0  0  0  0  0
  1  2  1  0
  1 13  1  0
  1 14  1  0
  1 15  1  0
  2  3  1  0
  2  4  1  0
  2 16  1  0
  3 17  1  0
  3 18  1  0
  3 19  1  0
  4 12  1  0
  4  5  2  0
  5  6  1  0
  6  7  2  0
  7  8  1  0
  7 20  1  0
  8 12  1  0
  8  9  2  0
  9 10  1  0
 10 11  2  0
 11 12  1  0
M  END
>  <i_m_ct_stereo_status>  (361) 
1

>  <s_m_source_file>  (361) 
/var/tmp/pbs.5076255.sched01/tmporjl5eer/117expd_qi0.sdf

>  <i_m_source_file_index>  (361) 
36

>  <i_lp_mmshare_version>  (361) 
48012

>  <i_f3d_flags>  (361) 
0

>  <s_epik_input>  (361) 
W2NIXTFubmMoW0NIXShbQ0gzXSlbQ0gzXSluKGMxMilubm4y

>  <s_epik_cmdline>  (361) 
J2VwaWtfcHl0aG9uJywgJy1waHQnLCAnMi4wJywgJy1waCcsICc3LjAnLCAnLXRuJywgJzgnLCAnLW1hJywgJzIwMCcsICctaW1hZScsICc8aW5maWxlLm1hZT4nLCAnLW9tYWUnLCAnPG91dGZpbGUubWFlPic=

>  <r_lp_tautomer_probability>  (361) 
1

>  <r_epik_Ionization_Penalty>  (361) 
1.02058e-11

>  <r_epik_Ionization_Penalty_Charging>  (361) 
0

>  <r_epik_Ionization_Penalty_Neutral>  (361) 
1.02058e-11

>  <r_epik_State_Penalty>  (361) 
-0

>  <r_epik_Charging_Adjusted_Penalty>  (361) 
0

>  <i_epik_Tot_Q>  (361) 
0

>  <i_epik_Tot_abs_Q>  (361) 
0

>  <s_lp_Force_Field>  (361) 
OPLS3e

>  <r_lp_Energy>  (361) 
14.8197

>  <b_lp_Chiralities_Consistent>  (361) 
1

>  <s_lp_Variant>  (361) 
122:0-1

>  <s_i_glide_gridfile>  (361) 
pfpi4k_grid

>  <i_i_glide_lignum>  (361) 
36

>  <i_i_glide_rotatable_bonds>  (361) 
1

>  <r_i_docking_score>  (361) 
-3.67472

>  <r_i_glide_ligand_efficiency>  (361) 
-0.306226

>  <r_i_glide_ligand_efficiency_sa>  (361) 
-0.701083

>  <r_i_glide_ligand_efficiency_ln>  (361) 
-1.05447

>  <r_i_glide_gscore>  (361) 
-3.67472

>  <r_i_glide_lipo>  (361) 
0

>  <r_i_glide_hbond>  (361) 
0

>  <r_i_glide_metal>  (361) 
-0

>  <r_i_glide_rewards>  (361) 
-2.25

>  <r_i_glide_evdw>  (361) 
-16.4216

>  <r_i_glide_ecoul>  (361) 
-2.13696

>  <r_i_glide_erotb>  (361) 
0

>  <r_i_glide_esite>  (361) 
-0.283091

>  <r_i_glide_emodel>  (361) 
-22.5983

>  <r_i_glide_energy>  (361) 
-18.5586

>  <r_i_glide_einternal>  (361) 
1.57366

>  <r_i_glide_intrahb_reward>  (361) 
-0

>  <i_i_glide_confnum>  (361) 
1

>  <i_i_glide_posenum>  (361) 
1

>  <r_i_glide_eff_state_penalty>  (361) 
0

>  <ligand_id>  (361) 
122

>  <original_smiles>  (361) 
CC(C)c1nncc2nnnn12

>  <smiles>  (361) 
[H]c1nnc(C([H])(C([H])([H])[H])C([H])([H])[H])n2nnnc12

$$$$
