0:0:0
     RDKit          3D

 72 77  0  0  1  0  0  0  0  0999 V2000
   -2.9828    4.7184    9.0366 C   0  0  0  0  0  0  0  0  0  0  0  0
   -2.4640    3.3407    8.6099 C   0  0  2  0  0  0  0  0  0  0  0  0
   -1.3639    2.8147    9.5446 C   0  0  0  0  0  0  0  0  0  0  0  0
   -0.0923    3.6553    9.3609 C   0  0  0  0  0  0  0  0  0  0  0  0
    0.3450    3.6670    7.8707 C   0  0  2  0  0  0  0  0  0  0  0  0
   -0.7259    4.1503    7.0901 O   0  0  0  0  0  0  0  0  0  0  0  0
   -1.9426    3.3878    7.1645 C   0  0  0  0  0  0  0  0  0  0  0  0
    0.7091    2.3299    7.5618 O   0  0  0  0  0  0  0  0  0  0  0  0
    1.5672    1.9669    6.4599 C   0  0  2  0  0  0  0  0  0  0  0  0
    2.6942    3.0000    6.2262 C   0  0  0  0  0  0  0  0  0  0  0  0
    2.1941    4.4340    6.2605 C   0  0  2  0  0  0  0  0  0  0  0  0
    1.5651    4.5953    7.6784 C   0  0  1  0  0  0  0  0  0  0  0  0
    1.3387    6.0422    8.1795 C   0  0  0  0  0  0  0  0  0  0  0  0
    1.4623    4.8910    4.9425 C   0  0  1  0  0  0  0  0  0  0  0  0
    0.7277    6.2270    5.1946 C   0  0  0  0  0  0  0  0  0  0  0  0
    2.4825    5.1163    3.7980 C   0  0  0  0  0  0  0  0  0  0  0  0
    2.0064    3.8730    3.0885 C   0  0  0  0  0  0  0  0  0  0  0  0
    0.7388    3.8626    3.9537 C   0  0  2  0  0  0  0  0  0  0  0  0
   -0.3372    4.5198    3.2863 O   0  0  0  0  0  0  0  0  0  0  0  0
    0.0849    2.4528    4.3476 C   0  0  1  0  0  0  0  0  0  0  0  0
   -0.5551    1.7523    3.1059 C   0  0  0  0  0  0  0  0  0  0  0  0
    0.4549    0.9724    2.2597 C   0  0  0  0  0  0  0  0  0  0  0  0
    1.0707   -0.1797    3.0655 C   0  0  1  0  0  0  0  0  0  0  0  0
    1.9542   -1.0558    2.1570 C   0  0  0  0  0  0  0  0  0  0  0  0
    1.7678    0.3530    4.3665 C   0  0  1  0  0  0  0  0  0  0  0  0
    2.2759   -0.8235    5.1850 C   0  0  0  0  0  0  0  0  0  0  0  0
    3.5851   -0.8608    5.2632 C   0  0  0  0  0  0  0  0  0  0  0  0
    4.0864    0.2478    4.4891 C   0  0  0  0  0  0  0  0  0  0  0  0
    5.2772    0.5380    4.3162 O   0  0  0  0  0  0  0  0  0  0  0  0
    3.0265    0.9174    3.9781 O   0  0  0  0  0  0  0  0  0  0  0  0
    0.8189    1.3296    5.2324 C   0  0  1  0  0  0  0  0  0  0  0  0
   -0.2776    0.3520    5.8376 C   0  0  0  0  0  0  0  0  0  0  0  0
   -2.2093    5.4750    8.8675 H   0  0  0  0  0  0  0  0  0  0  0  0
   -3.3142    4.7342   10.0859 H   0  0  0  0  0  0  0  0  0  0  0  0
   -3.8028    5.0110    8.3875 H   0  0  0  0  0  0  0  0  0  0  0  0
   -3.2867    2.6233    8.6446 H   0  0  0  0  0  0  0  0  0  0  0  0
   -1.6916    2.8562   10.5866 H   0  0  0  0  0  0  0  0  0  0  0  0
   -1.1434    1.7626    9.3541 H   0  0  0  0  0  0  0  0  0  0  0  0
   -0.2961    4.6670    9.7076 H   0  0  0  0  0  0  0  0  0  0  0  0
    0.7150    3.2694    9.9742 H   0  0  0  0  0  0  0  0  0  0  0  0
   -1.7893    2.3770    6.9101 H   0  0  0  0  0  0  0  0  0  0  0  0
   -2.6989    3.8344    6.4951 H   0  0  0  0  0  0  0  0  0  0  0  0
    2.0900    1.1257    6.9114 H   0  0  0  0  0  0  0  0  0  0  0  0
    3.4222    2.8766    7.0295 H   0  0  0  0  0  0  0  0  0  0  0  0
    3.2675    2.8321    5.3327 H   0  0  0  0  0  0  0  0  0  0  0  0
    3.1018    5.0471    6.3178 H   0  0  0  0  0  0  0  0  0  0  0  0
    2.3217    4.2138    8.3659 H   0  0  0  0  0  0  0  0  0  0  0  0
    0.3999    6.4785    7.8493 H   0  0  0  0  0  0  0  0  0  0  0  0
    2.1522    6.6860    7.8484 H   0  0  0  0  0  0  0  0  0  0  0  0
    1.3483    6.0873    9.2672 H   0  0  0  0  0  0  0  0  0  0  0  0
    0.4352    6.7180    4.2657 H   0  0  0  0  0  0  0  0  0  0  0  0
    1.3725    6.9595    5.6874 H   0  0  0  0  0  0  0  0  0  0  0  0
   -0.1853    6.1067    5.7703 H   0  0  0  0  0  0  0  0  0  0  0  0
    2.2918    6.0103    3.1945 H   0  0  0  0  0  0  0  0  0  0  0  0
    3.5325    5.0576    4.0936 H   0  0  0  0  0  0  0  0  0  0  0  0
    1.8291    4.0299    2.0267 H   0  0  0  0  0  0  0  0  0  0  0  0
    2.6913    3.0545    3.2385 H   0  0  0  0  0  0  0  0  0  0  0  0
   -0.1473    4.4993    2.3290 H   0  0  0  0  0  0  0  0  0  0  0  0
   -0.7806    2.7492    4.9336 H   0  0  0  0  0  0  0  0  0  0  0  0
   -1.3268    1.0640    3.4455 H   0  0  0  0  0  0  0  0  0  0  0  0
   -1.0927    2.4367    2.4512 H   0  0  0  0  0  0  0  0  0  0  0  0
   -0.0539    0.5785    1.3788 H   0  0  0  0  0  0  0  0  0  0  0  0
    1.2362    1.6355    1.8910 H   0  0  0  0  0  0  0  0  0  0  0  0
    0.2429   -0.8368    3.3419 H   0  0  0  0  0  0  0  0  0  0  0  0
    2.7933   -0.4998    1.7460 H   0  0  0  0  0  0  0  0  0  0  0  0
    1.3766   -1.4098    1.3109 H   0  0  0  0  0  0  0  0  0  0  0  0
    2.3330   -1.9352    2.6716 H   0  0  0  0  0  0  0  0  0  0  0  0
    1.6212   -1.5533    5.6505 H   0  0  0  0  0  0  0  0  0  0  0  0
    4.2102   -1.5885    5.7769 H   0  0  0  0  0  0  0  0  0  0  0  0
   -0.6748   -0.3238    5.0712 H   0  0  0  0  0  0  0  0  0  0  0  0
   -1.1328    0.8281    6.2618 H   0  0  0  0  0  0  0  0  0  0  0  0
    0.1799   -0.2911    6.6098 H   0  0  0  0  0  0  0  0  0  0  0  0
  1  2  1  0
  1 33  1  0
  1 34  1  0
  1 35  1  0
  2  7  1  0
  2  3  1  0
  2 36  1  6
  3  4  1  0
  3 37  1  0
  3 38  1  0
  4  5  1  0
  4 39  1  0
  4 40  1  0
  5 12  1  0
  5  6  1  6
  5  8  1  0
  6  7  1  0
  7 41  1  0
  7 42  1  0
  8  9  1  0
  9 31  1  0
  9 10  1  0
  9 43  1  1
 10 11  1  0
 10 44  1  0
 10 45  1  0
 11 12  1  0
 11 14  1  0
 11 46  1  1
 12 13  1  0
 12 47  1  1
 13 48  1  0
 13 49  1  0
 13 50  1  0
 14 18  1  0
 14 15  1  1
 14 16  1  0
 15 51  1  0
 15 52  1  0
 15 53  1  0
 16 17  1  0
 16 54  1  0
 16 55  1  0
 17 18  1  0
 17 56  1  0
 17 57  1  0
 18 19  1  6
 18 20  1  0
 19 58  1  0
 20 31  1  0
 20 21  1  0
 20 59  1  1
 21 22  1  0
 21 60  1  0
 21 61  1  0
 22 23  1  0
 22 62  1  0
 22 63  1  0
 23 24  1  0
 23 25  1  0
 23 64  1  1
 24 65  1  0
 24 66  1  0
 24 67  1  0
 25 30  1  6
 25 26  1  0
 25 31  1  0
 26 27  2  0
 26 68  1  0
 27 28  1  0
 27 69  1  0
 28 29  2  0
 28 30  1  0
 31 32  1  1
 32 70  1  0
 32 71  1  0
 32 72  1  0
M  END
>  <i_m_ct_stereo_status>  (1) 
1

>  <s_m_source_file>  (1) 
/var/tmp/pbs.5076255.sched01/tmp8nmo4hef/06hb_edth.sdf

>  <i_m_source_file_index>  (1) 
1

>  <i_lp_mmshare_version>  (1) 
48012

>  <i_f3d_flags>  (1) 
0

>  <s_epik_input>  (1) 
TzFbQ0gyXVtDQEhdKFtDSDNdKVtDSDJdW0NIMl1bQ0BAXTEyT1tDQEhdM1tDQF00KFtDSDNdKVtDQEBdNShbQ0hdPVtDSF1DKD1PKU81KVtDQEhdKFtDSDNdKVtDSDJdW0NIMl1bQ0BASF00W0NAQF02KFtPSF0pW0NAXShbQ0gzXSkoW0NIMl1bQ0gyXTYpW0NIXShbQ0gyXTMpW0NASF0yW0NIM10=

>  <s_epik_cmdline>  (1) 
J2VwaWtfcHl0aG9uJywgJy1waHQnLCAnMi4wJywgJy1waCcsICc3LjAnLCAnLXRuJywgJzgnLCAnLW1hJywgJzIwMCcsICctaW1hZScsICc8aW5maWxlLm1hZT4nLCAnLW9tYWUnLCAnPG91dGZpbGUubWFlPic=

>  <r_lp_tautomer_probability>  (1) 
1

>  <r_epik_Ionization_Penalty>  (1) 
6.42769e-07

>  <r_epik_Ionization_Penalty_Charging>  (1) 
0

>  <r_epik_Ionization_Penalty_Neutral>  (1) 
6.42769e-07

>  <r_epik_State_Penalty>  (1) 
-0

>  <r_epik_Charging_Adjusted_Penalty>  (1) 
0

>  <i_epik_Tot_Q>  (1) 
0

>  <i_epik_Tot_abs_Q>  (1) 
0

>  <s_epik_Chemistry_Notes>  (1) 
This compound has an ester and may undergo hydrolysis at high or low pH.

>  <s_lp_Force_Field>  (1) 
OPLS3e

>  <r_lp_Energy>  (1) 
93.0073

>  <b_lp_Chiralities_Consistent>  (1) 
1

>  <s_lp_Variant>  (1) 
0:0-1

>  <s_i_glide_gridfile>  (1) 
pfpi4k_grid

>  <i_i_glide_lignum>  (1) 
1

>  <i_i_glide_rotatable_bonds>  (1) 
1

>  <r_i_docking_score>  (1) 
-2.72434

>  <r_i_glide_ligand_efficiency>  (1) 
-0.0851355

>  <r_i_glide_ligand_efficiency_sa>  (1) 
-0.270288

>  <r_i_glide_ligand_efficiency_ln>  (1) 
-0.610053

>  <r_i_glide_gscore>  (1) 
-2.72434

>  <r_i_glide_lipo>  (1) 
-0.168981

>  <r_i_glide_hbond>  (1) 
-0.16

>  <r_i_glide_metal>  (1) 
-0

>  <r_i_glide_rewards>  (1) 
-0.384123

>  <r_i_glide_evdw>  (1) 
-18.8419

>  <r_i_glide_ecoul>  (1) 
-7.12758

>  <r_i_glide_erotb>  (1) 
0

>  <r_i_glide_esite>  (1) 
0

>  <r_i_glide_emodel>  (1) 
-29.1278

>  <r_i_glide_energy>  (1) 
-25.9695

>  <r_i_glide_einternal>  (1) 
0.97049

>  <r_i_glide_intrahb_reward>  (1) 
-0

>  <i_i_glide_confnum>  (1) 
3

>  <i_i_glide_posenum>  (1) 
35

>  <r_i_glide_eff_state_penalty>  (1) 
0

>  <ligand_id>  (1) 
0

>  <original_smiles>  (1) 
CC1CCC2(OC1)OC1CC(C2C)C2(C)CCC2(O)C2CCC(C)C3(C=CC(=O)O3)C12C

>  <smiles>  (1) 
[H]OC12C([H])([H])C([H])([H])C1(C([H])([H])[H])C1([H])C([H])([H])C([H])(OC3(OC([H])([H])C([H])(C([H])([H])[H])C([H])([H])C3([H])[H])C1([H])C([H])([H])[H])C1(C([H])([H])[H])C3(OC(=O)C([H])=C3[H])C([H])(C([H])([H])[H])C([H])([H])C([H])([H])C21[H]

$$$$
0:0:1
     RDKit          3D

 72 77  0  0  1  0  0  0  0  0999 V2000
    0.4660   -6.0818    5.9435 C   0  0  0  0  0  0  0  0  0  0  0  0
    1.4831   -6.3868    4.8334 C   0  0  2  0  0  0  0  0  0  0  0  0
    2.9101   -6.6418    5.3283 C   0  0  0  0  0  0  0  0  0  0  0  0
    3.5252   -5.3327    5.8470 C   0  0  0  0  0  0  0  0  0  0  0  0
    3.4793   -4.2339    4.7489 C   0  0  2  0  0  0  0  0  0  0  0  0
    2.1467   -4.0754    4.3307 O   0  0  0  0  0  0  0  0  0  0  0  0
    1.4906   -5.2399    3.8251 C   0  0  0  0  0  0  0  0  0  0  0  0
    4.3380   -4.6847    3.7208 O   0  0  0  0  0  0  0  0  0  0  0  0
    4.9324   -3.8158    2.7304 C   0  0  2  0  0  0  0  0  0  0  0  0
    5.2932   -2.4304    3.3116 C   0  0  0  0  0  0  0  0  0  0  0  0
    4.2202   -1.8304    4.1973 C   0  0  2  0  0  0  0  0  0  0  0  0
    4.0004   -2.8866    5.3139 C   0  0  1  0  0  0  0  0  0  0  0  0
    3.2380   -2.4217    6.5797 C   0  0  0  0  0  0  0  0  0  0  0  0
    3.0483   -1.1932    3.3872 C   0  0  1  0  0  0  0  0  0  0  0  0
    1.8528   -0.9344    4.3265 C   0  0  0  0  0  0  0  0  0  0  0  0
    3.4713    0.1467    2.7386 C   0  0  0  0  0  0  0  0  0  0  0  0
    3.4734   -0.4652    1.3633 C   0  0  0  0  0  0  0  0  0  0  0  0
    2.7148   -1.6802    1.9091 C   0  0  2  0  0  0  0  0  0  0  0  0
    1.3378   -1.4780    1.7210 O   0  0  0  0  0  0  0  0  0  0  0  0
    2.9283   -3.1262    1.2494 C   0  0  1  0  0  0  0  0  0  0  0  0
    2.4246   -3.2171   -0.2141 C   0  0  0  0  0  0  0  0  0  0  0  0
    3.3697   -2.6321   -1.2553 C   0  0  0  0  0  0  0  0  0  0  0  0
    4.6619   -3.4554   -1.2807 C   0  0  1  0  0  0  0  0  0  0  0  0
    5.5706   -2.9880   -2.4317 C   0  0  0  0  0  0  0  0  0  0  0  0
    5.3237   -3.4899    0.1306 C   0  0  1  0  0  0  0  0  0  0  0  0
    6.5331   -4.3982    0.1024 C   0  0  0  0  0  0  0  0  0  0  0  0
    7.6660   -3.7495    0.2768 C   0  0  0  0  0  0  0  0  0  0  0  0
    7.3322   -2.3475    0.3627 C   0  0  0  0  0  0  0  0  0  0  0  0
    8.1314   -1.4145    0.4212 O   0  0  0  0  0  0  0  0  0  0  0  0
    5.9795   -2.2431    0.3119 O   0  0  0  0  0  0  0  0  0  0  0  0
    4.3058   -3.9090    1.3020 C   0  0  1  0  0  0  0  0  0  0  0  0
    4.0639   -5.4421    1.0128 C   0  0  0  0  0  0  0  0  0  0  0  0
    0.6980   -5.1135    6.3779 H   0  0  0  0  0  0  0  0  0  0  0  0
    0.4727   -6.8419    6.7285 H   0  0  0  0  0  0  0  0  0  0  0  0
   -0.5292   -6.0031    5.5039 H   0  0  0  0  0  0  0  0  0  0  0  0
    1.1730   -7.2773    4.3080 H   0  0  0  0  0  0  0  0  0  0  0  0
    2.9242   -7.3929    6.1141 H   0  0  0  0  0  0  0  0  0  0  0  0
    3.5441   -7.0509    4.5356 H   0  0  0  0  0  0  0  0  0  0  0  0
    2.9614   -5.0256    6.7243 H   0  0  0  0  0  0  0  0  0  0  0  0
    4.5581   -5.4858    6.1682 H   0  0  0  0  0  0  0  0  0  0  0  0
    2.0139   -5.6517    3.0039 H   0  0  0  0  0  0  0  0  0  0  0  0
    0.4704   -4.9770    3.5077 H   0  0  0  0  0  0  0  0  0  0  0  0
    5.9094   -4.2915    2.6179 H   0  0  0  0  0  0  0  0  0  0  0  0
    6.1479   -2.6207    3.9573 H   0  0  0  0  0  0  0  0  0  0  0  0
    5.6416   -1.7027    2.5907 H   0  0  0  0  0  0  0  0  0  0  0  0
    4.6977   -0.9935    4.7181 H   0  0  0  0  0  0  0  0  0  0  0  0
    5.0024   -3.0999    5.7006 H   0  0  0  0  0  0  0  0  0  0  0  0
    2.1561   -2.4803    6.4860 H   0  0  0  0  0  0  0  0  0  0  0  0
    3.5073   -1.3892    6.8191 H   0  0  0  0  0  0  0  0  0  0  0  0
    3.5189   -3.0137    7.4500 H   0  0  0  0  0  0  0  0  0  0  0  0
    1.1133   -0.2632    3.8806 H   0  0  0  0  0  0  0  0  0  0  0  0
    2.1528   -0.4170    5.2351 H   0  0  0  0  0  0  0  0  0  0  0  0
    1.2978   -1.8352    4.5776 H   0  0  0  0  0  0  0  0  0  0  0  0
    2.7032    0.9297    2.8094 H   0  0  0  0  0  0  0  0  0  0  0  0
    4.4450    0.5178    3.0476 H   0  0  0  0  0  0  0  0  0  0  0  0
    2.9242    0.1330    0.6260 H   0  0  0  0  0  0  0  0  0  0  0  0
    4.4810   -0.6554    1.0241 H   0  0  0  0  0  0  0  0  0  0  0  0
    1.2027   -1.2002    0.8143 H   0  0  0  0  0  0  0  0  0  0  0  0
    2.2120   -3.7443    1.7835 H   0  0  0  0  0  0  0  0  0  0  0  0
    2.2086   -4.2480   -0.4802 H   0  0  0  0  0  0  0  0  0  0  0  0
    1.4651   -2.7524   -0.3064 H   0  0  0  0  0  0  0  0  0  0  0  0
    2.8885   -2.6475   -2.2336 H   0  0  0  0  0  0  0  0  0  0  0  0
    3.5917   -1.5884   -1.0372 H   0  0  0  0  0  0  0  0  0  0  0  0
    4.3719   -4.4587   -1.5874 H   0  0  0  0  0  0  0  0  0  0  0  0
    5.8837   -1.9526   -2.2917 H   0  0  0  0  0  0  0  0  0  0  0  0
    5.0278   -3.0376   -3.3752 H   0  0  0  0  0  0  0  0  0  0  0  0
    6.4600   -3.6147   -2.5391 H   0  0  0  0  0  0  0  0  0  0  0  0
    6.4629   -5.4633   -0.0499 H   0  0  0  0  0  0  0  0  0  0  0  0
    8.6646   -4.1658    0.2942 H   0  0  0  0  0  0  0  0  0  0  0  0
    3.8866   -5.6425   -0.0515 H   0  0  0  0  0  0  0  0  0  0  0  0
    3.2400   -5.9164    1.4967 H   0  0  0  0  0  0  0  0  0  0  0  0
    4.9649   -6.0299    1.2614 H   0  0  0  0  0  0  0  0  0  0  0  0
  1  2  1  0
  1 33  1  0
  1 34  1  0
  1 35  1  0
  2  7  1  0
  2  3  1  0
  2 36  1  6
  3  4  1  0
  3 37  1  0
  3 38  1  0
  4  5  1  0
  4 39  1  0
  4 40  1  0
  5 12  1  0
  5  6  1  6
  5  8  1  0
  6  7  1  0
  7 41  1  0
  7 42  1  0
  8  9  1  0
  9 31  1  0
  9 10  1  0
  9 43  1  6
 10 11  1  0
 10 44  1  0
 10 45  1  0
 11 12  1  0
 11 14  1  0
 11 46  1  1
 12 13  1  0
 12 47  1  1
 13 48  1  0
 13 49  1  0
 13 50  1  0
 14 18  1  0
 14 15  1  1
 14 16  1  0
 15 51  1  0
 15 52  1  0
 15 53  1  0
 16 17  1  0
 16 54  1  0
 16 55  1  0
 17 18  1  0
 17 56  1  0
 17 57  1  0
 18 19  1  1
 18 20  1  0
 19 58  1  0
 20 31  1  0
 20 21  1  0
 20 59  1  1
 21 22  1  0
 21 60  1  0
 21 61  1  0
 22 23  1  0
 22 62  1  0
 22 63  1  0
 23 24  1  0
 23 25  1  0
 23 64  1  6
 24 65  1  0
 24 66  1  0
 24 67  1  0
 25 30  1  1
 25 26  1  0
 25 31  1  0
 26 27  2  0
 26 68  1  0
 27 28  1  0
 27 69  1  0
 28 29  2  0
 28 30  1  0
 31 32  1  6
 32 70  1  0
 32 71  1  0
 32 72  1  0
M  END
>  <i_m_ct_stereo_status>  (2) 
1

>  <s_m_source_file>  (2) 
/var/tmp/pbs.5076255.sched01/tmp8nmo4hef/06hb_edth.sdf

>  <i_m_source_file_index>  (2) 
1

>  <i_lp_mmshare_version>  (2) 
48012

>  <i_f3d_flags>  (2) 
0

>  <s_epik_input>  (2) 
TzFbQ0gyXVtDQEhdKFtDSDNdKVtDSDJdW0NIMl1bQ0BAXTEyT1tDQEhdM1tDQF00KFtDSDNdKVtDQEBdNShbQ0hdPVtDSF1DKD1PKU81KVtDQEhdKFtDSDNdKVtDSDJdW0NIMl1bQ0BASF00W0NAQF02KFtPSF0pW0NAXShbQ0gzXSkoW0NIMl1bQ0gyXTYpW0NIXShbQ0gyXTMpW0NASF0yW0NIM10=

>  <s_epik_cmdline>  (2) 
J2VwaWtfcHl0aG9uJywgJy1waHQnLCAnMi4wJywgJy1waCcsICc3LjAnLCAnLXRuJywgJzgnLCAnLW1hJywgJzIwMCcsICctaW1hZScsICc8aW5maWxlLm1hZT4nLCAnLW9tYWUnLCAnPG91dGZpbGUubWFlPic=

>  <r_lp_tautomer_probability>  (2) 
1

>  <r_epik_Ionization_Penalty>  (2) 
6.42769e-07

>  <r_epik_Ionization_Penalty_Charging>  (2) 
0

>  <r_epik_Ionization_Penalty_Neutral>  (2) 
6.42769e-07

>  <r_epik_State_Penalty>  (2) 
-0

>  <r_epik_Charging_Adjusted_Penalty>  (2) 
0

>  <i_epik_Tot_Q>  (2) 
0

>  <i_epik_Tot_abs_Q>  (2) 
0

>  <s_epik_Chemistry_Notes>  (2) 
This compound has an ester and may undergo hydrolysis at high or low pH.

>  <s_lp_Force_Field>  (2) 
OPLS3e

>  <r_lp_Energy>  (2) 
93.0073

>  <b_lp_Chiralities_Consistent>  (2) 
1

>  <s_lp_Variant>  (2) 
0:0-1

>  <s_i_glide_gridfile>  (2) 
pfpi4k_grid

>  <i_i_glide_lignum>  (2) 
1

>  <i_i_glide_rotatable_bonds>  (2) 
1

>  <r_i_docking_score>  (2) 
-2.46203

>  <r_i_glide_ligand_efficiency>  (2) 
-0.0769384

>  <r_i_glide_ligand_efficiency_sa>  (2) 
-0.244264

>  <r_i_glide_ligand_efficiency_ln>  (2) 
-0.551316

>  <r_i_glide_gscore>  (2) 
-2.46203

>  <r_i_glide_lipo>  (2) 
-0.655203

>  <r_i_glide_hbond>  (2) 
-0.189085

>  <r_i_glide_metal>  (2) 
-0

>  <r_i_glide_rewards>  (2) 
-0.578306

>  <r_i_glide_evdw>  (2) 
-15.7106

>  <r_i_glide_ecoul>  (2) 
-1.69269

>  <r_i_glide_erotb>  (2) 
0

>  <r_i_glide_esite>  (2) 
0

>  <r_i_glide_emodel>  (2) 
-20.2682

>  <r_i_glide_energy>  (2) 
-17.4033

>  <r_i_glide_einternal>  (2) 
0.665832

>  <r_i_glide_intrahb_reward>  (2) 
-0

>  <i_i_glide_confnum>  (2) 
3

>  <i_i_glide_posenum>  (2) 
40

>  <r_i_glide_eff_state_penalty>  (2) 
0

>  <ligand_id>  (2) 
0

>  <original_smiles>  (2) 
CC1CCC2(OC1)OC1CC(C2C)C2(C)CCC2(O)C2CCC(C)C3(C=CC(=O)O3)C12C

>  <smiles>  (2) 
[H]OC12C([H])([H])C([H])([H])C1(C([H])([H])[H])C1([H])C([H])([H])C([H])(OC3(OC([H])([H])C([H])(C([H])([H])[H])C([H])([H])C3([H])[H])C1([H])C([H])([H])[H])C1(C([H])([H])[H])C3(OC(=O)C([H])=C3[H])C([H])(C([H])([H])[H])C([H])([H])C([H])([H])C21[H]

$$$$
0:0:2
     RDKit          3D

 72 77  0  0  1  0  0  0  0  0999 V2000
   -2.0641   -8.6922    3.3810 C   0  0  0  0  0  0  0  0  0  0  0  0
   -0.8600   -8.4995    2.4513 C   0  0  2  0  0  0  0  0  0  0  0  0
    0.1524   -9.6471    2.4937 C   0  0  0  0  0  0  0  0  0  0  0  0
    0.8923   -9.6375    3.8403 C   0  0  0  0  0  0  0  0  0  0  0  0
    1.5485   -8.2482    4.0846 C   0  0  2  0  0  0  0  0  0  0  0  0
    0.5508   -7.2586    4.0019 O   0  0  0  0  0  0  0  0  0  0  0  0
   -0.1586   -7.1855    2.7710 C   0  0  0  0  0  0  0  0  0  0  0  0
    2.5424   -8.1034    3.0855 O   0  0  0  0  0  0  0  0  0  0  0  0
    3.6717   -7.2081    3.1921 C   0  0  2  0  0  0  0  0  0  0  0  0
    4.2056   -7.1041    4.6448 C   0  0  0  0  0  0  0  0  0  0  0  0
    3.0961   -6.9456    5.6731 C   0  0  2  0  0  0  0  0  0  0  0  0
    2.2046   -8.2105    5.4827 C   0  0  1  0  0  0  0  0  0  0  0  0
    1.2241   -8.5556    6.6329 C   0  0  0  0  0  0  0  0  0  0  0  0
    2.5057   -5.4967    5.7461 C   0  0  1  0  0  0  0  0  0  0  0  0
    1.1893   -5.5094    6.5569 C   0  0  0  0  0  0  0  0  0  0  0  0
    3.4902   -4.5264    6.4444 C   0  0  0  0  0  0  0  0  0  0  0  0
    3.7928   -3.8272    5.1399 C   0  0  0  0  0  0  0  0  0  0  0  0
    2.5630   -4.5002    4.5051 C   0  0  2  0  0  0  0  0  0  0  0  0
    1.4436   -3.6301    4.5730 O   0  0  0  0  0  0  0  0  0  0  0  0
    2.5811   -4.8461    2.9459 C   0  0  1  0  0  0  0  0  0  0  0  0
    2.5993   -3.5577    2.0589 C   0  0  0  0  0  0  0  0  0  0  0  0
    3.9940   -2.9664    1.8708 C   0  0  0  0  0  0  0  0  0  0  0  0
    4.9119   -3.9526    1.1425 C   0  0  1  0  0  0  0  0  0  0  0  0
    6.2577   -3.2839    0.8061 C   0  0  0  0  0  0  0  0  0  0  0  0
    5.0171   -5.3096    1.9150 C   0  0  1  0  0  0  0  0  0  0  0  0
    5.8426   -6.2748    1.1062 C   0  0  0  0  0  0  0  0  0  0  0  0
    6.9822   -6.6045    1.7052 C   0  0  0  0  0  0  0  0  0  0  0  0
    7.0254   -5.8629    2.9513 C   0  0  0  0  0  0  0  0  0  0  0  0
    7.9200   -5.9025    3.7932 O   0  0  0  0  0  0  0  0  0  0  0  0
    5.8972   -5.1101    3.0161 O   0  0  0  0  0  0  0  0  0  0  0  0
    3.5674   -5.9192    2.2982 C   0  0  1  0  0  0  0  0  0  0  0  0
    2.9977   -6.3849    0.9061 C   0  0  0  0  0  0  0  0  0  0  0  0
   -1.7389   -8.6421    4.4239 H   0  0  0  0  0  0  0  0  0  0  0  0
   -2.5616   -9.6621    3.2262 H   0  0  0  0  0  0  0  0  0  0  0  0
   -2.7817   -7.8788    3.2388 H   0  0  0  0  0  0  0  0  0  0  0  0
   -1.2313   -8.4455    1.4347 H   0  0  0  0  0  0  0  0  0  0  0  0
   -0.3232  -10.6141    2.3376 H   0  0  0  0  0  0  0  0  0  0  0  0
    0.8913   -9.5607    1.6896 H   0  0  0  0  0  0  0  0  0  0  0  0
    0.1708   -9.8707    4.6203 H   0  0  0  0  0  0  0  0  0  0  0  0
    1.6557  -10.4145    3.8664 H   0  0  0  0  0  0  0  0  0  0  0  0
    0.4663   -7.0364    1.9487 H   0  0  0  0  0  0  0  0  0  0  0  0
   -0.8958   -6.3794    2.8492 H   0  0  0  0  0  0  0  0  0  0  0  0
    4.4397   -7.8073    2.7007 H   0  0  0  0  0  0  0  0  0  0  0  0
    4.7330   -8.0371    4.8711 H   0  0  0  0  0  0  0  0  0  0  0  0
    4.9533   -6.3396    4.7957 H   0  0  0  0  0  0  0  0  0  0  0  0
    3.5757   -7.1137    6.6451 H   0  0  0  0  0  0  0  0  0  0  0  0
    2.9059   -9.0504    5.5022 H   0  0  0  0  0  0  0  0  0  0  0  0
    0.2725   -8.0342    6.5674 H   0  0  0  0  0  0  0  0  0  0  0  0
    1.6806   -8.3284    7.5972 H   0  0  0  0  0  0  0  0  0  0  0  0
    1.0045   -9.6235    6.6515 H   0  0  0  0  0  0  0  0  0  0  0  0
    0.8823   -4.5095    6.8618 H   0  0  0  0  0  0  0  0  0  0  0  0
    1.3028   -6.0522    7.4961 H   0  0  0  0  0  0  0  0  0  0  0  0
    0.3499   -5.9158    6.0015 H   0  0  0  0  0  0  0  0  0  0  0  0
    3.0166   -3.8412    7.1542 H   0  0  0  0  0  0  0  0  0  0  0  0
    4.3648   -5.0060    6.8887 H   0  0  0  0  0  0  0  0  0  0  0  0
    3.7551   -2.7357    5.2235 H   0  0  0  0  0  0  0  0  0  0  0  0
    4.7523   -4.1456    4.7581 H   0  0  0  0  0  0  0  0  0  0  0  0
    1.6989   -2.8483    4.1071 H   0  0  0  0  0  0  0  0  0  0  0  0
    1.5827   -5.2460    2.7819 H   0  0  0  0  0  0  0  0  0  0  0  0
    2.2125   -3.8063    1.0766 H   0  0  0  0  0  0  0  0  0  0  0  0
    1.9351   -2.7682    2.4053 H   0  0  0  0  0  0  0  0  0  0  0  0
    3.9058   -2.0420    1.2969 H   0  0  0  0  0  0  0  0  0  0  0  0
    4.4260   -2.6991    2.8331 H   0  0  0  0  0  0  0  0  0  0  0  0
    4.4648   -4.1146    0.1617 H   0  0  0  0  0  0  0  0  0  0  0  0
    6.8012   -2.9960    1.7045 H   0  0  0  0  0  0  0  0  0  0  0  0
    6.0847   -2.3747    0.2338 H   0  0  0  0  0  0  0  0  0  0  0  0
    6.8989   -3.9303    0.2069 H   0  0  0  0  0  0  0  0  0  0  0  0
    5.5265   -6.6473    0.1488 H   0  0  0  0  0  0  0  0  0  0  0  0
    7.7514   -7.2775    1.3417 H   0  0  0  0  0  0  0  0  0  0  0  0
    3.1487   -5.6344    0.1287 H   0  0  0  0  0  0  0  0  0  0  0  0
    1.9673   -6.6252    0.8581 H   0  0  0  0  0  0  0  0  0  0  0  0
    3.5646   -7.2548    0.5496 H   0  0  0  0  0  0  0  0  0  0  0  0
  1  2  1  0
  1 33  1  0
  1 34  1  0
  1 35  1  0
  2  7  1  0
  2  3  1  0
  2 36  1  6
  3  4  1  0
  3 37  1  0
  3 38  1  0
  4  5  1  0
  4 39  1  0
  4 40  1  0
  5 12  1  0
  5  6  1  1
  5  8  1  0
  6  7  1  0
  7 41  1  0
  7 42  1  0
  8  9  1  0
  9 31  1  0
  9 10  1  0
  9 43  1  6
 10 11  1  0
 10 44  1  0
 10 45  1  0
 11 12  1  0
 11 14  1  0
 11 46  1  1
 12 13  1  0
 12 47  1  6
 13 48  1  0
 13 49  1  0
 13 50  1  0
 14 18  1  0
 14 15  1  1
 14 16  1  0
 15 51  1  0
 15 52  1  0
 15 53  1  0
 16 17  1  0
 16 54  1  0
 16 55  1  0
 17 18  1  0
 17 56  1  0
 17 57  1  0
 18 19  1  6
 18 20  1  0
 19 58  1  0
 20 31  1  0
 20 21  1  0
 20 59  1  6
 21 22  1  0
 21 60  1  0
 21 61  1  0
 22 23  1  0
 22 62  1  0
 22 63  1  0
 23 24  1  0
 23 25  1  0
 23 64  1  6
 24 65  1  0
 24 66  1  0
 24 67  1  0
 25 30  1  1
 25 26  1  0
 25 31  1  0
 26 27  2  0
 26 68  1  0
 27 28  1  0
 27 69  1  0
 28 29  2  0
 28 30  1  0
 31 32  1  6
 32 70  1  0
 32 71  1  0
 32 72  1  0
M  END
>  <i_m_ct_stereo_status>  (3) 
1

>  <s_m_source_file>  (3) 
/var/tmp/pbs.5076255.sched01/tmp8nmo4hef/06hb_edth.sdf

>  <i_m_source_file_index>  (3) 
1

>  <i_lp_mmshare_version>  (3) 
48012

>  <i_f3d_flags>  (3) 
0

>  <s_epik_input>  (3) 
TzFbQ0gyXVtDQEhdKFtDSDNdKVtDSDJdW0NIMl1bQ0BAXTEyT1tDQEhdM1tDQF00KFtDSDNdKVtDQEBdNShbQ0hdPVtDSF1DKD1PKU81KVtDQEhdKFtDSDNdKVtDSDJdW0NIMl1bQ0BASF00W0NAQF02KFtPSF0pW0NAXShbQ0gzXSkoW0NIMl1bQ0gyXTYpW0NIXShbQ0gyXTMpW0NASF0yW0NIM10=

>  <s_epik_cmdline>  (3) 
J2VwaWtfcHl0aG9uJywgJy1waHQnLCAnMi4wJywgJy1waCcsICc3LjAnLCAnLXRuJywgJzgnLCAnLW1hJywgJzIwMCcsICctaW1hZScsICc8aW5maWxlLm1hZT4nLCAnLW9tYWUnLCAnPG91dGZpbGUubWFlPic=

>  <r_lp_tautomer_probability>  (3) 
1

>  <r_epik_Ionization_Penalty>  (3) 
6.42769e-07

>  <r_epik_Ionization_Penalty_Charging>  (3) 
0

>  <r_epik_Ionization_Penalty_Neutral>  (3) 
6.42769e-07

>  <r_epik_State_Penalty>  (3) 
-0

>  <r_epik_Charging_Adjusted_Penalty>  (3) 
0

>  <i_epik_Tot_Q>  (3) 
0

>  <i_epik_Tot_abs_Q>  (3) 
0

>  <s_epik_Chemistry_Notes>  (3) 
This compound has an ester and may undergo hydrolysis at high or low pH.

>  <s_lp_Force_Field>  (3) 
OPLS3e

>  <r_lp_Energy>  (3) 
93.0073

>  <b_lp_Chiralities_Consistent>  (3) 
1

>  <s_lp_Variant>  (3) 
0:0-1

>  <s_i_glide_gridfile>  (3) 
pfpi4k_grid

>  <i_i_glide_lignum>  (3) 
1

>  <i_i_glide_rotatable_bonds>  (3) 
1

>  <r_i_docking_score>  (3) 
-1.70887

>  <r_i_glide_ligand_efficiency>  (3) 
-0.0534023

>  <r_i_glide_ligand_efficiency_sa>  (3) 
-0.169542

>  <r_i_glide_ligand_efficiency_ln>  (3) 
-0.382664

>  <r_i_glide_gscore>  (3) 
-1.70887

>  <r_i_glide_lipo>  (3) 
-0.294031

>  <r_i_glide_hbond>  (3) 
0

>  <r_i_glide_metal>  (3) 
-0

>  <r_i_glide_rewards>  (3) 
-0.395373

>  <r_i_glide_evdw>  (3) 
-20.7094

>  <r_i_glide_ecoul>  (3) 
0.175316

>  <r_i_glide_erotb>  (3) 
0

>  <r_i_glide_esite>  (3) 
-0.0102955

>  <r_i_glide_emodel>  (3) 
-22.0266

>  <r_i_glide_energy>  (3) 
-20.5341

>  <r_i_glide_einternal>  (3) 
0.59999

>  <r_i_glide_intrahb_reward>  (3) 
-0

>  <i_i_glide_confnum>  (3) 
3

>  <i_i_glide_posenum>  (3) 
12

>  <r_i_glide_eff_state_penalty>  (3) 
0

>  <ligand_id>  (3) 
0

>  <original_smiles>  (3) 
CC1CCC2(OC1)OC1CC(C2C)C2(C)CCC2(O)C2CCC(C)C3(C=CC(=O)O3)C12C

>  <smiles>  (3) 
[H]OC12C([H])([H])C([H])([H])C1(C([H])([H])[H])C1([H])C([H])([H])C([H])(OC3(OC([H])([H])C([H])(C([H])([H])[H])C([H])([H])C3([H])[H])C1([H])C([H])([H])[H])C1(C([H])([H])[H])C3(OC(=O)C([H])=C3[H])C([H])(C([H])([H])[H])C([H])([H])C([H])([H])C21[H]

$$$$
0:1:0
     RDKit          3D

 72 77  0  0  1  0  0  0  0  0999 V2000
    0.6942   -9.0267    2.8734 C   0  0  0  0  0  0  0  0  0  0  0  0
    1.4553   -8.1569    1.8624 C   0  0  2  0  0  0  0  0  0  0  0  0
    2.9427   -8.0186    2.1984 C   0  0  0  0  0  0  0  0  0  0  0  0
    3.1112   -7.1559    3.4526 C   0  0  0  0  0  0  0  0  0  0  0  0
    2.3783   -5.7979    3.2700 C   0  0  2  0  0  0  0  0  0  0  0  0
    1.0214   -6.0376    2.9633 O   0  0  0  0  0  0  0  0  0  0  0  0
    0.8179   -6.7675    1.7485 C   0  0  0  0  0  0  0  0  0  0  0  0
    3.0221   -5.1428    2.1762 O   0  0  0  0  0  0  0  0  0  0  0  0
    3.1975   -3.7516    2.3580 C   0  0  2  0  0  0  0  0  0  0  0  0
    1.9147   -3.1481    2.9217 C   0  0  0  0  0  0  0  0  0  0  0  0
    2.0554   -3.4147    4.3911 C   0  0  1  0  0  0  0  0  0  0  0  0
    2.4611   -4.9275    4.6129 C   0  0  1  0  0  0  0  0  0  0  0  0
    1.6839   -5.5547    5.7934 C   0  0  0  0  0  0  0  0  0  0  0  0
    3.0069   -2.3008    4.9761 C   0  0  1  0  0  0  0  0  0  0  0  0
    2.0240   -1.2813    5.5787 C   0  0  0  0  0  0  0  0  0  0  0  0
    4.0868   -2.7269    5.9956 C   0  0  0  0  0  0  0  0  0  0  0  0
    5.1549   -2.6107    4.9236 C   0  0  0  0  0  0  0  0  0  0  0  0
    4.2221   -1.6904    4.1077 C   0  0  2  0  0  0  0  0  0  0  0  0
    4.4576   -0.3409    4.4683 O   0  0  0  0  0  0  0  0  0  0  0  0
    4.3788   -1.5601    2.4956 C   0  0  1  0  0  0  0  0  0  0  0  0
    5.7707   -0.9519    2.1399 C   0  0  0  0  0  0  0  0  0  0  0  0
    6.1968   -1.0555    0.6714 C   0  0  0  0  0  0  0  0  0  0  0  0
    6.2478   -2.4975    0.1352 C   0  0  1  0  0  0  0  0  0  0  0  0
    7.6995   -2.9797   -0.1085 C   0  0  0  0  0  0  0  0  0  0  0  0
    5.3806   -3.4759    0.9865 C   0  0  1  0  0  0  0  0  0  0  0  0
    5.1532   -4.7723    0.2366 C   0  0  0  0  0  0  0  0  0  0  0  0
    5.7201   -5.7948    0.8504 C   0  0  0  0  0  0  0  0  0  0  0  0
    6.3707   -5.2901    2.0545 C   0  0  0  0  0  0  0  0  0  0  0  0
    6.9803   -5.9433    2.8929 O   0  0  0  0  0  0  0  0  0  0  0  0
    6.1622   -3.9518    2.0781 O   0  0  0  0  0  0  0  0  0  0  0  0
    4.0517   -2.8003    1.5252 C   0  0  1  0  0  0  0  0  0  0  0  0
    3.1972   -2.3313    0.3089 C   0  0  0  0  0  0  0  0  0  0  0  0
    0.7075   -8.5892    3.8705 H   0  0  0  0  0  0  0  0  0  0  0  0
    1.1228  -10.0257    2.9479 H   0  0  0  0  0  0  0  0  0  0  0  0
   -0.3539   -9.1250    2.5966 H   0  0  0  0  0  0  0  0  0  0  0  0
    1.4147   -8.6355    0.8858 H   0  0  0  0  0  0  0  0  0  0  0  0
    3.3922   -8.9985    2.3641 H   0  0  0  0  0  0  0  0  0  0  0  0
    3.4896   -7.5782    1.3617 H   0  0  0  0  0  0  0  0  0  0  0  0
    2.7147   -7.6836    4.3189 H   0  0  0  0  0  0  0  0  0  0  0  0
    4.1672   -6.9581    3.6527 H   0  0  0  0  0  0  0  0  0  0  0  0
    1.2281   -6.2254    0.8948 H   0  0  0  0  0  0  0  0  0  0  0  0
   -0.2486   -6.8570    1.5464 H   0  0  0  0  0  0  0  0  0  0  0  0
    3.9483   -3.8867    3.1075 H   0  0  0  0  0  0  0  0  0  0  0  0
    1.7959   -2.0849    2.7414 H   0  0  0  0  0  0  0  0  0  0  0  0
    1.0325   -3.6181    2.5006 H   0  0  0  0  0  0  0  0  0  0  0  0
    1.0457   -3.3137    4.7933 H   0  0  0  0  0  0  0  0  0  0  0  0
    3.5138   -4.9971    4.8830 H   0  0  0  0  0  0  0  0  0  0  0  0
    0.6035   -5.5384    5.6259 H   0  0  0  0  0  0  0  0  0  0  0  0
    1.8846   -4.9887    6.7068 H   0  0  0  0  0  0  0  0  0  0  0  0
    1.9725   -6.5879    6.0043 H   0  0  0  0  0  0  0  0  0  0  0  0
    2.5396   -0.5035    6.1391 H   0  0  0  0  0  0  0  0  0  0  0  0
    1.3471   -1.7473    6.2965 H   0  0  0  0  0  0  0  0  0  0  0  0
    1.4158   -0.7933    4.8172 H   0  0  0  0  0  0  0  0  0  0  0  0
    4.2419   -1.9808    6.7729 H   0  0  0  0  0  0  0  0  0  0  0  0
    3.9953   -3.7055    6.4538 H   0  0  0  0  0  0  0  0  0  0  0  0
    6.0487   -2.1315    5.3064 H   0  0  0  0  0  0  0  0  0  0  0  0
    5.4074   -3.5707    4.4824 H   0  0  0  0  0  0  0  0  0  0  0  0
    3.7686    0.1688    4.0824 H   0  0  0  0  0  0  0  0  0  0  0  0
    3.6650   -0.7877    2.1893 H   0  0  0  0  0  0  0  0  0  0  0  0
    5.7791    0.1045    2.3980 H   0  0  0  0  0  0  0  0  0  0  0  0
    6.5374   -1.3941    2.7731 H   0  0  0  0  0  0  0  0  0  0  0  0
    5.5388   -0.4350    0.0601 H   0  0  0  0  0  0  0  0  0  0  0  0
    7.1814   -0.6163    0.5755 H   0  0  0  0  0  0  0  0  0  0  0  0
    5.8027   -2.4542   -0.8589 H   0  0  0  0  0  0  0  0  0  0  0  0
    8.2767   -3.0251    0.8150 H   0  0  0  0  0  0  0  0  0  0  0  0
    8.2327   -2.3196   -0.7913 H   0  0  0  0  0  0  0  0  0  0  0  0
    7.7236   -3.9721   -0.5579 H   0  0  0  0  0  0  0  0  0  0  0  0
    4.5873   -4.8345   -0.6860 H   0  0  0  0  0  0  0  0  0  0  0  0
    5.7162   -6.8366    0.5540 H   0  0  0  0  0  0  0  0  0  0  0  0
    3.7079   -1.6062   -0.3244 H   0  0  0  0  0  0  0  0  0  0  0  0
    2.2811   -1.8302    0.6213 H   0  0  0  0  0  0  0  0  0  0  0  0
    2.8963   -3.1609   -0.3353 H   0  0  0  0  0  0  0  0  0  0  0  0
  1  2  1  0
  1 33  1  0
  1 34  1  0
  1 35  1  0
  2  7  1  0
  2  3  1  0
  2 36  1  6
  3  4  1  0
  3 37  1  0
  3 38  1  0
  4  5  1  0
  4 39  1  0
  4 40  1  0
  5 12  1  0
  5  6  1  6
  5  8  1  0
  6  7  1  0
  7 41  1  0
  7 42  1  0
  8  9  1  0
  9 31  1  0
  9 10  1  0
  9 43  1  1
 10 11  1  0
 10 44  1  0
 10 45  1  0
 11 12  1  0
 11 14  1  0
 11 46  1  1
 12 13  1  0
 12 47  1  1
 13 48  1  0
 13 49  1  0
 13 50  1  0
 14 18  1  0
 14 15  1  1
 14 16  1  0
 15 51  1  0
 15 52  1  0
 15 53  1  0
 16 17  1  0
 16 54  1  0
 16 55  1  0
 17 18  1  0
 17 56  1  0
 17 57  1  0
 18 19  1  1
 18 20  1  0
 19 58  1  0
 20 31  1  0
 20 21  1  0
 20 59  1  6
 21 22  1  0
 21 60  1  0
 21 61  1  0
 22 23  1  0
 22 62  1  0
 22 63  1  0
 23 24  1  0
 23 25  1  0
 23 64  1  6
 24 65  1  0
 24 66  1  0
 24 67  1  0
 25 30  1  1
 25 26  1  0
 25 31  1  0
 26 27  2  0
 26 68  1  0
 27 28  1  0
 27 69  1  0
 28 29  2  0
 28 30  1  0
 31 32  1  6
 32 70  1  0
 32 71  1  0
 32 72  1  0
M  END
>  <i_m_ct_stereo_status>  (4) 
1

>  <s_m_source_file>  (4) 
/var/tmp/pbs.5076255.sched01/tmp8nmo4hef/06hb_edth.sdf

>  <i_m_source_file_index>  (4) 
2

>  <i_lp_mmshare_version>  (4) 
48012

>  <i_f3d_flags>  (4) 
0

>  <s_epik_input>  (4) 
TzFbQ0gyXVtDQEhdKFtDSDNdKVtDSDJdW0NIMl1bQ0BAXTEyT1tDQEhdM1tDQF00KFtDSDNdKVtDQEBdNShbQ0hdPVtDSF1DKD1PKU81KVtDQEhdKFtDSDNdKVtDSDJdW0NIMl1bQ0BASF00W0NAQF02KFtPSF0pW0NAXShbQ0gzXSkoW0NIMl1bQ0gyXTYpW0NIXShbQ0gyXTMpW0NASF0yW0NIM10=

>  <s_epik_cmdline>  (4) 
J2VwaWtfcHl0aG9uJywgJy1waHQnLCAnMi4wJywgJy1waCcsICc3LjAnLCAnLXRuJywgJzgnLCAnLW1hJywgJzIwMCcsICctaW1hZScsICc8aW5maWxlLm1hZT4nLCAnLW9tYWUnLCAnPG91dGZpbGUubWFlPic=

>  <r_lp_tautomer_probability>  (4) 
1

>  <r_epik_Ionization_Penalty>  (4) 
6.42769e-07

>  <r_epik_Ionization_Penalty_Charging>  (4) 
0

>  <r_epik_Ionization_Penalty_Neutral>  (4) 
6.42769e-07

>  <r_epik_State_Penalty>  (4) 
-0

>  <r_epik_Charging_Adjusted_Penalty>  (4) 
0

>  <i_epik_Tot_Q>  (4) 
0

>  <i_epik_Tot_abs_Q>  (4) 
0

>  <s_epik_Chemistry_Notes>  (4) 
This compound has an ester and may undergo hydrolysis at high or low pH.

>  <s_lp_Force_Field>  (4) 
OPLS3e

>  <r_lp_Energy>  (4) 
116.459

>  <b_lp_Chiralities_Consistent>  (4) 
1

>  <s_lp_Variant>  (4) 
0:0-2

>  <s_i_glide_gridfile>  (4) 
pfpi4k_grid

>  <i_i_glide_lignum>  (4) 
2

>  <i_i_glide_rotatable_bonds>  (4) 
1

>  <r_i_docking_score>  (4) 
-2.31699

>  <r_i_glide_ligand_efficiency>  (4) 
-0.0724059

>  <r_i_glide_ligand_efficiency_sa>  (4) 
-0.229874

>  <r_i_glide_ligand_efficiency_ln>  (4) 
-0.518837

>  <r_i_glide_gscore>  (4) 
-2.31699

>  <r_i_glide_lipo>  (4) 
-0.638996

>  <r_i_glide_hbond>  (4) 
0

>  <r_i_glide_metal>  (4) 
-0

>  <r_i_glide_rewards>  (4) 
-0.445598

>  <r_i_glide_evdw>  (4) 
-20.8146

>  <r_i_glide_ecoul>  (4) 
-1.26738

>  <r_i_glide_erotb>  (4) 
0

>  <r_i_glide_esite>  (4) 
-0.00155656

>  <r_i_glide_emodel>  (4) 
-24.4552

>  <r_i_glide_energy>  (4) 
-22.082

>  <r_i_glide_einternal>  (4) 
0.567083

>  <r_i_glide_intrahb_reward>  (4) 
-0

>  <i_i_glide_confnum>  (4) 
3

>  <i_i_glide_posenum>  (4) 
1

>  <r_i_glide_eff_state_penalty>  (4) 
0

>  <ligand_id>  (4) 
0

>  <original_smiles>  (4) 
CC1CCC2(OC1)OC1CC(C2C)C2(C)CCC2(O)C2CCC(C)C3(C=CC(=O)O3)C12C

>  <smiles>  (4) 
[H]OC12C([H])([H])C([H])([H])C1(C([H])([H])[H])C1([H])C([H])([H])C([H])(OC3(OC([H])([H])C([H])(C([H])([H])[H])C([H])([H])C3([H])[H])C1([H])C([H])([H])[H])C1(C([H])([H])[H])C3(OC(=O)C([H])=C3[H])C([H])(C([H])([H])[H])C([H])([H])C([H])([H])C21[H]

$$$$
0:1:1
     RDKit          3D

 72 77  0  0  1  0  0  0  0  0999 V2000
    0.4423   -9.1346    3.3088 C   0  0  0  0  0  0  0  0  0  0  0  0
    1.1366   -8.2613    2.2562 C   0  0  2  0  0  0  0  0  0  0  0  0
    2.6408   -8.1076    2.5107 C   0  0  0  0  0  0  0  0  0  0  0  0
    2.8691   -7.2432    3.7500 C   0  0  0  0  0  0  0  0  0  0  0  0
    2.1146   -5.8942    3.5959 C   0  0  2  0  0  0  0  0  0  0  0  0
    0.7512   -6.1375    3.3679 O   0  0  0  0  0  0  0  0  0  0  0  0
    0.4832   -6.8784    2.1718 C   0  0  0  0  0  0  0  0  0  0  0  0
    2.6796   -5.2327    2.4669 O   0  0  0  0  0  0  0  0  0  0  0  0
    2.8641   -3.8417    2.6387 C   0  0  2  0  0  0  0  0  0  0  0  0
    1.6072   -3.2467    3.2667 C   0  0  0  0  0  0  0  0  0  0  0  0
    1.8286   -3.5165    4.7302 C   0  0  1  0  0  0  0  0  0  0  0  0
    2.2610   -5.0210    4.9367 C   0  0  1  0  0  0  0  0  0  0  0  0
    1.5532   -5.6455    6.1605 C   0  0  0  0  0  0  0  0  0  0  0  0
    2.7972   -2.3853    5.2618 C   0  0  1  0  0  0  0  0  0  0  0  0
    1.8388   -1.3679    5.9155 C   0  0  0  0  0  0  0  0  0  0  0  0
    3.9412   -2.7931    6.2245 C   0  0  0  0  0  0  0  0  0  0  0  0
    4.9517   -2.6691    5.0893 C   0  0  0  0  0  0  0  0  0  0  0  0
    3.9583   -1.7635    4.3285 C   0  0  2  0  0  0  0  0  0  0  0  0
    4.1837   -0.4079    4.6743 O   0  0  0  0  0  0  0  0  0  0  0  0
    4.0335   -1.6432    2.7125 C   0  0  1  0  0  0  0  0  0  0  0  0
    5.3969   -1.0153    2.2868 C   0  0  0  0  0  0  0  0  0  0  0  0
    5.7494   -1.1177    0.7976 C   0  0  0  0  0  0  0  0  0  0  0  0
    5.7809   -2.5631    0.2596 C   0  0  1  0  0  0  0  0  0  0  0  0
    7.2219   -3.0292   -0.0600 C   0  0  0  0  0  0  0  0  0  0  0  0
    4.9705   -3.5497    1.1562 C   0  0  1  0  0  0  0  0  0  0  0  0
    4.7154   -4.8448    0.4202 C   0  0  0  0  0  0  0  0  0  0  0  0
    5.3303   -5.8652    1.0056 C   0  0  0  0  0  0  0  0  0  0  0  0
    6.0337   -5.3444    2.1713 C   0  0  0  0  0  0  0  0  0  0  0  0
    6.6929   -5.9933    2.9834 O   0  0  0  0  0  0  0  0  0  0  0  0
    5.8146   -4.0109    2.2130 O   0  0  0  0  0  0  0  0  0  0  0  0
    3.6634   -2.8852    1.7578 C   0  0  1  0  0  0  0  0  0  0  0  0
    2.7427   -2.4218    0.5905 C   0  0  0  0  0  0  0  0  0  0  0  0
    0.5074   -8.6950    4.3030 H   0  0  0  0  0  0  0  0  0  0  0  0
    0.8833  -10.1291    3.3621 H   0  0  0  0  0  0  0  0  0  0  0  0
   -0.6182   -9.2486    3.0928 H   0  0  0  0  0  0  0  0  0  0  0  0
    1.0271   -8.7504    1.2888 H   0  0  0  0  0  0  0  0  0  0  0  0
    3.1092   -9.0837    2.6501 H   0  0  0  0  0  0  0  0  0  0  0  0
    3.1336   -7.6651    1.6418 H   0  0  0  0  0  0  0  0  0  0  0  0
    2.5198   -7.7709    4.6358 H   0  0  0  0  0  0  0  0  0  0  0  0
    3.9319   -7.0333    3.8923 H   0  0  0  0  0  0  0  0  0  0  0  0
    0.8475   -6.3353    1.2977 H   0  0  0  0  0  0  0  0  0  0  0  0
   -0.5926   -6.9788    2.0270 H   0  0  0  0  0  0  0  0  0  0  0  0
    3.6566   -3.9649    3.3492 H   0  0  0  0  0  0  0  0  0  0  0  0
    1.4693   -2.1809    3.0952 H   0  0  0  0  0  0  0  0  0  0  0  0
    0.7062   -3.7204    2.8912 H   0  0  0  0  0  0  0  0  0  0  0  0
    0.8421   -3.4148    5.1854 H   0  0  0  0  0  0  0  0  0  0  0  0
    3.3230   -5.0729    5.1480 H   0  0  0  0  0  0  0  0  0  0  0  0
    0.4667   -5.6388    6.0482 H   0  0  0  0  0  0  0  0  0  0  0  0
    1.7972   -5.0717    7.0578 H   0  0  0  0  0  0  0  0  0  0  0  0
    1.8653   -6.6712    6.3565 H   0  0  0  0  0  0  0  0  0  0  0  0
    2.3707   -0.5800    6.4499 H   0  0  0  0  0  0  0  0  0  0  0  0
    1.1999   -1.8379    6.6650 H   0  0  0  0  0  0  0  0  0  0  0  0
    1.1957   -0.8864    5.1809 H   0  0  0  0  0  0  0  0  0  0  0  0
    4.1274   -2.0507    7.0007 H   0  0  0  0  0  0  0  0  0  0  0  0
    3.8794   -3.7729    6.6943 H   0  0  0  0  0  0  0  0  0  0  0  0
    5.8710   -2.1823    5.3965 H   0  0  0  0  0  0  0  0  0  0  0  0
    5.1848   -3.6336    4.6442 H   0  0  0  0  0  0  0  0  0  0  0  0
    4.1774   -0.3752    5.6139 H   0  0  0  0  0  0  0  0  0  0  0  0
    3.3019   -0.8760    2.4572 H   0  0  0  0  0  0  0  0  0  0  0  0
    5.4025    0.0460    2.5422 H   0  0  0  0  0  0  0  0  0  0  0  0
    6.2060   -1.4481    2.8705 H   0  0  0  0  0  0  0  0  0  0  0  0
    5.0548   -0.5096    0.2214 H   0  0  0  0  0  0  0  0  0  0  0  0
    6.7184   -0.6482    0.6485 H   0  0  0  0  0  0  0  0  0  0  0  0
    5.2825   -2.5260   -0.7115 H   0  0  0  0  0  0  0  0  0  0  0  0
    7.8489   -3.0645    0.8313 H   0  0  0  0  0  0  0  0  0  0  0  0
    7.7073   -2.3653   -0.7754 H   0  0  0  0  0  0  0  0  0  0  0  0
    7.2289   -4.0230   -0.5033 H   0  0  0  0  0  0  0  0  0  0  0  0
    4.1031   -4.9163   -0.4693 H   0  0  0  0  0  0  0  0  0  0  0  0
    5.3197   -6.9027    0.7107 H   0  0  0  0  0  0  0  0  0  0  0  0
    3.2187   -1.6977   -0.0707 H   0  0  0  0  0  0  0  0  0  0  0  0
    1.8400   -1.9228    0.9477 H   0  0  0  0  0  0  0  0  0  0  0  0
    2.4203   -3.2572   -0.0305 H   0  0  0  0  0  0  0  0  0  0  0  0
  1  2  1  0
  1 33  1  0
  1 34  1  0
  1 35  1  0
  2  7  1  0
  2  3  1  0
  2 36  1  6
  3  4  1  0
  3 37  1  0
  3 38  1  0
  4  5  1  0
  4 39  1  0
  4 40  1  0
  5 12  1  0
  5  6  1  6
  5  8  1  0
  6  7  1  0
  7 41  1  0
  7 42  1  0
  8  9  1  0
  9 31  1  0
  9 10  1  0
  9 43  1  1
 10 11  1  0
 10 44  1  0
 10 45  1  0
 11 12  1  0
 11 14  1  0
 11 46  1  1
 12 13  1  0
 12 47  1  1
 13 48  1  0
 13 49  1  0
 13 50  1  0
 14 18  1  0
 14 15  1  1
 14 16  1  0
 15 51  1  0
 15 52  1  0
 15 53  1  0
 16 17  1  0
 16 54  1  0
 16 55  1  0
 17 18  1  0
 17 56  1  0
 17 57  1  0
 18 19  1  1
 18 20  1  0
 19 58  1  0
 20 31  1  0
 20 21  1  0
 20 59  1  6
 21 22  1  0
 21 60  1  0
 21 61  1  0
 22 23  1  0
 22 62  1  0
 22 63  1  0
 23 24  1  0
 23 25  1  0
 23 64  1  6
 24 65  1  0
 24 66  1  0
 24 67  1  0
 25 30  1  1
 25 26  1  0
 25 31  1  0
 26 27  2  0
 26 68  1  0
 27 28  1  0
 27 69  1  0
 28 29  2  0
 28 30  1  0
 31 32  1  6
 32 70  1  0
 32 71  1  0
 32 72  1  0
M  END
>  <i_m_ct_stereo_status>  (5) 
1

>  <s_m_source_file>  (5) 
/var/tmp/pbs.5076255.sched01/tmp8nmo4hef/06hb_edth.sdf

>  <i_m_source_file_index>  (5) 
2

>  <i_lp_mmshare_version>  (5) 
48012

>  <i_f3d_flags>  (5) 
0

>  <s_epik_input>  (5) 
TzFbQ0gyXVtDQEhdKFtDSDNdKVtDSDJdW0NIMl1bQ0BAXTEyT1tDQEhdM1tDQF00KFtDSDNdKVtDQEBdNShbQ0hdPVtDSF1DKD1PKU81KVtDQEhdKFtDSDNdKVtDSDJdW0NIMl1bQ0BASF00W0NAQF02KFtPSF0pW0NAXShbQ0gzXSkoW0NIMl1bQ0gyXTYpW0NIXShbQ0gyXTMpW0NASF0yW0NIM10=

>  <s_epik_cmdline>  (5) 
J2VwaWtfcHl0aG9uJywgJy1waHQnLCAnMi4wJywgJy1waCcsICc3LjAnLCAnLXRuJywgJzgnLCAnLW1hJywgJzIwMCcsICctaW1hZScsICc8aW5maWxlLm1hZT4nLCAnLW9tYWUnLCAnPG91dGZpbGUubWFlPic=

>  <r_lp_tautomer_probability>  (5) 
1

>  <r_epik_Ionization_Penalty>  (5) 
6.42769e-07

>  <r_epik_Ionization_Penalty_Charging>  (5) 
0

>  <r_epik_Ionization_Penalty_Neutral>  (5) 
6.42769e-07

>  <r_epik_State_Penalty>  (5) 
-0

>  <r_epik_Charging_Adjusted_Penalty>  (5) 
0

>  <i_epik_Tot_Q>  (5) 
0

>  <i_epik_Tot_abs_Q>  (5) 
0

>  <s_epik_Chemistry_Notes>  (5) 
This compound has an ester and may undergo hydrolysis at high or low pH.

>  <s_lp_Force_Field>  (5) 
OPLS3e

>  <r_lp_Energy>  (5) 
116.459

>  <b_lp_Chiralities_Consistent>  (5) 
1

>  <s_lp_Variant>  (5) 
0:0-2

>  <s_i_glide_gridfile>  (5) 
pfpi4k_grid

>  <i_i_glide_lignum>  (5) 
2

>  <i_i_glide_rotatable_bonds>  (5) 
1

>  <r_i_docking_score>  (5) 
-2.22373

>  <r_i_glide_ligand_efficiency>  (5) 
-0.0694916

>  <r_i_glide_ligand_efficiency_sa>  (5) 
-0.220622

>  <r_i_glide_ligand_efficiency_ln>  (5) 
-0.497954

>  <r_i_glide_gscore>  (5) 
-2.22373

>  <r_i_glide_lipo>  (5) 
-0.62038

>  <r_i_glide_hbond>  (5) 
0

>  <r_i_glide_metal>  (5) 
-0

>  <r_i_glide_rewards>  (5) 
-0.433004

>  <r_i_glide_evdw>  (5) 
-20.9603

>  <r_i_glide_ecoul>  (5) 
-0.811537

>  <r_i_glide_erotb>  (5) 
0

>  <r_i_glide_esite>  (5) 
-0.000600026

>  <r_i_glide_emodel>  (5) 
-24.3331

>  <r_i_glide_energy>  (5) 
-21.7719

>  <r_i_glide_einternal>  (5) 
0.000181179

>  <r_i_glide_intrahb_reward>  (5) 
-0

>  <i_i_glide_confnum>  (5) 
1

>  <i_i_glide_posenum>  (5) 
17

>  <r_i_glide_eff_state_penalty>  (5) 
0

>  <ligand_id>  (5) 
0

>  <original_smiles>  (5) 
CC1CCC2(OC1)OC1CC(C2C)C2(C)CCC2(O)C2CCC(C)C3(C=CC(=O)O3)C12C

>  <smiles>  (5) 
[H]OC12C([H])([H])C([H])([H])C1(C([H])([H])[H])C1([H])C([H])([H])C([H])(OC3(OC([H])([H])C([H])(C([H])([H])[H])C([H])([H])C3([H])[H])C1([H])C([H])([H])[H])C1(C([H])([H])[H])C3(OC(=O)C([H])=C3[H])C([H])(C([H])([H])[H])C([H])([H])C([H])([H])C21[H]

$$$$
0:1:2
     RDKit          3D

 72 77  0  0  1  0  0  0  0  0999 V2000
    2.4335   -9.1321    4.3402 C   0  0  0  0  0  0  0  0  0  0  0  0
    2.7237   -8.4568    2.9868 C   0  0  2  0  0  0  0  0  0  0  0  0
    4.1485   -7.8872    2.9092 C   0  0  0  0  0  0  0  0  0  0  0  0
    4.2915   -6.6818    3.8446 C   0  0  0  0  0  0  0  0  0  0  0  0
    3.1878   -5.6367    3.5326 C   0  0  2  0  0  0  0  0  0  0  0  0
    1.9278   -6.2466    3.6384 O   0  0  0  0  0  0  0  0  0  0  0  0
    1.7151   -7.3282    2.7196 C   0  0  0  0  0  0  0  0  0  0  0  0
    3.4216   -5.1944    2.2006 O   0  0  0  0  0  0  0  0  0  0  0  0
    3.2197   -3.8090    1.9980 C   0  0  2  0  0  0  0  0  0  0  0  0
    1.9359   -3.3760    2.7000 C   0  0  0  0  0  0  0  0  0  0  0  0
    2.4037   -3.1695    4.1116 C   0  0  1  0  0  0  0  0  0  0  0  0
    3.2559   -4.4130    4.5767 C   0  0  1  0  0  0  0  0  0  0  0  0
    2.9031   -4.8281    6.0227 C   0  0  0  0  0  0  0  0  0  0  0  0
    3.0907   -1.7537    4.1691 C   0  0  1  0  0  0  0  0  0  0  0  0
    1.9798   -0.8481    4.7346 C   0  0  0  0  0  0  0  0  0  0  0  0
    4.4169   -1.5972    4.9501 C   0  0  0  0  0  0  0  0  0  0  0  0
    5.1959   -1.5532    3.6431 C   0  0  0  0  0  0  0  0  0  0  0  0
    3.8935   -1.1558    2.9098 C   0  0  2  0  0  0  0  0  0  0  0  0
    3.7426    0.2534    2.8860 O   0  0  0  0  0  0  0  0  0  0  0  0
    3.7335   -1.4628    1.3242 C   0  0  1  0  0  0  0  0  0  0  0  0
    4.8223   -0.6900    0.5127 C   0  0  0  0  0  0  0  0  0  0  0  0
    4.9829   -1.1146   -0.9538 C   0  0  0  0  0  0  0  0  0  0  0  0
    5.3522   -2.6022   -1.1288 C   0  0  1  0  0  0  0  0  0  0  0  0
    6.8103   -2.8008   -1.5980 C   0  0  0  0  0  0  0  0  0  0  0  0
    4.9733   -3.4571    0.1177 C   0  0  1  0  0  0  0  0  0  0  0  0
    4.9611   -4.9239   -0.2331 C   0  0  0  0  0  0  0  0  0  0  0  0
    5.8777   -5.5980    0.4661 C   0  0  0  0  0  0  0  0  0  0  0  0
    6.5895   -4.6502    1.2813 C   0  0  0  0  0  0  0  0  0  0  0  0
    7.5277   -4.9362    2.0336 O   0  0  0  0  0  0  0  0  0  0  0  0
    6.0523   -3.4193    1.0654 O   0  0  0  0  0  0  0  0  0  0  0  0
    3.6241   -2.9741    0.7863 C   0  0  1  0  0  0  0  0  0  0  0  0
    2.4904   -3.0891   -0.2695 C   0  0  0  0  0  0  0  0  0  0  0  0
    2.4973   -8.4296    5.1688 H   0  0  0  0  0  0  0  0  0  0  0  0
    3.1338   -9.9430    4.5426 H   0  0  0  0  0  0  0  0  0  0  0  0
    1.4231   -9.5386    4.3641 H   0  0  0  0  0  0  0  0  0  0  0  0
    2.6250   -9.2032    2.2007 H   0  0  0  0  0  0  0  0  0  0  0  0
    4.8809   -8.6469    3.1845 H   0  0  0  0  0  0  0  0  0  0  0  0
    4.3913   -7.6013    1.8842 H   0  0  0  0  0  0  0  0  0  0  0  0
    4.2183   -7.0050    4.8807 H   0  0  0  0  0  0  0  0  0  0  0  0
    5.2658   -6.2006    3.7231 H   0  0  0  0  0  0  0  0  0  0  0  0
    1.7953   -6.9797    1.6884 H   0  0  0  0  0  0  0  0  0  0  0  0
    0.6958   -7.7024    2.8158 H   0  0  0  0  0  0  0  0  0  0  0  0
    4.0954   -3.5429    2.5503 H   0  0  0  0  0  0  0  0  0  0  0  0
    1.4916   -2.4623    2.3125 H   0  0  0  0  0  0  0  0  0  0  0  0
    1.1637   -4.1352    2.6330 H   0  0  0  0  0  0  0  0  0  0  0  0
    1.4945   -3.1731    4.7134 H   0  0  0  0  0  0  0  0  0  0  0  0
    4.3117   -4.1563    4.5860 H   0  0  0  0  0  0  0  0  0  0  0  0
    1.8502   -5.1053    6.1220 H   0  0  0  0  0  0  0  0  0  0  0  0
    3.0907   -3.9895    6.7005 H   0  0  0  0  0  0  0  0  0  0  0  0
    3.5041   -5.6624    6.3898 H   0  0  0  0  0  0  0  0  0  0  0  0
    2.3417    0.1570    4.9505 H   0  0  0  0  0  0  0  0  0  0  0  0
    1.5978   -1.2204    5.6825 H   0  0  0  0  0  0  0  0  0  0  0  0
    1.1391   -0.7483    4.0454 H   0  0  0  0  0  0  0  0  0  0  0  0
    4.4809   -0.6428    5.4682 H   0  0  0  0  0  0  0  0  0  0  0  0
    4.6853   -2.3937    5.6356 H   0  0  0  0  0  0  0  0  0  0  0  0
    5.9708   -0.7891    3.6341 H   0  0  0  0  0  0  0  0  0  0  0  0
    5.6306   -2.5227    3.4038 H   0  0  0  0  0  0  0  0  0  0  0  0
    4.2060    0.5718    2.1385 H   0  0  0  0  0  0  0  0  0  0  0  0
    2.7914   -0.9903    1.0259 H   0  0  0  0  0  0  0  0  0  0  0  0
    4.5715    0.3688    0.4846 H   0  0  0  0  0  0  0  0  0  0  0  0
    5.7862   -0.7460    1.0205 H   0  0  0  0  0  0  0  0  0  0  0  0
    4.0783   -0.8672   -1.5143 H   0  0  0  0  0  0  0  0  0  0  0  0
    5.7603   -0.4981   -1.3912 H   0  0  0  0  0  0  0  0  0  0  0  0
    4.7460   -2.9521   -1.9690 H   0  0  0  0  0  0  0  0  0  0  0  0
    7.5356   -2.4473   -0.8649 H   0  0  0  0  0  0  0  0  0  0  0  0
    6.9954   -2.2768   -2.5311 H   0  0  0  0  0  0  0  0  0  0  0  0
    7.0267   -3.8483   -1.7933 H   0  0  0  0  0  0  0  0  0  0  0  0
    4.2940   -5.3731   -0.9450 H   0  0  0  0  0  0  0  0  0  0  0  0
    6.1041   -6.6465    0.4444 H   0  0  0  0  0  0  0  0  0  0  0  0
    2.6591   -2.4919   -1.1671 H   0  0  0  0  0  0  0  0  0  0  0  0
    1.5675   -2.6885    0.1368 H   0  0  0  0  0  0  0  0  0  0  0  0
    2.3014   -4.1158   -0.5956 H   0  0  0  0  0  0  0  0  0  0  0  0
  1  2  1  0
  1 33  1  0
  1 34  1  0
  1 35  1  0
  2  7  1  0
  2  3  1  0
  2 36  1  6
  3  4  1  0
  3 37  1  0
  3 38  1  0
  4  5  1  0
  4 39  1  0
  4 40  1  0
  5 12  1  0
  5  6  1  6
  5  8  1  0
  6  7  1  0
  7 41  1  0
  7 42  1  0
  8  9  1  0
  9 31  1  0
  9 10  1  0
  9 43  1  1
 10 11  1  0
 10 44  1  0
 10 45  1  0
 11 12  1  0
 11 14  1  0
 11 46  1  1
 12 13  1  0
 12 47  1  1
 13 48  1  0
 13 49  1  0
 13 50  1  0
 14 18  1  0
 14 15  1  1
 14 16  1  0
 15 51  1  0
 15 52  1  0
 15 53  1  0
 16 17  1  0
 16 54  1  0
 16 55  1  0
 17 18  1  0
 17 56  1  0
 17 57  1  0
 18 19  1  6
 18 20  1  0
 19 58  1  0
 20 31  1  0
 20 21  1  0
 20 59  1  6
 21 22  1  0
 21 60  1  0
 21 61  1  0
 22 23  1  0
 22 62  1  0
 22 63  1  0
 23 24  1  0
 23 25  1  0
 23 64  1  6
 24 65  1  0
 24 66  1  0
 24 67  1  0
 25 30  1  1
 25 26  1  0
 25 31  1  0
 26 27  2  0
 26 68  1  0
 27 28  1  0
 27 69  1  0
 28 29  2  0
 28 30  1  0
 31 32  1  6
 32 70  1  0
 32 71  1  0
 32 72  1  0
M  END
>  <i_m_ct_stereo_status>  (6) 
1

>  <s_m_source_file>  (6) 
/var/tmp/pbs.5076255.sched01/tmp8nmo4hef/06hb_edth.sdf

>  <i_m_source_file_index>  (6) 
2

>  <i_lp_mmshare_version>  (6) 
48012

>  <i_f3d_flags>  (6) 
0

>  <s_epik_input>  (6) 
TzFbQ0gyXVtDQEhdKFtDSDNdKVtDSDJdW0NIMl1bQ0BAXTEyT1tDQEhdM1tDQF00KFtDSDNdKVtDQEBdNShbQ0hdPVtDSF1DKD1PKU81KVtDQEhdKFtDSDNdKVtDSDJdW0NIMl1bQ0BASF00W0NAQF02KFtPSF0pW0NAXShbQ0gzXSkoW0NIMl1bQ0gyXTYpW0NIXShbQ0gyXTMpW0NASF0yW0NIM10=

>  <s_epik_cmdline>  (6) 
J2VwaWtfcHl0aG9uJywgJy1waHQnLCAnMi4wJywgJy1waCcsICc3LjAnLCAnLXRuJywgJzgnLCAnLW1hJywgJzIwMCcsICctaW1hZScsICc8aW5maWxlLm1hZT4nLCAnLW9tYWUnLCAnPG91dGZpbGUubWFlPic=

>  <r_lp_tautomer_probability>  (6) 
1

>  <r_epik_Ionization_Penalty>  (6) 
6.42769e-07

>  <r_epik_Ionization_Penalty_Charging>  (6) 
0

>  <r_epik_Ionization_Penalty_Neutral>  (6) 
6.42769e-07

>  <r_epik_State_Penalty>  (6) 
-0

>  <r_epik_Charging_Adjusted_Penalty>  (6) 
0

>  <i_epik_Tot_Q>  (6) 
0

>  <i_epik_Tot_abs_Q>  (6) 
0

>  <s_epik_Chemistry_Notes>  (6) 
This compound has an ester and may undergo hydrolysis at high or low pH.

>  <s_lp_Force_Field>  (6) 
OPLS3e

>  <r_lp_Energy>  (6) 
116.459

>  <b_lp_Chiralities_Consistent>  (6) 
1

>  <s_lp_Variant>  (6) 
0:0-2

>  <s_i_glide_gridfile>  (6) 
pfpi4k_grid

>  <i_i_glide_lignum>  (6) 
2

>  <i_i_glide_rotatable_bonds>  (6) 
1

>  <r_i_docking_score>  (6) 
-1.94128

>  <r_i_glide_ligand_efficiency>  (6) 
-0.060665

>  <r_i_glide_ligand_efficiency_sa>  (6) 
-0.192599

>  <r_i_glide_ligand_efficiency_ln>  (6) 
-0.434705

>  <r_i_glide_gscore>  (6) 
-1.94128

>  <r_i_glide_lipo>  (6) 
-0.359052

>  <r_i_glide_hbond>  (6) 
0

>  <r_i_glide_metal>  (6) 
-0

>  <r_i_glide_rewards>  (6) 
-0.511665

>  <r_i_glide_evdw>  (6) 
-18.0936

>  <r_i_glide_ecoul>  (6) 
-1.10589

>  <r_i_glide_erotb>  (6) 
0

>  <r_i_glide_esite>  (6) 
0

>  <r_i_glide_emodel>  (6) 
-20.8021

>  <r_i_glide_energy>  (6) 
-19.1995

>  <r_i_glide_einternal>  (6) 
0.820802

>  <r_i_glide_intrahb_reward>  (6) 
-0

>  <i_i_glide_confnum>  (6) 
3

>  <i_i_glide_posenum>  (6) 
23

>  <r_i_glide_eff_state_penalty>  (6) 
0

>  <ligand_id>  (6) 
0

>  <original_smiles>  (6) 
CC1CCC2(OC1)OC1CC(C2C)C2(C)CCC2(O)C2CCC(C)C3(C=CC(=O)O3)C12C

>  <smiles>  (6) 
[H]OC12C([H])([H])C([H])([H])C1(C([H])([H])[H])C1([H])C([H])([H])C([H])(OC3(OC([H])([H])C([H])(C([H])([H])[H])C([H])([H])C3([H])[H])C1([H])C([H])([H])[H])C1(C([H])([H])[H])C3(OC(=O)C([H])=C3[H])C([H])(C([H])([H])[H])C([H])([H])C([H])([H])C21[H]

$$$$
1:0:0
     RDKit          3D

 40 45  0  0  1  0  0  0  0  0999 V2000
   -0.9761    5.1145    3.2824 O   0  0  0  0  0  0  0  0  0  0  0  0
   -0.4319    4.0640    4.0543 C   0  0  2  0  0  0  0  0  0  0  0  0
   -0.8981    2.7729    3.3928 C   0  0  0  0  0  0  0  0  0  0  0  0
   -2.1877    2.3970    4.1348 C   0  0  0  0  0  0  0  0  0  0  0  0
   -1.9902    2.8767    5.5845 C   0  0  0  0  0  0  0  0  0  0  0  0
   -0.9220    3.9619    5.4945 C   0  0  1  0  0  0  0  0  0  0  0  0
    0.5409    3.7769    5.9600 C   0  0  1  0  0  0  0  0  0  0  0  0
    1.2311    2.4225    6.0055 C   0  0  0  0  0  0  0  0  0  0  0  0
    0.9363    1.2037    6.4434 C   0  0  0  0  0  0  0  0  0  0  0  0
    1.9983    0.2687    5.9165 C   0  0  0  0  0  0  0  0  0  0  0  0
    2.6409    1.0078    4.8634 O   0  0  0  0  0  0  0  0  0  0  0  0
    2.4602    2.3908    5.1693 C   0  0  1  0  0  0  0  0  0  0  0  0
    2.1189    3.3385    4.0110 C   0  0  2  0  0  0  0  0  0  0  0  0
    3.2719    4.1483    3.6152 N   0  0  0  0  0  0  0  0  0  0  0  0
    2.9633    5.4677    3.8987 C   0  0  0  0  0  0  0  0  0  0  0  0
    3.7997    6.5769    3.6684 C   0  0  0  0  0  0  0  0  0  0  0  0
    3.3455    7.8445    4.0811 C   0  0  0  0  0  0  0  0  0  0  0  0
    2.0819    7.9910    4.6926 C   0  0  0  0  0  0  0  0  0  0  0  0
    1.2452    6.8699    4.8936 C   0  0  0  0  0  0  0  0  0  0  0  0
    1.7103    5.6093    4.4765 C   0  0  0  0  0  0  0  0  0  0  0  0
    1.0146    4.2693    4.5738 C   0  0  1  0  0  0  0  0  0  0  0  0
   -0.5874    5.0248    2.4094 H   0  0  0  0  0  0  0  0  0  0  0  0
   -1.0145    2.8446    2.3094 H   0  0  0  0  0  0  0  0  0  0  0  0
   -0.1840    1.9746    3.5801 H   0  0  0  0  0  0  0  0  0  0  0  0
   -3.0178    2.9454    3.6764 H   0  0  0  0  0  0  0  0  0  0  0  0
   -2.4124    1.3314    4.0758 H   0  0  0  0  0  0  0  0  0  0  0  0
   -2.9289    3.2445    6.0055 H   0  0  0  0  0  0  0  0  0  0  0  0
   -1.6597    2.0518    6.2116 H   0  0  0  0  0  0  0  0  0  0  0  0
   -1.2794    4.9312    5.8409 H   0  0  0  0  0  0  0  0  0  0  0  0
    0.8340    4.4297    6.7802 H   0  0  0  0  0  0  0  0  0  0  0  0
    0.0862    0.8863    7.0270 H   0  0  0  0  0  0  0  0  0  0  0  0
    2.7129    0.0519    6.7119 H   0  0  0  0  0  0  0  0  0  0  0  0
    1.5885   -0.6720    5.5419 H   0  0  0  0  0  0  0  0  0  0  0  0
    3.2693    2.7762    5.7932 H   0  0  0  0  0  0  0  0  0  0  0  0
    1.7576    2.7827    3.1472 H   0  0  0  0  0  0  0  0  0  0  0  0
    3.7598    3.9251    2.7584 H   0  0  0  0  0  0  0  0  0  0  0  0
    4.7620    6.4553    3.2009 H   0  0  0  0  0  0  0  0  0  0  0  0
    3.9711    8.7083    3.9231 H   0  0  0  0  0  0  0  0  0  0  0  0
    1.7539    8.9704    4.9938 H   0  0  0  0  0  0  0  0  0  0  0  0
    0.2776    6.9841    5.3560 H   0  0  0  0  0  0  0  0  0  0  0  0
  2  1  1  6
  1 22  1  0
  2  6  1  0
  2 21  1  0
  2  3  1  0
  3  4  1  0
  3 23  1  0
  3 24  1  0
  4  5  1  0
  4 25  1  0
  4 26  1  0
  5  6  1  0
  5 27  1  0
  5 28  1  0
  6  7  1  0
  6 29  1  1
  7 21  1  0
  7  8  1  0
  7 30  1  1
  8 12  1  0
  8  9  2  0
  9 10  1  0
  9 31  1  0
 10 11  1  0
 10 32  1  0
 10 33  1  0
 11 12  1  0
 12 13  1  0
 12 34  1  1
 13 21  1  0
 13 14  1  0
 13 35  1  6
 14 15  1  0
 14 36  1  0
 15 20  2  0
 15 16  1  0
 16 17  2  0
 16 37  1  0
 17 18  1  0
 17 38  1  0
 18 19  2  0
 18 39  1  0
 19 20  1  0
 19 40  1  0
 21 20  1  1
M  END
>  <i_m_ct_stereo_status>  (7) 
1

>  <s_m_source_file>  (7) 
/var/tmp/pbs.5076255.sched01/tmp8nmo4hef/06hb_edth.sdf

>  <i_m_source_file_index>  (7) 
3

>  <i_lp_mmshare_version>  (7) 
48012

>  <i_f3d_flags>  (7) 
0

>  <s_epik_input>  (7) 
W0NIMl0xW0NIMl1bQ0gyXVtDQEhdKFtDQF0xKFtDQEBdMjM0KVtPSF0pW0NASF0yQz01W0NAQEhdKE9bQ0gyXVtDSF01KVtDQEBIXTNbTkhdYzZjNFtjSF1bY0hdW2NIXVtjSF02

>  <s_epik_cmdline>  (7) 
J2VwaWtfcHl0aG9uJywgJy1waHQnLCAnMi4wJywgJy1waCcsICc3LjAnLCAnLXRuJywgJzgnLCAnLW1hJywgJzIwMCcsICctaW1hZScsICc8aW5maWxlLm1hZT4nLCAnLW9tYWUnLCAnPG91dGZpbGUubWFlPic=

>  <r_epik_Ionization_Penalty>  (7) 
0.0238588

>  <r_epik_Ionization_Penalty_Charging>  (7) 
0

>  <r_epik_Ionization_Penalty_Neutral>  (7) 
0.0238588

>  <r_epik_State_Penalty>  (7) 
0.0193341

>  <r_epik_Charging_Adjusted_Penalty>  (7) 
0.0193341

>  <i_epik_Tot_Q>  (7) 
0

>  <i_epik_Tot_abs_Q>  (7) 
0

>  <s_lp_Force_Field>  (7) 
OPLS3e

>  <r_lp_Energy>  (7) 
36.237

>  <b_lp_Chiralities_Consistent>  (7) 
1

>  <s_lp_Variant>  (7) 
1:0-1

>  <s_i_glide_gridfile>  (7) 
pfpi4k_grid

>  <i_i_glide_lignum>  (7) 
3

>  <i_i_glide_rotatable_bonds>  (7) 
1

>  <r_i_docking_score>  (7) 
-4.06979

>  <r_i_glide_ligand_efficiency>  (7) 
-0.1938

>  <r_i_glide_ligand_efficiency_sa>  (7) 
-0.534678

>  <r_i_glide_ligand_efficiency_ln>  (7) 
-1.00625

>  <r_i_glide_gscore>  (7) 
-4.06979

>  <r_i_glide_lipo>  (7) 
-0.169762

>  <r_i_glide_hbond>  (7) 
-0.470303

>  <r_i_glide_metal>  (7) 
-0

>  <r_i_glide_rewards>  (7) 
-1.4908

>  <r_i_glide_evdw>  (7) 
-18.1381

>  <r_i_glide_ecoul>  (7) 
-6.88011

>  <r_i_glide_erotb>  (7) 
0

>  <r_i_glide_esite>  (7) 
0

>  <r_i_glide_emodel>  (7) 
-31.5473

>  <r_i_glide_energy>  (7) 
-25.0182

>  <r_i_glide_einternal>  (7) 
0.789838

>  <r_i_glide_intrahb_reward>  (7) 
-0

>  <i_i_glide_confnum>  (7) 
2

>  <i_i_glide_posenum>  (7) 
35

>  <r_i_glide_eff_state_penalty>  (7) 
0

>  <ligand_id>  (7) 
1

>  <original_smiles>  (7) 
OC12CCCC1C1C3=CCOC3C3Nc4ccccc4C312

>  <smiles>  (7) 
[H]OC12C([H])([H])C([H])([H])C([H])([H])C1([H])C1([H])C3=C([H])C([H])([H])OC3([H])C3([H])N([H])c4c([H])c([H])c([H])c([H])c4C132

$$$$
1:0:1
     RDKit          3D

 40 45  0  0  1  0  0  0  0  0999 V2000
    5.7739   -2.8845    1.7978 O   0  0  0  0  0  0  0  0  0  0  0  0
    4.9198   -3.9959    1.8668 C   0  0  2  0  0  0  0  0  0  0  0  0
    4.2316   -3.9474    3.2283 C   0  0  0  0  0  0  0  0  0  0  0  0
    5.1154   -4.8038    4.1458 C   0  0  0  0  0  0  0  0  0  0  0  0
    5.7060   -5.9057    3.2418 C   0  0  0  0  0  0  0  0  0  0  0  0
    5.6100   -5.3535    1.8255 C   0  0  1  0  0  0  0  0  0  0  0  0
    4.5885   -5.8273    0.7686 C   0  0  1  0  0  0  0  0  0  0  0  0
    3.2451   -6.4295    1.1288 C   0  0  0  0  0  0  0  0  0  0  0  0
    2.8001   -7.3456    1.9796 C   0  0  0  0  0  0  0  0  0  0  0  0
    1.2961   -7.2519    2.0066 C   0  0  0  0  0  0  0  0  0  0  0  0
    1.0033   -5.9721    1.4108 O   0  0  0  0  0  0  0  0  0  0  0  0
    2.1074   -5.6556    0.5619 C   0  0  1  0  0  0  0  0  0  0  0  0
    2.6260   -4.2088    0.5516 C   0  0  2  0  0  0  0  0  0  0  0  0
    2.2086   -3.4814   -0.6600 N   0  0  0  0  0  0  0  0  0  0  0  0
    3.3537   -3.1976   -1.3676 C   0  0  0  0  0  0  0  0  0  0  0  0
    3.3675   -2.4902   -2.5699 C   0  0  0  0  0  0  0  0  0  0  0  0
    4.6206   -2.3190   -3.1985 C   0  0  0  0  0  0  0  0  0  0  0  0
    5.7892   -2.8368   -2.5939 C   0  0  0  0  0  0  0  0  0  0  0  0
    5.7539   -3.4984   -1.3520 C   0  0  0  0  0  0  0  0  0  0  0  0
    4.4969   -3.6741   -0.7427 C   0  0  0  0  0  0  0  0  0  0  0  0
    4.1685   -4.3558    0.5580 C   0  0  1  0  0  0  0  0  0  0  0  0
    5.2151   -2.1170    1.8820 H   0  0  0  0  0  0  0  0  0  0  0  0
    4.0532   -2.9344    3.6042 H   0  0  0  0  0  0  0  0  0  0  0  0
    3.2670   -4.4424    3.1819 H   0  0  0  0  0  0  0  0  0  0  0  0
    5.9243   -4.1748    4.5131 H   0  0  0  0  0  0  0  0  0  0  0  0
    4.5818   -5.2011    5.0072 H   0  0  0  0  0  0  0  0  0  0  0  0
    6.7368   -6.1431    3.5261 H   0  0  0  0  0  0  0  0  0  0  0  0
    5.1280   -6.8217    3.3335 H   0  0  0  0  0  0  0  0  0  0  0  0
    6.5794   -5.2419    1.3413 H   0  0  0  0  0  0  0  0  0  0  0  0
    5.0347   -6.2676   -0.1166 H   0  0  0  0  0  0  0  0  0  0  0  0
    3.3751   -8.0241    2.5982 H   0  0  0  0  0  0  0  0  0  0  0  0
    0.8815   -8.0553    1.3972 H   0  0  0  0  0  0  0  0  0  0  0  0
    0.8833   -7.3249    3.0151 H   0  0  0  0  0  0  0  0  0  0  0  0
    1.9442   -6.0403   -0.4405 H   0  0  0  0  0  0  0  0  0  0  0  0
    2.2783   -3.6772    1.4352 H   0  0  0  0  0  0  0  0  0  0  0  0
    1.5995   -2.6734   -0.6550 H   0  0  0  0  0  0  0  0  0  0  0  0
    2.4549   -2.1145   -3.0144 H   0  0  0  0  0  0  0  0  0  0  0  0
    4.6633   -1.8015   -4.1426 H   0  0  0  0  0  0  0  0  0  0  0  0
    6.7364   -2.7226   -3.1040 H   0  0  0  0  0  0  0  0  0  0  0  0
    6.6530   -3.8796   -0.8868 H   0  0  0  0  0  0  0  0  0  0  0  0
  2  1  1  6
  1 22  1  0
  2  6  1  0
  2 21  1  0
  2  3  1  0
  3  4  1  0
  3 23  1  0
  3 24  1  0
  4  5  1  0
  4 25  1  0
  4 26  1  0
  5  6  1  0
  5 27  1  0
  5 28  1  0
  6  7  1  0
  6 29  1  6
  7 21  1  0
  7  8  1  0
  7 30  1  6
  8 12  1  0
  8  9  2  0
  9 10  1  0
  9 31  1  0
 10 11  1  0
 10 32  1  0
 10 33  1  0
 11 12  1  0
 12 13  1  0
 12 34  1  6
 13 21  1  0
 13 14  1  0
 13 35  1  1
 14 15  1  0
 14 36  1  0
 15 20  2  0
 15 16  1  0
 16 17  2  0
 16 37  1  0
 17 18  1  0
 17 38  1  0
 18 19  2  0
 18 39  1  0
 19 20  1  0
 19 40  1  0
 21 20  1  6
M  END
>  <i_m_ct_stereo_status>  (8) 
1

>  <s_m_source_file>  (8) 
/var/tmp/pbs.5076255.sched01/tmp8nmo4hef/06hb_edth.sdf

>  <i_m_source_file_index>  (8) 
3

>  <i_lp_mmshare_version>  (8) 
48012

>  <i_f3d_flags>  (8) 
0

>  <s_epik_input>  (8) 
W0NIMl0xW0NIMl1bQ0gyXVtDQEhdKFtDQF0xKFtDQEBdMjM0KVtPSF0pW0NASF0yQz01W0NAQEhdKE9bQ0gyXVtDSF01KVtDQEBIXTNbTkhdYzZjNFtjSF1bY0hdW2NIXVtjSF02

>  <s_epik_cmdline>  (8) 
J2VwaWtfcHl0aG9uJywgJy1waHQnLCAnMi4wJywgJy1waCcsICc3LjAnLCAnLXRuJywgJzgnLCAnLW1hJywgJzIwMCcsICctaW1hZScsICc8aW5maWxlLm1hZT4nLCAnLW9tYWUnLCAnPG91dGZpbGUubWFlPic=

>  <r_epik_Ionization_Penalty>  (8) 
0.0238588

>  <r_epik_Ionization_Penalty_Charging>  (8) 
0

>  <r_epik_Ionization_Penalty_Neutral>  (8) 
0.0238588

>  <r_epik_State_Penalty>  (8) 
0.0193341

>  <r_epik_Charging_Adjusted_Penalty>  (8) 
0.0193341

>  <i_epik_Tot_Q>  (8) 
0

>  <i_epik_Tot_abs_Q>  (8) 
0

>  <s_lp_Force_Field>  (8) 
OPLS3e

>  <r_lp_Energy>  (8) 
36.237

>  <b_lp_Chiralities_Consistent>  (8) 
1

>  <s_lp_Variant>  (8) 
1:0-1

>  <s_i_glide_gridfile>  (8) 
pfpi4k_grid

>  <i_i_glide_lignum>  (8) 
3

>  <i_i_glide_rotatable_bonds>  (8) 
1

>  <r_i_docking_score>  (8) 
-3.97721

>  <r_i_glide_ligand_efficiency>  (8) 
-0.189391

>  <r_i_glide_ligand_efficiency_sa>  (8) 
-0.522516

>  <r_i_glide_ligand_efficiency_ln>  (8) 
-0.983358

>  <r_i_glide_gscore>  (8) 
-3.97721

>  <r_i_glide_lipo>  (8) 
-0.626804

>  <r_i_glide_hbond>  (8) 
-0.319354

>  <r_i_glide_metal>  (8) 
-0

>  <r_i_glide_rewards>  (8) 
-1.4908

>  <r_i_glide_evdw>  (8) 
-21.1455

>  <r_i_glide_ecoul>  (8) 
-2.81967

>  <r_i_glide_erotb>  (8) 
0

>  <r_i_glide_esite>  (8) 
-0.0600288

>  <r_i_glide_emodel>  (8) 
-30.1383

>  <r_i_glide_energy>  (8) 
-23.9652

>  <r_i_glide_einternal>  (8) 
0.787297

>  <r_i_glide_intrahb_reward>  (8) 
-0

>  <i_i_glide_confnum>  (8) 
2

>  <i_i_glide_posenum>  (8) 
3

>  <r_i_glide_eff_state_penalty>  (8) 
0

>  <ligand_id>  (8) 
1

>  <original_smiles>  (8) 
OC12CCCC1C1C3=CCOC3C3Nc4ccccc4C312

>  <smiles>  (8) 
[H]OC12C([H])([H])C([H])([H])C([H])([H])C1([H])C1([H])C3=C([H])C([H])([H])OC3([H])C3([H])N([H])c4c([H])c([H])c([H])c([H])c4C132

$$$$
1:0:2
     RDKit          3D

 40 45  0  0  1  0  0  0  0  0999 V2000
   -0.3273    1.8018    2.0863 O   0  0  0  0  0  0  0  0  0  0  0  0
   -0.6773    2.1243    3.4138 C   0  0  2  0  0  0  0  0  0  0  0  0
   -2.0591    2.7820    3.3874 C   0  0  0  0  0  0  0  0  0  0  0  0
   -1.7791    4.2866    3.2913 C   0  0  0  0  0  0  0  0  0  0  0  0
   -0.4632    4.5149    4.0661 C   0  0  0  0  0  0  0  0  0  0  0  0
    0.2276    3.1536    4.0829 C   0  0  1  0  0  0  0  0  0  0  0  0
    0.3238    2.2397    5.3241 C   0  0  1  0  0  0  0  0  0  0  0  0
   -0.6922    2.2811    6.4497 C   0  0  0  0  0  0  0  0  0  0  0  0
   -1.2932    3.2195    7.1723 C   0  0  0  0  0  0  0  0  0  0  0  0
   -2.3975    2.5495    7.9457 C   0  0  0  0  0  0  0  0  0  0  0  0
   -2.5850    1.2829    7.2849 O   0  0  0  0  0  0  0  0  0  0  0  0
   -1.3418    0.9644    6.6609 C   0  0  1  0  0  0  0  0  0  0  0  0
   -1.3980    0.3559    5.2573 C   0  0  2  0  0  0  0  0  0  0  0  0
   -1.1406   -1.0877    5.2834 N   0  0  0  0  0  0  0  0  0  0  0  0
    0.0476   -1.2809    4.5894 C   0  0  0  0  0  0  0  0  0  0  0  0
    0.6638   -2.5183    4.3482 C   0  0  0  0  0  0  0  0  0  0  0  0
    1.8982   -2.5294    3.6749 C   0  0  0  0  0  0  0  0  0  0  0  0
    2.4903   -1.3207    3.2380 C   0  0  0  0  0  0  0  0  0  0  0  0
    1.8431   -0.0864    3.4617 C   0  0  0  0  0  0  0  0  0  0  0  0
    0.6123   -0.0932    4.1397 C   0  0  0  0  0  0  0  0  0  0  0  0
   -0.2653    1.0833    4.4879 C   0  0  1  0  0  0  0  0  0  0  0  0
   -0.1844    2.6302    1.6279 H   0  0  0  0  0  0  0  0  0  0  0  0
   -2.7088    2.4093    2.5930 H   0  0  0  0  0  0  0  0  0  0  0  0
   -2.5813    2.6233    4.3299 H   0  0  0  0  0  0  0  0  0  0  0  0
   -1.6443    4.5419    2.2408 H   0  0  0  0  0  0  0  0  0  0  0  0
   -2.5974    4.8912    3.6653 H   0  0  0  0  0  0  0  0  0  0  0  0
    0.1464    5.2828    3.5775 H   0  0  0  0  0  0  0  0  0  0  0  0
   -0.6649    4.8644    5.0771 H   0  0  0  0  0  0  0  0  0  0  0  0
    1.1944    3.1744    3.5765 H   0  0  0  0  0  0  0  0  0  0  0  0
    1.3409    2.0542    5.6614 H   0  0  0  0  0  0  0  0  0  0  0  0
   -1.0878    4.2809    7.2050 H   0  0  0  0  0  0  0  0  0  0  0  0
   -2.0731    2.3834    8.9724 H   0  0  0  0  0  0  0  0  0  0  0  0
   -3.3246    3.1258    7.9571 H   0  0  0  0  0  0  0  0  0  0  0  0
   -0.6850    0.4018    7.3239 H   0  0  0  0  0  0  0  0  0  0  0  0
   -2.3619    0.5377    4.7835 H   0  0  0  0  0  0  0  0  0  0  0  0
   -1.8903   -1.7235    5.0739 H   0  0  0  0  0  0  0  0  0  0  0  0
    0.2113   -3.4355    4.6941 H   0  0  0  0  0  0  0  0  0  0  0  0
    2.4069   -3.4654    3.5064 H   0  0  0  0  0  0  0  0  0  0  0  0
    3.4437   -1.3518    2.7396 H   0  0  0  0  0  0  0  0  0  0  0  0
    2.2940    0.8349    3.1218 H   0  0  0  0  0  0  0  0  0  0  0  0
  2  1  1  6
  1 22  1  0
  2  6  1  0
  2 21  1  0
  2  3  1  0
  3  4  1  0
  3 23  1  0
  3 24  1  0
  4  5  1  0
  4 25  1  0
  4 26  1  0
  5  6  1  0
  5 27  1  0
  5 28  1  0
  6  7  1  0
  6 29  1  6
  7 21  1  0
  7  8  1  0
  7 30  1  1
  8 12  1  0
  8  9  2  0
  9 10  1  0
  9 31  1  0
 10 11  1  0
 10 32  1  0
 10 33  1  0
 11 12  1  0
 12 13  1  0
 12 34  1  1
 13 21  1  0
 13 14  1  0
 13 35  1  6
 14 15  1  0
 14 36  1  0
 15 20  2  0
 15 16  1  0
 16 17  2  0
 16 37  1  0
 17 18  1  0
 17 38  1  0
 18 19  2  0
 18 39  1  0
 19 20  1  0
 19 40  1  0
 21 20  1  6
M  END
>  <i_m_ct_stereo_status>  (9) 
1

>  <s_m_source_file>  (9) 
/var/tmp/pbs.5076255.sched01/tmp8nmo4hef/06hb_edth.sdf

>  <i_m_source_file_index>  (9) 
3

>  <i_lp_mmshare_version>  (9) 
48012

>  <i_f3d_flags>  (9) 
0

>  <s_epik_input>  (9) 
W0NIMl0xW0NIMl1bQ0gyXVtDQEhdKFtDQF0xKFtDQEBdMjM0KVtPSF0pW0NASF0yQz01W0NAQEhdKE9bQ0gyXVtDSF01KVtDQEBIXTNbTkhdYzZjNFtjSF1bY0hdW2NIXVtjSF02

>  <s_epik_cmdline>  (9) 
J2VwaWtfcHl0aG9uJywgJy1waHQnLCAnMi4wJywgJy1waCcsICc3LjAnLCAnLXRuJywgJzgnLCAnLW1hJywgJzIwMCcsICctaW1hZScsICc8aW5maWxlLm1hZT4nLCAnLW9tYWUnLCAnPG91dGZpbGUubWFlPic=

>  <r_epik_Ionization_Penalty>  (9) 
0.0238588

>  <r_epik_Ionization_Penalty_Charging>  (9) 
0

>  <r_epik_Ionization_Penalty_Neutral>  (9) 
0.0238588

>  <r_epik_State_Penalty>  (9) 
0.0193341

>  <r_epik_Charging_Adjusted_Penalty>  (9) 
0.0193341

>  <i_epik_Tot_Q>  (9) 
0

>  <i_epik_Tot_abs_Q>  (9) 
0

>  <s_lp_Force_Field>  (9) 
OPLS3e

>  <r_lp_Energy>  (9) 
36.237

>  <b_lp_Chiralities_Consistent>  (9) 
1

>  <s_lp_Variant>  (9) 
1:0-1

>  <s_i_glide_gridfile>  (9) 
pfpi4k_grid

>  <i_i_glide_lignum>  (9) 
3

>  <i_i_glide_rotatable_bonds>  (9) 
1

>  <r_i_docking_score>  (9) 
-3.44022

>  <r_i_glide_ligand_efficiency>  (9) 
-0.16382

>  <r_i_glide_ligand_efficiency_sa>  (9) 
-0.451966

>  <r_i_glide_ligand_efficiency_ln>  (9) 
-0.850586

>  <r_i_glide_gscore>  (9) 
-3.44022

>  <r_i_glide_lipo>  (9) 
-0.116378

>  <r_i_glide_hbond>  (9) 
-0.32

>  <r_i_glide_metal>  (9) 
-0

>  <r_i_glide_rewards>  (9) 
-1.4908

>  <r_i_glide_evdw>  (9) 
-21.8614

>  <r_i_glide_ecoul>  (9) 
-2.53397

>  <r_i_glide_erotb>  (9) 
0

>  <r_i_glide_esite>  (9) 
-0.039869

>  <r_i_glide_emodel>  (9) 
-29.7074

>  <r_i_glide_energy>  (9) 
-24.3954

>  <r_i_glide_einternal>  (9) 
1.0041

>  <r_i_glide_intrahb_reward>  (9) 
-0

>  <i_i_glide_confnum>  (9) 
2

>  <i_i_glide_posenum>  (9) 
10

>  <r_i_glide_eff_state_penalty>  (9) 
0

>  <ligand_id>  (9) 
1

>  <original_smiles>  (9) 
OC12CCCC1C1C3=CCOC3C3Nc4ccccc4C312

>  <smiles>  (9) 
[H]OC12C([H])([H])C([H])([H])C([H])([H])C1([H])C1([H])C3=C([H])C([H])([H])OC3([H])C3([H])N([H])c4c([H])c([H])c([H])c([H])c4C132

$$$$
1:1:0
     RDKit          3D

 41 46  0  0  1  0  0  0  0  0999 V2000
    1.5354    1.7472    7.0139 O   0  0  0  0  0  0  0  0  0  0  0  0
    2.3341    2.6732    6.3117 C   0  0  2  0  0  0  0  0  0  0  0  0
    3.6531    1.9800    5.9588 C   0  0  0  0  0  0  0  0  0  0  0  0
    4.7389    3.0655    6.1066 C   0  0  0  0  0  0  0  0  0  0  0  0
    4.2262    3.9972    7.2133 C   0  0  0  0  0  0  0  0  0  0  0  0
    2.7089    3.9449    7.0798 C   0  0  1  0  0  0  0  0  0  0  0  0
    1.9203    4.7965    6.0669 C   0  0  1  0  0  0  0  0  0  0  0  0
    2.6352    5.6079    5.0070 C   0  0  0  0  0  0  0  0  0  0  0  0
    3.6232    6.4910    4.9899 C   0  0  0  0  0  0  0  0  0  0  0  0
    3.9975    6.7087    3.5499 C   0  0  0  0  0  0  0  0  0  0  0  0
    3.4153    5.5903    2.8597 O   0  0  0  0  0  0  0  0  0  0  0  0
    2.2959    5.1675    3.6315 C   0  0  1  0  0  0  0  0  0  0  0  0
    2.1162    3.6620    3.8156 C   0  0  2  0  0  0  0  0  0  0  0  0
    1.1282    3.0607    2.8904 N   0  0  0  0  0  0  0  0  0  0  0  0
   -0.1374    2.9803    3.6598 C   0  0  0  0  0  0  0  0  0  0  0  0
   -1.4071    2.7215    3.1371 C   0  0  0  0  0  0  0  0  0  0  0  0
   -2.4996    2.7602    4.0241 C   0  0  0  0  0  0  0  0  0  0  0  0
   -2.2994    3.0446    5.3975 C   0  0  0  0  0  0  0  0  0  0  0  0
   -1.0050    3.2994    5.9037 C   0  0  0  0  0  0  0  0  0  0  0  0
    0.0885    3.2572    5.0029 C   0  0  0  0  0  0  0  0  0  0  0  0
    1.5610    3.5300    5.2676 C   0  0  1  0  0  0  0  0  0  0  0  0
    2.0580    1.4105    7.7268 H   0  0  0  0  0  0  0  0  0  0  0  0
    3.8804    1.1810    6.6668 H   0  0  0  0  0  0  0  0  0  0  0  0
    3.6380    1.5113    4.9752 H   0  0  0  0  0  0  0  0  0  0  0  0
    5.7338    2.6556    6.2986 H   0  0  0  0  0  0  0  0  0  0  0  0
    4.7924    3.6432    5.1820 H   0  0  0  0  0  0  0  0  0  0  0  0
    4.5341    3.5791    8.1726 H   0  0  0  0  0  0  0  0  0  0  0  0
    4.6429    5.0035    7.1576 H   0  0  0  0  0  0  0  0  0  0  0  0
    2.1993    3.9818    8.0417 H   0  0  0  0  0  0  0  0  0  0  0  0
    1.0641    5.3011    6.5173 H   0  0  0  0  0  0  0  0  0  0  0  0
    4.1161    6.9597    5.8257 H   0  0  0  0  0  0  0  0  0  0  0  0
    3.5476    7.6455    3.2175 H   0  0  0  0  0  0  0  0  0  0  0  0
    5.0764    6.7590    3.3855 H   0  0  0  0  0  0  0  0  0  0  0  0
    1.3737    5.6734    3.3471 H   0  0  0  0  0  0  0  0  0  0  0  0
    3.0830    3.1791    3.6913 H   0  0  0  0  0  0  0  0  0  0  0  0
    0.9945    3.6038    2.0343 H   0  0  0  0  0  0  0  0  0  0  0  0
   -1.5335    2.5105    2.0833 H   0  0  0  0  0  0  0  0  0  0  0  0
   -3.4888    2.5529    3.6378 H   0  0  0  0  0  0  0  0  0  0  0  0
   -3.1558    3.0529    6.0549 H   0  0  0  0  0  0  0  0  0  0  0  0
   -0.8473    3.5196    6.9497 H   0  0  0  0  0  0  0  0  0  0  0  0
    1.4411    2.1430    2.6306 H   0  0  0  0  0  0  0  0  0  0  0  0
  2  1  1  1
  1 22  1  0
  2  6  1  0
  2 21  1  0
  2  3  1  0
  3  4  1  0
  3 23  1  0
  3 24  1  0
  4  5  1  0
  4 25  1  0
  4 26  1  0
  5  6  1  0
  5 27  1  0
  5 28  1  0
  6  7  1  0
  6 29  1  1
  7 21  1  0
  7  8  1  0
  7 30  1  1
  8 12  1  0
  8  9  2  0
  9 10  1  0
  9 31  1  0
 10 11  1  0
 10 32  1  0
 10 33  1  0
 11 12  1  0
 12 13  1  0
 12 34  1  6
 13 21  1  0
 13 14  1  0
 13 35  1  1
 14 15  1  0
 14 36  1  0
 14 41  1  0
 15 20  2  0
 15 16  1  0
 16 17  2  0
 16 37  1  0
 17 18  1  0
 17 38  1  0
 18 19  2  0
 18 39  1  0
 19 20  1  0
 19 40  1  0
 21 20  1  6
M  CHG  1  14   1
M  END
>  <i_m_ct_stereo_status>  (10) 
1

>  <s_m_source_file>  (10) 
/var/tmp/pbs.5076255.sched01/tmp8nmo4hef/06hb_edth.sdf

>  <i_m_source_file_index>  (10) 
4

>  <i_lp_mmshare_version>  (10) 
48012

>  <i_f3d_flags>  (10) 
0

>  <s_epik_input>  (10) 
W0NIMl0xW0NIMl1bQ0gyXVtDQEhdKFtDQF0xKFtDQEBdMjM0KVtPSF0pW0NASF0yQz01W0NAQEhdKE9bQ0gyXVtDSF01KVtDQEBIXTNbTkhdYzZjNFtjSF1bY0hdW2NIXVtjSF02

>  <s_epik_cmdline>  (10) 
J2VwaWtfcHl0aG9uJywgJy1waHQnLCAnMi4wJywgJy1waCcsICc3LjAnLCAnLXRuJywgJzgnLCAnLW1hJywgJzIwMCcsICctaW1hZScsICc8aW5maWxlLm1hZT4nLCAnLW9tYWUnLCAnPG91dGZpbGUubWFlPic=

>  <r_epik_Ionization_Penalty>  (10) 
1.91506

>  <r_epik_Ionization_Penalty_Charging>  (10) 
1.91506

>  <r_epik_Ionization_Penalty_Neutral>  (10) 
6.24721e-08

>  <r_epik_State_Penalty>  (10) 
2.0374

>  <r_epik_Charging_Adjusted_Penalty>  (10) 
3.95245

>  <i_epik_Tot_Q>  (10) 
1

>  <i_epik_Tot_abs_Q>  (10) 
1

>  <s_lp_Force_Field>  (10) 
OPLS3e

>  <r_lp_Energy>  (10) 
41.0982

>  <b_lp_Chiralities_Consistent>  (10) 
1

>  <s_lp_Variant>  (10) 
1:0-2

>  <s_i_glide_gridfile>  (10) 
pfpi4k_grid

>  <i_i_glide_lignum>  (10) 
4

>  <i_i_glide_rotatable_bonds>  (10) 
1

>  <r_i_docking_score>  (10) 
-3.32237

>  <r_i_glide_ligand_efficiency>  (10) 
-0.158208

>  <r_i_glide_ligand_efficiency_sa>  (10) 
-0.436485

>  <r_i_glide_ligand_efficiency_ln>  (10) 
-0.82145

>  <r_i_glide_gscore>  (10) 
-3.32237

>  <r_i_glide_lipo>  (10) 
-0.145635

>  <r_i_glide_hbond>  (10) 
-0.2

>  <r_i_glide_metal>  (10) 
-0

>  <r_i_glide_rewards>  (10) 
-1.48393

>  <r_i_glide_evdw>  (10) 
-17.0513

>  <r_i_glide_ecoul>  (10) 
-3.61149

>  <r_i_glide_erotb>  (10) 
0

>  <r_i_glide_esite>  (10) 
-0.0985193

>  <r_i_glide_emodel>  (10) 
-25.6173

>  <r_i_glide_energy>  (10) 
-20.6628

>  <r_i_glide_einternal>  (10) 
0.889478

>  <r_i_glide_intrahb_reward>  (10) 
-0

>  <i_i_glide_confnum>  (10) 
2

>  <i_i_glide_posenum>  (10) 
39

>  <r_i_glide_eff_state_penalty>  (10) 
0

>  <ligand_id>  (10) 
1

>  <original_smiles>  (10) 
OC12CCCC1C1C3=CCOC3C3Nc4ccccc4C312

>  <smiles>  (10) 
[H]OC12C([H])([H])C([H])([H])C([H])([H])C1([H])C1([H])C3=C([H])C([H])([H])OC3([H])C3([H])C12c1c([H])c([H])c([H])c([H])c1[N+]3([H])[H]

$$$$
1:1:1
     RDKit          3D

 41 46  0  0  1  0  0  0  0  0999 V2000
    1.4527    1.6157    7.0020 O   0  0  0  0  0  0  0  0  0  0  0  0
    2.2446    2.5531    6.3103 C   0  0  2  0  0  0  0  0  0  0  0  0
    3.5437    1.8321    5.9533 C   0  0  0  0  0  0  0  0  0  0  0  0
    4.6569    2.8881    6.0998 C   0  0  0  0  0  0  0  0  0  0  0  0
    4.1712    3.8276    7.2101 C   0  0  0  0  0  0  0  0  0  0  0  0
    2.6519    3.8128    7.0819 C   0  0  1  0  0  0  0  0  0  0  0  0
    1.8823    4.6851    6.0684 C   0  0  1  0  0  0  0  0  0  0  0  0
    2.6151    5.4789    5.0063 C   0  0  0  0  0  0  0  0  0  0  0  0
    3.6229    6.3385    4.9864 C   0  0  0  0  0  0  0  0  0  0  0  0
    3.9981    6.5517    3.5449 C   0  0  0  0  0  0  0  0  0  0  0  0
    3.3905    5.4485    2.8537 O   0  0  0  0  0  0  0  0  0  0  0  0
    2.2643    5.0491    3.6270 C   0  0  1  0  0  0  0  0  0  0  0  0
    2.0491    3.5460    3.8139 C   0  0  2  0  0  0  0  0  0  0  0  0
    1.0434    2.9692    2.8849 N   0  0  0  0  0  0  0  0  0  0  0  0
   -0.2140    2.9234    3.6578 C   0  0  0  0  0  0  0  0  0  0  0  0
   -1.4906    2.6936    3.1364 C   0  0  0  0  0  0  0  0  0  0  0  0
   -2.5777    2.7537    4.0251 C   0  0  0  0  0  0  0  0  0  0  0  0
   -2.3736    3.0298    5.3996 C   0  0  0  0  0  0  0  0  0  0  0  0
   -1.0723    3.2586    5.9067 C   0  0  0  0  0  0  0  0  0  0  0  0
    0.0148    3.1899    5.0010 C   0  0  0  0  0  0  0  0  0  0  0  0
    1.4924    3.4288    5.2665 C   0  0  1  0  0  0  0  0  0  0  0  0
    0.6981    2.0787    7.3344 H   0  0  0  0  0  0  0  0  0  0  0  0
    3.7456    1.0289    6.6648 H   0  0  0  0  0  0  0  0  0  0  0  0
    3.5155    1.3621    4.9705 H   0  0  0  0  0  0  0  0  0  0  0  0
    5.6395    2.4507    6.2903 H   0  0  0  0  0  0  0  0  0  0  0  0
    4.7202    3.4632    5.1750 H   0  0  0  0  0  0  0  0  0  0  0  0
    4.4693    3.4000    8.1672 H   0  0  0  0  0  0  0  0  0  0  0  0
    4.6115    4.8224    7.1547 H   0  0  0  0  0  0  0  0  0  0  0  0
    2.1486    3.8596    8.0464 H   0  0  0  0  0  0  0  0  0  0  0  0
    1.0404    5.2119    6.5165 H   0  0  0  0  0  0  0  0  0  0  0  0
    4.1289    6.7954    5.8221 H   0  0  0  0  0  0  0  0  0  0  0  0
    3.5698    7.4990    3.2142 H   0  0  0  0  0  0  0  0  0  0  0  0
    5.0773    6.5753    3.3802 H   0  0  0  0  0  0  0  0  0  0  0  0
    1.3519    5.5768    3.3487 H   0  0  0  0  0  0  0  0  0  0  0  0
    3.0032    3.0412    3.6861 H   0  0  0  0  0  0  0  0  0  0  0  0
    0.9294    3.5207    2.0318 H   0  0  0  0  0  0  0  0  0  0  0  0
   -1.6287    2.4850    2.0863 H   0  0  0  0  0  0  0  0  0  0  0  0
   -3.5711    2.5711    3.6446 H   0  0  0  0  0  0  0  0  0  0  0  0
   -3.2300    3.0582    6.0580 H   0  0  0  0  0  0  0  0  0  0  0  0
   -0.9206    3.4829    6.9546 H   0  0  0  0  0  0  0  0  0  0  0  0
    1.3360    2.0420    2.6266 H   0  0  0  0  0  0  0  0  0  0  0  0
  2  1  1  1
  1 22  1  0
  2  6  1  0
  2 21  1  0
  2  3  1  0
  3  4  1  0
  3 23  1  0
  3 24  1  0
  4  5  1  0
  4 25  1  0
  4 26  1  0
  5  6  1  0
  5 27  1  0
  5 28  1  0
  6  7  1  0
  6 29  1  1
  7 21  1  0
  7  8  1  0
  7 30  1  1
  8 12  1  0
  8  9  2  0
  9 10  1  0
  9 31  1  0
 10 11  1  0
 10 32  1  0
 10 33  1  0
 11 12  1  0
 12 13  1  0
 12 34  1  6
 13 21  1  0
 13 14  1  0
 13 35  1  1
 14 15  1  0
 14 36  1  0
 14 41  1  0
 15 20  2  0
 15 16  1  0
 16 17  2  0
 16 37  1  0
 17 18  1  0
 17 38  1  0
 18 19  2  0
 18 39  1  0
 19 20  1  0
 19 40  1  0
 21 20  1  6
M  CHG  1  14   1
M  END
>  <i_m_ct_stereo_status>  (11) 
1

>  <s_m_source_file>  (11) 
/var/tmp/pbs.5076255.sched01/tmp8nmo4hef/06hb_edth.sdf

>  <i_m_source_file_index>  (11) 
4

>  <i_lp_mmshare_version>  (11) 
48012

>  <i_f3d_flags>  (11) 
0

>  <s_epik_input>  (11) 
W0NIMl0xW0NIMl1bQ0gyXVtDQEhdKFtDQF0xKFtDQEBdMjM0KVtPSF0pW0NASF0yQz01W0NAQEhdKE9bQ0gyXVtDSF01KVtDQEBIXTNbTkhdYzZjNFtjSF1bY0hdW2NIXVtjSF02

>  <s_epik_cmdline>  (11) 
J2VwaWtfcHl0aG9uJywgJy1waHQnLCAnMi4wJywgJy1waCcsICc3LjAnLCAnLXRuJywgJzgnLCAnLW1hJywgJzIwMCcsICctaW1hZScsICc8aW5maWxlLm1hZT4nLCAnLW9tYWUnLCAnPG91dGZpbGUubWFlPic=

>  <r_epik_Ionization_Penalty>  (11) 
1.91506

>  <r_epik_Ionization_Penalty_Charging>  (11) 
1.91506

>  <r_epik_Ionization_Penalty_Neutral>  (11) 
6.24721e-08

>  <r_epik_State_Penalty>  (11) 
2.0374

>  <r_epik_Charging_Adjusted_Penalty>  (11) 
3.95245

>  <i_epik_Tot_Q>  (11) 
1

>  <i_epik_Tot_abs_Q>  (11) 
1

>  <s_lp_Force_Field>  (11) 
OPLS3e

>  <r_lp_Energy>  (11) 
41.0982

>  <b_lp_Chiralities_Consistent>  (11) 
1

>  <s_lp_Variant>  (11) 
1:0-2

>  <s_i_glide_gridfile>  (11) 
pfpi4k_grid

>  <i_i_glide_lignum>  (11) 
4

>  <i_i_glide_rotatable_bonds>  (11) 
1

>  <r_i_docking_score>  (11) 
-3.28386

>  <r_i_glide_ligand_efficiency>  (11) 
-0.156374

>  <r_i_glide_ligand_efficiency_sa>  (11) 
-0.431425

>  <r_i_glide_ligand_efficiency_ln>  (11) 
-0.811928

>  <r_i_glide_gscore>  (11) 
-3.28386

>  <r_i_glide_lipo>  (11) 
-0.13236

>  <r_i_glide_hbond>  (11) 
-0.2

>  <r_i_glide_metal>  (11) 
-0

>  <r_i_glide_rewards>  (11) 
-1.48393

>  <r_i_glide_evdw>  (11) 
-17.1

>  <r_i_glide_ecoul>  (11) 
-3.44024

>  <r_i_glide_erotb>  (11) 
0

>  <r_i_glide_esite>  (11) 
-0.0965323

>  <r_i_glide_emodel>  (11) 
-25.8769

>  <r_i_glide_energy>  (11) 
-20.5403

>  <r_i_glide_einternal>  (11) 
0.000166983

>  <r_i_glide_intrahb_reward>  (11) 
-0

>  <i_i_glide_confnum>  (11) 
2

>  <i_i_glide_posenum>  (11) 
1

>  <r_i_glide_eff_state_penalty>  (11) 
0

>  <ligand_id>  (11) 
1

>  <original_smiles>  (11) 
OC12CCCC1C1C3=CCOC3C3Nc4ccccc4C312

>  <smiles>  (11) 
[H]OC12C([H])([H])C([H])([H])C([H])([H])C1([H])C1([H])C3=C([H])C([H])([H])OC3([H])C3([H])C12c1c([H])c([H])c([H])c([H])c1[N+]3([H])[H]

$$$$
1:1:2
     RDKit          3D

 41 46  0  0  1  0  0  0  0  0999 V2000
    1.8251    1.7884    6.8178 O   0  0  0  0  0  0  0  0  0  0  0  0
    2.2889    3.0384    6.3555 C   0  0  2  0  0  0  0  0  0  0  0  0
    3.8077    3.0190    6.5403 C   0  0  0  0  0  0  0  0  0  0  0  0
    4.1989    4.4471    6.9731 C   0  0  0  0  0  0  0  0  0  0  0  0
    2.9796    4.9655    7.7499 C   0  0  0  0  0  0  0  0  0  0  0  0
    1.7851    4.2729    7.1064 C   0  0  1  0  0  0  0  0  0  0  0  0
    1.1042    4.7781    5.8174 C   0  0  1  0  0  0  0  0  0  0  0  0
    1.7117    5.9087    5.0127 C   0  0  0  0  0  0  0  0  0  0  0  0
    2.1610    7.1260    5.2776 C   0  0  0  0  0  0  0  0  0  0  0  0
    2.8863    7.6145    4.0502 C   0  0  0  0  0  0  0  0  0  0  0  0
    3.1408    6.4163    3.2866 O   0  0  0  0  0  0  0  0  0  0  0  0
    2.1100    5.4923    3.6444 C   0  0  1  0  0  0  0  0  0  0  0  0
    2.5411    4.0455    3.8792 C   0  0  2  0  0  0  0  0  0  0  0  0
    2.3044    3.1727    2.7080 N   0  0  0  0  0  0  0  0  0  0  0  0
    1.0320    2.4749    2.9911 C   0  0  0  0  0  0  0  0  0  0  0  0
    0.2804    1.7256    2.0783 C   0  0  0  0  0  0  0  0  0  0  0  0
   -0.9462    1.2074    2.5262 C   0  0  0  0  0  0  0  0  0  0  0  0
   -1.3848    1.4228    3.8559 C   0  0  0  0  0  0  0  0  0  0  0  0
   -0.5939    2.1802    4.7616 C   0  0  0  0  0  0  0  0  0  0  0  0
    0.6365    2.6937    4.3032 C   0  0  0  0  0  0  0  0  0  0  0  0
    1.6359    3.5608    5.0453 C   0  0  1  0  0  0  0  0  0  0  0  0
    0.8823    1.8171    6.7831 H   0  0  0  0  0  0  0  0  0  0  0  0
    4.0863    2.3344    7.3461 H   0  0  0  0  0  0  0  0  0  0  0  0
    4.3396    2.6688    5.6577 H   0  0  0  0  0  0  0  0  0  0  0  0
    5.1287    4.4818    7.5386 H   0  0  0  0  0  0  0  0  0  0  0  0
    4.3280    5.0650    6.0839 H   0  0  0  0  0  0  0  0  0  0  0  0
    3.0781    4.6394    8.7898 H   0  0  0  0  0  0  0  0  0  0  0  0
    2.9091    6.0518    7.7712 H   0  0  0  0  0  0  0  0  0  0  0  0
    1.0147    4.0034    7.8294 H   0  0  0  0  0  0  0  0  0  0  0  0
    0.0193    4.8202    5.8975 H   0  0  0  0  0  0  0  0  0  0  0  0
    2.0765    7.6870    6.1949 H   0  0  0  0  0  0  0  0  0  0  0  0
    2.2245    8.2864    3.4938 H   0  0  0  0  0  0  0  0  0  0  0  0
    3.8148    8.1387    4.2826 H   0  0  0  0  0  0  0  0  0  0  0  0
    1.2256    5.5742    3.0064 H   0  0  0  0  0  0  0  0  0  0  0  0
    3.6014    4.0351    4.1299 H   0  0  0  0  0  0  0  0  0  0  0  0
    2.2585    3.7194    1.8596 H   0  0  0  0  0  0  0  0  0  0  0  0
    0.6070    1.5869    1.0606 H   0  0  0  0  0  0  0  0  0  0  0  0
   -1.5660    0.6550    1.8342 H   0  0  0  0  0  0  0  0  0  0  0  0
   -2.3344    1.0171    4.1681 H   0  0  0  0  0  0  0  0  0  0  0  0
   -0.9444    2.3631    5.7668 H   0  0  0  0  0  0  0  0  0  0  0  0
    3.0713    2.5206    2.6437 H   0  0  0  0  0  0  0  0  0  0  0  0
  2  1  1  1
  1 22  1  0
  2  6  1  0
  2 21  1  0
  2  3  1  0
  3  4  1  0
  3 23  1  0
  3 24  1  0
  4  5  1  0
  4 25  1  0
  4 26  1  0
  5  6  1  0
  5 27  1  0
  5 28  1  0
  6  7  1  0
  6 29  1  1
  7 21  1  0
  7  8  1  0
  7 30  1  1
  8 12  1  0
  8  9  2  0
  9 10  1  0
  9 31  1  0
 10 11  1  0
 10 32  1  0
 10 33  1  0
 11 12  1  0
 12 13  1  0
 12 34  1  6
 13 21  1  0
 13 14  1  0
 13 35  1  1
 14 15  1  0
 14 36  1  0
 14 41  1  0
 15 20  2  0
 15 16  1  0
 16 17  2  0
 16 37  1  0
 17 18  1  0
 17 38  1  0
 18 19  2  0
 18 39  1  0
 19 20  1  0
 19 40  1  0
 21 20  1  6
M  CHG  1  14   1
M  END
>  <i_m_ct_stereo_status>  (12) 
1

>  <s_m_source_file>  (12) 
/var/tmp/pbs.5076255.sched01/tmp8nmo4hef/06hb_edth.sdf

>  <i_m_source_file_index>  (12) 
4

>  <i_lp_mmshare_version>  (12) 
48012

>  <i_f3d_flags>  (12) 
0

>  <s_epik_input>  (12) 
W0NIMl0xW0NIMl1bQ0gyXVtDQEhdKFtDQF0xKFtDQEBdMjM0KVtPSF0pW0NASF0yQz01W0NAQEhdKE9bQ0gyXVtDSF01KVtDQEBIXTNbTkhdYzZjNFtjSF1bY0hdW2NIXVtjSF02

>  <s_epik_cmdline>  (12) 
J2VwaWtfcHl0aG9uJywgJy1waHQnLCAnMi4wJywgJy1waCcsICc3LjAnLCAnLXRuJywgJzgnLCAnLW1hJywgJzIwMCcsICctaW1hZScsICc8aW5maWxlLm1hZT4nLCAnLW9tYWUnLCAnPG91dGZpbGUubWFlPic=

>  <r_epik_Ionization_Penalty>  (12) 
1.91506

>  <r_epik_Ionization_Penalty_Charging>  (12) 
1.91506

>  <r_epik_Ionization_Penalty_Neutral>  (12) 
6.24721e-08

>  <r_epik_State_Penalty>  (12) 
2.0374

>  <r_epik_Charging_Adjusted_Penalty>  (12) 
3.95245

>  <i_epik_Tot_Q>  (12) 
1

>  <i_epik_Tot_abs_Q>  (12) 
1

>  <s_lp_Force_Field>  (12) 
OPLS3e

>  <r_lp_Energy>  (12) 
41.0982

>  <b_lp_Chiralities_Consistent>  (12) 
1

>  <s_lp_Variant>  (12) 
1:0-2

>  <s_i_glide_gridfile>  (12) 
pfpi4k_grid

>  <i_i_glide_lignum>  (12) 
4

>  <i_i_glide_rotatable_bonds>  (12) 
1

>  <r_i_docking_score>  (12) 
-2.87898

>  <r_i_glide_ligand_efficiency>  (12) 
-0.137094

>  <r_i_glide_ligand_efficiency_sa>  (12) 
-0.378233

>  <r_i_glide_ligand_efficiency_ln>  (12) 
-0.711822

>  <r_i_glide_gscore>  (12) 
-2.87898

>  <r_i_glide_lipo>  (12) 
-5.20464e-05

>  <r_i_glide_hbond>  (12) 
0

>  <r_i_glide_metal>  (12) 
-0

>  <r_i_glide_rewards>  (12) 
-1.48393

>  <r_i_glide_evdw>  (12) 
-16.745

>  <r_i_glide_ecoul>  (12) 
-3.31687

>  <r_i_glide_erotb>  (12) 
0

>  <r_i_glide_esite>  (12) 
-0.0602167

>  <r_i_glide_emodel>  (12) 
-24.7215

>  <r_i_glide_energy>  (12) 
-20.0619

>  <r_i_glide_einternal>  (12) 
0.00251698

>  <r_i_glide_intrahb_reward>  (12) 
-0

>  <i_i_glide_confnum>  (12) 
1

>  <i_i_glide_posenum>  (12) 
15

>  <r_i_glide_eff_state_penalty>  (12) 
0

>  <ligand_id>  (12) 
1

>  <original_smiles>  (12) 
OC12CCCC1C1C3=CCOC3C3Nc4ccccc4C312

>  <smiles>  (12) 
[H]OC12C([H])([H])C([H])([H])C([H])([H])C1([H])C1([H])C3=C([H])C([H])([H])OC3([H])C3([H])C12c1c([H])c([H])c([H])c([H])c1[N+]3([H])[H]

$$$$
3:0:0
     RDKit          3D

 53 56  0  0  1  0  0  0  0  0999 V2000
    3.7108   -2.6740   -2.5200 C   0  0  0  0  0  0  0  0  0  0  0  0
    4.3530   -3.0254   -1.3990 C   0  0  0  0  0  0  0  0  0  0  0  0
    5.6524   -3.7757   -1.3552 C   0  0  0  0  0  0  0  0  0  0  0  0
    6.4675   -3.0576   -0.2646 C   0  0  1  0  0  0  0  0  0  0  0  0
    7.4276   -4.0005    0.4962 C   0  0  0  0  0  0  0  0  0  0  0  0
    7.3947   -2.2582   -0.9871 O   0  0  0  0  0  0  0  0  0  0  0  0
    5.4153   -2.1912    0.5823 C   0  0  1  0  0  0  0  0  0  0  0  0
    5.6228   -0.6819    0.2069 C   0  0  0  0  0  0  0  0  0  0  0  0
    4.0069   -2.5504   -0.0014 C   0  0  2  0  0  0  0  0  0  0  0  0
    3.1695   -3.5712    0.8441 C   0  0  2  0  0  0  0  0  0  0  0  0
    2.2595   -4.4500   -0.0494 C   0  0  0  0  0  0  0  0  0  0  0  0
    2.2353   -2.8315    1.8669 C   0  0  0  0  0  0  0  0  0  0  0  0
    2.8103   -2.3903    3.2465 C   0  0  2  0  0  0  0  0  0  0  0  0
    3.5118   -1.0211    3.1713 C   0  0  0  0  0  0  0  0  0  0  0  0
    5.0067   -1.1628    2.9170 C   0  0  0  0  0  0  0  0  0  0  0  0
    5.8020   -0.3083    3.3143 O   0  0  0  0  0  0  0  0  0  0  0  0
    5.4786   -2.4183    2.1597 C   0  0  1  0  0  0  0  0  0  0  0  0
    4.7995   -3.7470    2.7442 C   0  0  2  0  0  0  0  0  0  0  0  0
    5.7903   -4.5961    3.2884 O   0  0  0  0  0  0  0  0  0  0  0  0
    4.1132   -4.5158    1.6002 C   0  0  0  0  0  0  0  0  0  0  0  0
    3.7103   -3.4984    3.8649 C   0  0  0  0  0  0  0  0  0  0  0  0
    4.3158   -3.0841    5.2408 C   0  0  0  0  0  0  0  0  0  0  0  0
    2.8335   -4.7367    4.2271 C   0  0  0  0  0  0  0  0  0  0  0  0
    2.8202   -2.0614   -2.4776 H   0  0  0  0  0  0  0  0  0  0  0  0
    4.0768   -2.9903   -3.4870 H   0  0  0  0  0  0  0  0  0  0  0  0
    5.4344   -4.8074   -1.0848 H   0  0  0  0  0  0  0  0  0  0  0  0
    6.1388   -3.8131   -2.3307 H   0  0  0  0  0  0  0  0  0  0  0  0
    6.9314   -4.8072    1.0269 H   0  0  0  0  0  0  0  0  0  0  0  0
    8.0359   -3.4632    1.2240 H   0  0  0  0  0  0  0  0  0  0  0  0
    8.1222   -4.4918   -0.1840 H   0  0  0  0  0  0  0  0  0  0  0  0
    8.0248   -2.8282   -1.4035 H   0  0  0  0  0  0  0  0  0  0  0  0
    4.8269   -0.0300    0.5714 H   0  0  0  0  0  0  0  0  0  0  0  0
    5.6112   -0.5345   -0.8739 H   0  0  0  0  0  0  0  0  0  0  0  0
    6.5703   -0.2930    0.5878 H   0  0  0  0  0  0  0  0  0  0  0  0
    3.3900   -1.6586   -0.1402 H   0  0  0  0  0  0  0  0  0  0  0  0
    1.6611   -5.1332    0.5591 H   0  0  0  0  0  0  0  0  0  0  0  0
    2.8409   -5.0782   -0.7223 H   0  0  0  0  0  0  0  0  0  0  0  0
    1.5828   -3.8519   -0.6675 H   0  0  0  0  0  0  0  0  0  0  0  0
    1.7671   -1.9717    1.3861 H   0  0  0  0  0  0  0  0  0  0  0  0
    1.4153   -3.5027    2.1059 H   0  0  0  0  0  0  0  0  0  0  0  0
    1.9512   -2.2356    3.9028 H   0  0  0  0  0  0  0  0  0  0  0  0
    3.0626   -0.3829    2.4086 H   0  0  0  0  0  0  0  0  0  0  0  0
    3.3864   -0.5016    4.1187 H   0  0  0  0  0  0  0  0  0  0  0  0
    6.5291   -2.4663    2.4218 H   0  0  0  0  0  0  0  0  0  0  0  0
    5.3680   -5.3892    3.5817 H   0  0  0  0  0  0  0  0  0  0  0  0
    3.5871   -5.4025    1.9517 H   0  0  0  0  0  0  0  0  0  0  0  0
    4.8344   -4.9551    0.9241 H   0  0  0  0  0  0  0  0  0  0  0  0
    4.6716   -3.9562    5.7919 H   0  0  0  0  0  0  0  0  0  0  0  0
    3.5680   -2.5944    5.8680 H   0  0  0  0  0  0  0  0  0  0  0  0
    5.1729   -2.4158    5.1731 H   0  0  0  0  0  0  0  0  0  0  0  0
    3.4511   -5.6066    4.4482 H   0  0  0  0  0  0  0  0  0  0  0  0
    2.1305   -5.0317    3.4508 H   0  0  0  0  0  0  0  0  0  0  0  0
    2.2215   -4.5427    5.1103 H   0  0  0  0  0  0  0  0  0  0  0  0
  1  2  2  0
  1 24  1  0
  1 25  1  0
  2  9  1  0
  2  3  1  0
  3  4  1  0
  3 26  1  0
  3 27  1  0
  4  5  1  0
  4  6  1  6
  4  7  1  0
  5 28  1  0
  5 29  1  0
  5 30  1  0
  6 31  1  0
  7 17  1  0
  7  8  1  1
  7  9  1  0
  8 32  1  0
  8 33  1  0
  8 34  1  0
  9 10  1  0
  9 35  1  6
 10 20  1  0
 10 11  1  6
 10 12  1  0
 11 36  1  0
 11 37  1  0
 11 38  1  0
 12 13  1  0
 12 39  1  0
 12 40  1  0
 13 21  1  0
 13 14  1  0
 13 41  1  1
 14 15  1  0
 14 42  1  0
 14 43  1  0
 15 16  2  0
 15 17  1  0
 17 18  1  0
 17 44  1  1
 18 19  1  1
 18 20  1  0
 18 21  1  0
 19 45  1  0
 20 46  1  0
 20 47  1  0
 21 22  1  0
 21 23  1  0
 22 48  1  0
 22 49  1  0
 22 50  1  0
 23 51  1  0
 23 52  1  0
 23 53  1  0
M  END
>  <i_m_ct_stereo_status>  (13) 
1

>  <s_m_source_file>  (13) 
/var/tmp/pbs.5076255.sched01/tmp8nmo4hef/06hb_edth.sdf

>  <i_m_source_file_index>  (13) 
6

>  <i_lp_mmshare_version>  (13) 
48012

>  <i_f3d_flags>  (13) 
0

>  <s_epik_input>  (13) 
W0NIM11bQ0BAXTEoW09IXSlbQ0gyXUMoPVtDSDJdKVtDQEhdKFtDQF0xMltDSDNdKVtDQF0zKFtDSDNdKVtDSDJdW0NAQEhdNFtDSDJdQyg9TylbQ0BIXTJbQ0BdKFtPSF0pKFtDSDJdMylDNChbQ0gzXSlbQ0gzXQ==

>  <s_epik_cmdline>  (13) 
J2VwaWtfcHl0aG9uJywgJy1waHQnLCAnMi4wJywgJy1waCcsICc3LjAnLCAnLXRuJywgJzgnLCAnLW1hJywgJzIwMCcsICctaW1hZScsICc8aW5maWxlLm1hZT4nLCAnLW9tYWUnLCAnPG91dGZpbGUubWFlPic=

>  <r_lp_tautomer_probability>  (13) 
1

>  <r_epik_Ionization_Penalty>  (13) 
5.93583e-07

>  <r_epik_Ionization_Penalty_Charging>  (13) 
0

>  <r_epik_Ionization_Penalty_Neutral>  (13) 
5.93583e-07

>  <r_epik_State_Penalty>  (13) 
-0

>  <r_epik_Charging_Adjusted_Penalty>  (13) 
0

>  <i_epik_Tot_Q>  (13) 
0

>  <i_epik_Tot_abs_Q>  (13) 
0

>  <s_lp_Force_Field>  (13) 
OPLS3e

>  <r_lp_Energy>  (13) 
62.8866

>  <b_lp_Chiralities_Consistent>  (13) 
1

>  <s_lp_Variant>  (13) 
3:0-1

>  <s_i_glide_gridfile>  (13) 
pfpi4k_grid

>  <i_i_glide_lignum>  (13) 
6

>  <i_i_glide_rotatable_bonds>  (13) 
2

>  <r_i_docking_score>  (13) 
-3.71221

>  <r_i_glide_ligand_efficiency>  (13) 
-0.161401

>  <r_i_glide_ligand_efficiency_sa>  (13) 
-0.459002

>  <r_i_glide_ligand_efficiency_ln>  (13) 
-0.897647

>  <r_i_glide_gscore>  (13) 
-3.71221

>  <r_i_glide_lipo>  (13) 
-0.496063

>  <r_i_glide_hbond>  (13) 
-0.16

>  <r_i_glide_metal>  (13) 
-0

>  <r_i_glide_rewards>  (13) 
-1.36954

>  <r_i_glide_evdw>  (13) 
-20.8719

>  <r_i_glide_ecoul>  (13) 
-4.28679

>  <r_i_glide_erotb>  (13) 
0

>  <r_i_glide_esite>  (13) 
0

>  <r_i_glide_emodel>  (13) 
-30.9286

>  <r_i_glide_energy>  (13) 
-25.1587

>  <r_i_glide_einternal>  (13) 
0.0498931

>  <r_i_glide_intrahb_reward>  (13) 
-0

>  <i_i_glide_confnum>  (13) 
2

>  <i_i_glide_posenum>  (13) 
11

>  <r_i_glide_eff_state_penalty>  (13) 
0

>  <ligand_id>  (13) 
3

>  <original_smiles>  (13) 
C=C1CC(C)(O)C2(C)C1C1(C)CC3CC(=O)C2C(O)(C1)C3(C)C

>  <smiles>  (13) 
[H]OC1(C([H])([H])[H])C([H])([H])C(=C([H])[H])C2([H])C3(C([H])([H])[H])C([H])([H])C4([H])C([H])([H])C(=O)C([H])(C(O[H])(C3([H])[H])C4(C([H])([H])[H])C([H])([H])[H])C21C([H])([H])[H]

$$$$
3:0:1
     RDKit          3D

 53 56  0  0  1  0  0  0  0  0999 V2000
    2.7527   -3.0973   -1.9222 C   0  0  0  0  0  0  0  0  0  0  0  0
    3.6590   -3.4113   -0.9850 C   0  0  0  0  0  0  0  0  0  0  0  0
    5.0854   -3.7811   -1.2720 C   0  0  0  0  0  0  0  0  0  0  0  0
    5.8992   -2.9945   -0.2231 C   0  0  1  0  0  0  0  0  0  0  0  0
    7.1824   -3.7383    0.2049 C   0  0  0  0  0  0  0  0  0  0  0  0
    6.4392   -1.8842   -0.9281 O   0  0  0  0  0  0  0  0  0  0  0  0
    4.8545   -2.5479    0.9075 C   0  0  1  0  0  0  0  0  0  0  0  0
    4.6136   -1.0000    0.7481 C   0  0  0  0  0  0  0  0  0  0  0  0
    3.4833   -3.2037    0.5101 C   0  0  2  0  0  0  0  0  0  0  0  0
    3.0803   -4.5003    1.3190 C   0  0  2  0  0  0  0  0  0  0  0  0
    2.2562   -5.4950    0.4796 C   0  0  0  0  0  0  0  0  0  0  0  0
    2.2131   -4.1614    2.5833 C   0  0  0  0  0  0  0  0  0  0  0  0
    2.9341   -3.7405    3.8980 C   0  0  2  0  0  0  0  0  0  0  0  0
    3.2722   -2.2357    3.9197 C   0  0  0  0  0  0  0  0  0  0  0  0
    4.6809   -1.9438    3.4102 C   0  0  0  0  0  0  0  0  0  0  0  0
    5.3110   -0.9644    3.8066 O   0  0  0  0  0  0  0  0  0  0  0  0
    5.2822   -2.9364    2.3948 C   0  0  1  0  0  0  0  0  0  0  0  0
    5.0430   -4.4530    2.8609 C   0  0  2  0  0  0  0  0  0  0  0  0
    6.2666   -5.1054    3.1042 O   0  0  0  0  0  0  0  0  0  0  0  0
    4.3574   -5.2393    1.7382 C   0  0  0  0  0  0  0  0  0  0  0  0
    4.1802   -4.6251    4.1729 C   0  0  0  0  0  0  0  0  0  0  0  0
    4.9409   -4.2266    5.4756 C   0  0  0  0  0  0  0  0  0  0  0  0
    3.7237   -6.0864    4.4677 C   0  0  0  0  0  0  0  0  0  0  0  0
    1.7720   -2.7485   -1.6433 H   0  0  0  0  0  0  0  0  0  0  0  0
    2.9784   -3.2040   -2.9720 H   0  0  0  0  0  0  0  0  0  0  0  0
    5.1789   -4.8573   -1.1400 H   0  0  0  0  0  0  0  0  0  0  0  0
    5.3647   -3.5830   -2.3068 H   0  0  0  0  0  0  0  0  0  0  0  0
    7.0023   -4.7095    0.6524 H   0  0  0  0  0  0  0  0  0  0  0  0
    7.7760   -3.1493    0.9031 H   0  0  0  0  0  0  0  0  0  0  0  0
    7.8227   -3.9293   -0.6572 H   0  0  0  0  0  0  0  0  0  0  0  0
    5.7050   -1.4041   -1.2842 H   0  0  0  0  0  0  0  0  0  0  0  0
    3.7753   -0.6318    1.3412 H   0  0  0  0  0  0  0  0  0  0  0  0
    4.3475   -0.7260   -0.2762 H   0  0  0  0  0  0  0  0  0  0  0  0
    5.4958   -0.4231    1.0314 H   0  0  0  0  0  0  0  0  0  0  0  0
    2.6596   -2.4927    0.6172 H   0  0  0  0  0  0  0  0  0  0  0  0
    1.9390   -6.3562    1.0705 H   0  0  0  0  0  0  0  0  0  0  0  0
    2.8680   -5.8975   -0.3220 H   0  0  0  0  0  0  0  0  0  0  0  0
    1.3705   -5.0450    0.0363 H   0  0  0  0  0  0  0  0  0  0  0  0
    1.4883   -3.3880    2.3316 H   0  0  0  0  0  0  0  0  0  0  0  0
    1.5924   -5.0260    2.8306 H   0  0  0  0  0  0  0  0  0  0  0  0
    2.2232   -3.8925    4.7120 H   0  0  0  0  0  0  0  0  0  0  0  0
    2.5450   -1.6525    3.3569 H   0  0  0  0  0  0  0  0  0  0  0  0
    3.2233   -1.8771    4.9460 H   0  0  0  0  0  0  0  0  0  0  0  0
    6.3424   -2.7284    2.4745 H   0  0  0  0  0  0  0  0  0  0  0  0
    6.7913   -5.0573    2.3207 H   0  0  0  0  0  0  0  0  0  0  0  0
    4.1488   -6.2659    2.0246 H   0  0  0  0  0  0  0  0  0  0  0  0
    5.0103   -5.3874    0.8893 H   0  0  0  0  0  0  0  0  0  0  0  0
    5.5966   -5.0314    5.8088 H   0  0  0  0  0  0  0  0  0  0  0  0
    4.2406   -4.0311    6.2872 H   0  0  0  0  0  0  0  0  0  0  0  0
    5.5838   -3.3540    5.3801 H   0  0  0  0  0  0  0  0  0  0  0  0
    4.5679   -6.7775    4.4414 H   0  0  0  0  0  0  0  0  0  0  0  0
    2.9726   -6.4662    3.7776 H   0  0  0  0  0  0  0  0  0  0  0  0
    3.2744   -6.1609    5.4580 H   0  0  0  0  0  0  0  0  0  0  0  0
  1  2  2  0
  1 24  1  0
  1 25  1  0
  2  9  1  0
  2  3  1  0
  3  4  1  0
  3 26  1  0
  3 27  1  0
  4  5  1  0
  4  6  1  6
  4  7  1  0
  5 28  1  0
  5 29  1  0
  5 30  1  0
  6 31  1  0
  7 17  1  0
  7  8  1  1
  7  9  1  0
  8 32  1  0
  8 33  1  0
  8 34  1  0
  9 10  1  0
  9 35  1  6
 10 20  1  0
 10 11  1  6
 10 12  1  0
 11 36  1  0
 11 37  1  0
 11 38  1  0
 12 13  1  0
 12 39  1  0
 12 40  1  0
 13 21  1  0
 13 14  1  0
 13 41  1  1
 14 15  1  0
 14 42  1  0
 14 43  1  0
 15 16  2  0
 15 17  1  0
 17 18  1  0
 17 44  1  6
 18 19  1  1
 18 20  1  0
 18 21  1  0
 19 45  1  0
 20 46  1  0
 20 47  1  0
 21 22  1  0
 21 23  1  0
 22 48  1  0
 22 49  1  0
 22 50  1  0
 23 51  1  0
 23 52  1  0
 23 53  1  0
M  END
>  <i_m_ct_stereo_status>  (14) 
1

>  <s_m_source_file>  (14) 
/var/tmp/pbs.5076255.sched01/tmp8nmo4hef/06hb_edth.sdf

>  <i_m_source_file_index>  (14) 
6

>  <i_lp_mmshare_version>  (14) 
48012

>  <i_f3d_flags>  (14) 
0

>  <s_epik_input>  (14) 
W0NIM11bQ0BAXTEoW09IXSlbQ0gyXUMoPVtDSDJdKVtDQEhdKFtDQF0xMltDSDNdKVtDQF0zKFtDSDNdKVtDSDJdW0NAQEhdNFtDSDJdQyg9TylbQ0BIXTJbQ0BdKFtPSF0pKFtDSDJdMylDNChbQ0gzXSlbQ0gzXQ==

>  <s_epik_cmdline>  (14) 
J2VwaWtfcHl0aG9uJywgJy1waHQnLCAnMi4wJywgJy1waCcsICc3LjAnLCAnLXRuJywgJzgnLCAnLW1hJywgJzIwMCcsICctaW1hZScsICc8aW5maWxlLm1hZT4nLCAnLW9tYWUnLCAnPG91dGZpbGUubWFlPic=

>  <r_lp_tautomer_probability>  (14) 
1

>  <r_epik_Ionization_Penalty>  (14) 
5.93583e-07

>  <r_epik_Ionization_Penalty_Charging>  (14) 
0

>  <r_epik_Ionization_Penalty_Neutral>  (14) 
5.93583e-07

>  <r_epik_State_Penalty>  (14) 
-0

>  <r_epik_Charging_Adjusted_Penalty>  (14) 
0

>  <i_epik_Tot_Q>  (14) 
0

>  <i_epik_Tot_abs_Q>  (14) 
0

>  <s_lp_Force_Field>  (14) 
OPLS3e

>  <r_lp_Energy>  (14) 
62.8866

>  <b_lp_Chiralities_Consistent>  (14) 
1

>  <s_lp_Variant>  (14) 
3:0-1

>  <s_i_glide_gridfile>  (14) 
pfpi4k_grid

>  <i_i_glide_lignum>  (14) 
6

>  <i_i_glide_rotatable_bonds>  (14) 
2

>  <r_i_docking_score>  (14) 
-3.329

>  <r_i_glide_ligand_efficiency>  (14) 
-0.144739

>  <r_i_glide_ligand_efficiency_sa>  (14) 
-0.411619

>  <r_i_glide_ligand_efficiency_ln>  (14) 
-0.804982

>  <r_i_glide_gscore>  (14) 
-3.329

>  <r_i_glide_lipo>  (14) 
-0.419181

>  <r_i_glide_hbond>  (14) 
-0.159564

>  <r_i_glide_metal>  (14) 
-0

>  <r_i_glide_rewards>  (14) 
-1.29603

>  <r_i_glide_evdw>  (14) 
-20.244

>  <r_i_glide_ecoul>  (14) 
-2.94684

>  <r_i_glide_erotb>  (14) 
0

>  <r_i_glide_esite>  (14) 
0

>  <r_i_glide_emodel>  (14) 
-28.3017

>  <r_i_glide_energy>  (14) 
-23.1909

>  <r_i_glide_einternal>  (14) 
0.0290897

>  <r_i_glide_intrahb_reward>  (14) 
-0

>  <i_i_glide_confnum>  (14) 
1

>  <i_i_glide_posenum>  (14) 
7

>  <r_i_glide_eff_state_penalty>  (14) 
0

>  <ligand_id>  (14) 
3

>  <original_smiles>  (14) 
C=C1CC(C)(O)C2(C)C1C1(C)CC3CC(=O)C2C(O)(C1)C3(C)C

>  <smiles>  (14) 
[H]OC1(C([H])([H])[H])C([H])([H])C(=C([H])[H])C2([H])C3(C([H])([H])[H])C([H])([H])C4([H])C([H])([H])C(=O)C([H])(C(O[H])(C3([H])[H])C4(C([H])([H])[H])C([H])([H])[H])C21C([H])([H])[H]

$$$$
4:0:0
     RDKit          3D

 66 70  0  0  1  0  0  0  0  0999 V2000
    6.3415   -7.8399    5.2575 C   0  0  0  0  0  0  0  0  0  0  0  0
    5.2649   -7.6449    4.1953 C   0  0  0  0  0  0  0  0  0  0  0  0
    5.3841   -6.7313    3.1991 C   0  0  0  0  0  0  0  0  0  0  0  0
    6.6300   -5.8549    3.0492 C   0  0  0  0  0  0  0  0  0  0  0  0
    6.8857   -5.2874    1.6377 C   0  0  1  0  0  0  0  0  0  0  0  0
    7.4843   -6.3240    0.8782 O   0  0  0  0  0  0  0  0  0  0  0  0
    5.6255   -4.7578    0.8793 C   0  0  2  0  0  0  0  0  0  0  0  0
    5.7673   -3.3499    0.2044 C   0  0  1  0  0  0  0  0  0  0  0  0
    5.9803   -2.1678    1.1693 C   0  0  0  0  0  0  0  0  0  0  0  0
    6.9318   -3.3343   -0.6001 O   0  0  0  0  0  0  0  0  0  0  0  0
    4.5680   -3.0758   -0.7443 C   0  0  1  0  0  0  0  0  0  0  0  0
    4.6583   -3.8572   -1.9296 O   0  0  0  0  0  0  0  0  0  0  0  0
    3.2040   -3.3362   -0.0723 C   0  0  0  0  0  0  0  0  0  0  0  0
    3.1269   -4.7168    0.6282 C   0  0  0  0  0  0  0  0  0  0  0  0
    4.2789   -4.9799    1.6453 C   0  0  2  0  0  0  0  0  0  0  0  0
    4.0570   -4.0224    2.8604 C   0  0  0  0  0  0  0  0  0  0  0  0
    4.2526   -6.4536    2.2037 C   0  0  1  0  0  0  0  0  0  0  0  0
    4.1734   -7.5824    1.1595 C   0  0  0  0  0  0  0  0  0  0  0  0
    4.1820   -9.0328    1.7061 C   0  0  1  0  0  0  0  0  0  0  0  0
    5.5271   -9.4792    1.6899 O   0  0  0  0  0  0  0  0  0  0  0  0
    3.5047   -9.3553    3.0941 C   0  0  1  0  0  0  0  0  0  0  0  0
    3.6665  -10.8940    3.3109 C   0  0  0  0  0  0  0  0  0  0  0  0
    4.0899   -8.6225    4.3590 C   0  0  2  0  0  0  0  0  0  0  0  0
    2.9107   -8.1036    5.2278 C   0  0  1  0  0  0  0  0  0  0  0  0
    2.7559   -6.6936    5.1590 O   0  0  0  0  0  0  0  0  0  0  0  0
    1.6852   -8.8412    4.6558 C   0  0  1  0  0  0  0  0  0  0  0  0
    0.4819   -8.1249    4.8695 O   0  0  0  0  0  0  0  0  0  0  0  0
    2.0048   -9.0380    3.1883 C   0  0  1  0  0  0  0  0  0  0  0  0
    1.0869   -8.6007    2.0685 C   0  0  0  0  0  0  0  0  0  0  0  0
    1.1513   -9.9585    2.4818 O   0  0  0  0  0  0  0  0  0  0  0  0
    5.8906   -8.0571    6.2266 H   0  0  0  0  0  0  0  0  0  0  0  0
    6.9624   -6.9557    5.4028 H   0  0  0  0  0  0  0  0  0  0  0  0
    6.9843   -8.6781    4.9860 H   0  0  0  0  0  0  0  0  0  0  0  0
    6.5253   -5.0411    3.7598 H   0  0  0  0  0  0  0  0  0  0  0  0
    7.5180   -6.4021    3.3647 H   0  0  0  0  0  0  0  0  0  0  0  0
    7.6377   -4.5026    1.7102 H   0  0  0  0  0  0  0  0  0  0  0  0
    8.2564   -6.6466    1.3239 H   0  0  0  0  0  0  0  0  0  0  0  0
    5.5384   -5.4222    0.0177 H   0  0  0  0  0  0  0  0  0  0  0  0
    5.0691   -1.8754    1.6849 H   0  0  0  0  0  0  0  0  0  0  0  0
    6.3187   -1.2825    0.6291 H   0  0  0  0  0  0  0  0  0  0  0  0
    6.7296   -2.3981    1.9216 H   0  0  0  0  0  0  0  0  0  0  0  0
    6.7710   -3.9342   -1.3170 H   0  0  0  0  0  0  0  0  0  0  0  0
    4.6056   -2.0361   -1.0686 H   0  0  0  0  0  0  0  0  0  0  0  0
    4.1774   -4.6633   -1.8084 H   0  0  0  0  0  0  0  0  0  0  0  0
    3.0022   -2.5346    0.6364 H   0  0  0  0  0  0  0  0  0  0  0  0
    2.4082   -3.2519   -0.8136 H   0  0  0  0  0  0  0  0  0  0  0  0
    2.1611   -4.8248    1.1259 H   0  0  0  0  0  0  0  0  0  0  0  0
    3.1433   -5.4643   -0.1654 H   0  0  0  0  0  0  0  0  0  0  0  0
    3.4902   -4.4971    3.6610 H   0  0  0  0  0  0  0  0  0  0  0  0
    3.4851   -3.1330    2.6117 H   0  0  0  0  0  0  0  0  0  0  0  0
    4.9845   -3.6664    3.2995 H   0  0  0  0  0  0  0  0  0  0  0  0
    3.3132   -6.5395    2.7441 H   0  0  0  0  0  0  0  0  0  0  0  0
    3.2602   -7.4491    0.5953 H   0  0  0  0  0  0  0  0  0  0  0  0
    4.9762   -7.4941    0.4278 H   0  0  0  0  0  0  0  0  0  0  0  0
    3.6898   -9.6450    0.9453 H   0  0  0  0  0  0  0  0  0  0  0  0
    5.5063  -10.4245    1.6194 H   0  0  0  0  0  0  0  0  0  0  0  0
    3.1364  -11.2535    4.1934 H   0  0  0  0  0  0  0  0  0  0  0  0
    4.7108  -11.1832    3.4288 H   0  0  0  0  0  0  0  0  0  0  0  0
    3.2742  -11.4600    2.4679 H   0  0  0  0  0  0  0  0  0  0  0  0
    4.5236   -9.4195    4.9594 H   0  0  0  0  0  0  0  0  0  0  0  0
    3.0383   -8.3523    6.2813 H   0  0  0  0  0  0  0  0  0  0  0  0
    2.6441   -6.4485    4.2524 H   0  0  0  0  0  0  0  0  0  0  0  0
    1.5801   -9.8238    5.1241 H   0  0  0  0  0  0  0  0  0  0  0  0
   -0.2383   -8.7118    4.6768 H   0  0  0  0  0  0  0  0  0  0  0  0
    0.1373   -8.1238    2.2948 H   0  0  0  0  0  0  0  0  0  0  0  0
    1.4396   -8.4749    1.0492 H   0  0  0  0  0  0  0  0  0  0  0  0
  1  2  1  0
  1 31  1  0
  1 32  1  0
  1 33  1  0
  2 23  1  0
  2  3  2  0
  3 17  1  0
  3  4  1  0
  4  5  1  0
  4 34  1  0
  4 35  1  0
  5  6  1  0
  5  7  1  0
  5 36  1  1
  6 37  1  0
  7 15  1  0
  7  8  1  0
  7 38  1  6
  8  9  1  0
  8 10  1  6
  8 11  1  0
  9 39  1  0
  9 40  1  0
  9 41  1  0
 10 42  1  0
 11 12  1  0
 11 13  1  0
 11 43  1  6
 12 44  1  0
 13 14  1  0
 13 45  1  0
 13 46  1  0
 14 15  1  0
 14 47  1  0
 14 48  1  0
 15 16  1  1
 15 17  1  0
 16 49  1  0
 16 50  1  0
 16 51  1  0
 17 18  1  0
 17 52  1  1
 18 19  1  0
 18 53  1  0
 18 54  1  0
 19 20  1  0
 19 21  1  0
 19 55  1  6
 20 56  1  0
 21 28  1  0
 21 22  1  1
 21 23  1  0
 22 57  1  0
 22 58  1  0
 22 59  1  0
 23 24  1  0
 23 60  1  1
 24 25  1  0
 24 26  1  0
 24 61  1  1
 25 62  1  0
 26 27  1  0
 26 28  1  0
 26 63  1  1
 27 64  1  0
 28 30  1  1
 28 29  1  0
 29 30  1  0
 29 65  1  0
 29 66  1  0
M  END
>  <i_m_ct_stereo_status>  (15) 
1

>  <s_m_source_file>  (15) 
/var/tmp/pbs.5076255.sched01/tmp8nmo4hef/06hb_edth.sdf

>  <i_m_source_file_index>  (15) 
7

>  <i_lp_mmshare_version>  (15) 
48012

>  <i_f3d_flags>  (15) 
0

>  <s_epik_input>  (15) 
TzFbQ0gyXVtDQF0xMltDQF0zKFtDSDNdKVtDQEhdKFtDQEBIXShbT0hdKVtDQEhdMltPSF0pQyhbQ0gzXSk9QzRbQ0BIXShbQ0gyXVtDQEhdM1tPSF0pW0NAQF01KFtDSDNdKVtDQEhdKFtDQEBIXShbQ0gyXTQpW09IXSlbQ0BAXShbQ0gzXSkoW09IXSlbQ0BASF0oW09IXSlbQ0gyXVtDSDJdNQ==

>  <s_epik_cmdline>  (15) 
J2VwaWtfcHl0aG9uJywgJy1waHQnLCAnMi4wJywgJy1waCcsICc3LjAnLCAnLXRuJywgJzgnLCAnLW1hJywgJzIwMCcsICctaW1hZScsICc8aW5maWxlLm1hZT4nLCAnLW9tYWUnLCAnPG91dGZpbGUubWFlPic=

>  <r_lp_tautomer_probability>  (15) 
1

>  <r_epik_Ionization_Penalty>  (15) 
2.05871e-06

>  <r_epik_Ionization_Penalty_Charging>  (15) 
0

>  <r_epik_Ionization_Penalty_Neutral>  (15) 
2.05871e-06

>  <r_epik_State_Penalty>  (15) 
-0

>  <r_epik_Charging_Adjusted_Penalty>  (15) 
0

>  <i_epik_Tot_Q>  (15) 
0

>  <i_epik_Tot_abs_Q>  (15) 
0

>  <s_lp_Force_Field>  (15) 
OPLS3e

>  <r_lp_Energy>  (15) 
61.1138

>  <b_lp_Chiralities_Consistent>  (15) 
1

>  <s_lp_Variant>  (15) 
4:0-1

>  <s_i_glide_gridfile>  (15) 
pfpi4k_grid

>  <i_i_glide_lignum>  (15) 
7

>  <i_i_glide_rotatable_bonds>  (15) 
6

>  <r_i_docking_score>  (15) 
-3.30414

>  <r_i_glide_ligand_efficiency>  (15) 
-0.110138

>  <r_i_glide_ligand_efficiency_sa>  (15) 
-0.342224

>  <r_i_glide_ligand_efficiency_ln>  (15) 
-0.750736

>  <r_i_glide_gscore>  (15) 
-3.30414

>  <r_i_glide_lipo>  (15) 
-0.481602

>  <r_i_glide_hbond>  (15) 
0

>  <r_i_glide_metal>  (15) 
-0

>  <r_i_glide_rewards>  (15) 
-0.514584

>  <r_i_glide_evdw>  (15) 
-28.2918

>  <r_i_glide_ecoul>  (15) 
-5.95576

>  <r_i_glide_erotb>  (15) 
0

>  <r_i_glide_esite>  (15) 
0

>  <r_i_glide_emodel>  (15) 
-40.141

>  <r_i_glide_energy>  (15) 
-34.2475

>  <r_i_glide_einternal>  (15) 
1.96814

>  <r_i_glide_intrahb_reward>  (15) 
-0

>  <i_i_glide_confnum>  (15) 
1

>  <i_i_glide_posenum>  (15) 
21

>  <r_i_glide_eff_state_penalty>  (15) 
0

>  <ligand_id>  (15) 
4

>  <original_smiles>  (15) 
CC1=C2CC(O)C3C(C)(O)C(O)CCC3(C)C2CC(O)C2(C)C1C(O)C(O)C21CO1

>  <smiles>  (15) 
[H]OC1([H])C([H])(O[H])C2(OC2([H])[H])C2(C([H])([H])[H])C([H])(O[H])C([H])([H])C3([H])C(=C(C([H])([H])[H])C12[H])C([H])([H])C([H])(O[H])C1([H])C(O[H])(C([H])([H])[H])C([H])(O[H])C([H])([H])C([H])([H])C31C([H])([H])[H]

$$$$
4:0:1
     RDKit          3D

 66 70  0  0  1  0  0  0  0  0999 V2000
    5.2428   -4.8644    4.8257 C   0  0  0  0  0  0  0  0  0  0  0  0
    4.3585   -5.1348    3.6085 C   0  0  0  0  0  0  0  0  0  0  0  0
    4.5560   -4.5446    2.4036 C   0  0  0  0  0  0  0  0  0  0  0  0
    5.6887   -3.5602    2.1669 C   0  0  0  0  0  0  0  0  0  0  0  0
    6.1636   -3.3841    0.7220 C   0  0  1  0  0  0  0  0  0  0  0  0
    7.0089   -4.4782    0.4262 O   0  0  0  0  0  0  0  0  0  0  0  0
    5.0280   -3.3154   -0.3320 C   0  0  2  0  0  0  0  0  0  0  0  0
    5.1530   -2.1746   -1.3705 C   0  0  1  0  0  0  0  0  0  0  0  0
    5.0235   -0.7626   -0.7901 C   0  0  0  0  0  0  0  0  0  0  0  0
    6.4549   -2.2200   -1.9175 O   0  0  0  0  0  0  0  0  0  0  0  0
    4.1764   -2.3810   -2.5569 C   0  0  1  0  0  0  0  0  0  0  0  0
    4.5819   -3.4472   -3.3862 O   0  0  0  0  0  0  0  0  0  0  0  0
    2.7594   -2.6835   -2.0822 C   0  0  0  0  0  0  0  0  0  0  0  0
    2.6403   -3.7062   -0.9253 C   0  0  0  0  0  0  0  0  0  0  0  0
    3.5966   -3.5018    0.2664 C   0  0  2  0  0  0  0  0  0  0  0  0
    3.0496   -2.2966    1.0892 C   0  0  0  0  0  0  0  0  0  0  0  0
    3.6176   -4.7476    1.2241 C   0  0  1  0  0  0  0  0  0  0  0  0
    3.8773   -6.1192    0.5722 C   0  0  0  0  0  0  0  0  0  0  0  0
    3.9517   -7.3403    1.5282 C   0  0  1  0  0  0  0  0  0  0  0  0
    5.3266   -7.5102    1.8410 O   0  0  0  0  0  0  0  0  0  0  0  0
    3.0573   -7.3662    2.8299 C   0  0  1  0  0  0  0  0  0  0  0  0
    3.3671   -8.7373    3.5123 C   0  0  0  0  0  0  0  0  0  0  0  0
    3.3171   -6.2265    3.8856 C   0  0  2  0  0  0  0  0  0  0  0  0
    1.9477   -5.7000    4.3780 C   0  0  1  0  0  0  0  0  0  0  0  0
    1.6154   -4.4231    3.8571 O   0  0  0  0  0  0  0  0  0  0  0  0
    0.9569   -6.7734    3.8988 C   0  0  1  0  0  0  0  0  0  0  0  0
   -0.3439   -6.2545    3.7159 O   0  0  0  0  0  0  0  0  0  0  0  0
    1.5470   -7.2860    2.6083 C   0  0  1  0  0  0  0  0  0  0  0  0
    0.8062   -7.3531    1.2931 C   0  0  0  0  0  0  0  0  0  0  0  0
    0.9806   -8.5071    2.0787 O   0  0  0  0  0  0  0  0  0  0  0  0
    4.6464   -4.8722    5.7376 H   0  0  0  0  0  0  0  0  0  0  0  0
    5.7245   -3.8867    4.7835 H   0  0  0  0  0  0  0  0  0  0  0  0
    6.0164   -5.6272    4.9237 H   0  0  0  0  0  0  0  0  0  0  0  0
    5.4195   -2.5947    2.5972 H   0  0  0  0  0  0  0  0  0  0  0  0
    6.5333   -3.9541    2.7042 H   0  0  0  0  0  0  0  0  0  0  0  0
    6.7920   -2.4921    0.6760 H   0  0  0  0  0  0  0  0  0  0  0  0
    6.5097   -5.2805    0.5428 H   0  0  0  0  0  0  0  0  0  0  0  0
    5.1757   -4.1993   -0.9524 H   0  0  0  0  0  0  0  0  0  0  0  0
    4.0128   -0.4750   -0.5142 H   0  0  0  0  0  0  0  0  0  0  0  0
    5.3134   -0.0836   -1.5823 H   0  0  0  0  0  0  0  0  0  0  0  0
    5.6627   -0.5846    0.0746 H   0  0  0  0  0  0  0  0  0  0  0  0
    6.5082   -3.0169   -2.4350 H   0  0  0  0  0  0  0  0  0  0  0  0
    4.1405   -1.4673   -3.1583 H   0  0  0  0  0  0  0  0  0  0  0  0
    4.2271   -4.2423   -3.0028 H   0  0  0  0  0  0  0  0  0  0  0  0
    2.4334   -1.7221   -1.7476 H   0  0  0  0  0  0  0  0  0  0  0  0
    2.0900   -2.9479   -2.9035 H   0  0  0  0  0  0  0  0  0  0  0  0
    1.6059   -3.8044   -0.6013 H   0  0  0  0  0  0  0  0  0  0  0  0
    2.8970   -4.6573   -1.3336 H   0  0  0  0  0  0  0  0  0  0  0  0
    2.3842   -2.6114    1.8951 H   0  0  0  0  0  0  0  0  0  0  0  0
    2.4544   -1.6235    0.4797 H   0  0  0  0  0  0  0  0  0  0  0  0
    3.8252   -1.6799    1.5386 H   0  0  0  0  0  0  0  0  0  0  0  0
    2.6094   -4.8380    1.6187 H   0  0  0  0  0  0  0  0  0  0  0  0
    3.0810   -6.2955   -0.1375 H   0  0  0  0  0  0  0  0  0  0  0  0
    4.7826   -6.1173   -0.0343 H   0  0  0  0  0  0  0  0  0  0  0  0
    3.6936   -8.2133    0.9212 H   0  0  0  0  0  0  0  0  0  0  0  0
    5.4378   -8.3805    2.1986 H   0  0  0  0  0  0  0  0  0  0  0  0
    2.7216   -8.9309    4.3672 H   0  0  0  0  0  0  0  0  0  0  0  0
    4.3945   -8.8038    3.8799 H   0  0  0  0  0  0  0  0  0  0  0  0
    3.2238   -9.5705    2.8202 H   0  0  0  0  0  0  0  0  0  0  0  0
    3.7234   -6.7448    4.7531 H   0  0  0  0  0  0  0  0  0  0  0  0
    1.8898   -5.6082    5.4631 H   0  0  0  0  0  0  0  0  0  0  0  0
    1.7879   -4.4110    2.9257 H   0  0  0  0  0  0  0  0  0  0  0  0
    0.8986   -7.6014    4.6030 H   0  0  0  0  0  0  0  0  0  0  0  0
   -0.9291   -7.0211    3.6919 H   0  0  0  0  0  0  0  0  0  0  0  0
   -0.2161   -7.0247    1.2134 H   0  0  0  0  0  0  0  0  0  0  0  0
    1.3422   -7.3970    0.3747 H   0  0  0  0  0  0  0  0  0  0  0  0
  1  2  1  0
  1 31  1  0
  1 32  1  0
  1 33  1  0
  2 23  1  0
  2  3  2  0
  3 17  1  0
  3  4  1  0
  4  5  1  0
  4 34  1  0
  4 35  1  0
  5  6  1  0
  5  7  1  0
  5 36  1  1
  6 37  1  0
  7 15  1  0
  7  8  1  0
  7 38  1  6
  8  9  1  0
  8 10  1  6
  8 11  1  0
  9 39  1  0
  9 40  1  0
  9 41  1  0
 10 42  1  0
 11 12  1  0
 11 13  1  0
 11 43  1  6
 12 44  1  0
 13 14  1  0
 13 45  1  0
 13 46  1  0
 14 15  1  0
 14 47  1  0
 14 48  1  0
 15 16  1  1
 15 17  1  0
 16 49  1  0
 16 50  1  0
 16 51  1  0
 17 18  1  0
 17 52  1  1
 18 19  1  0
 18 53  1  0
 18 54  1  0
 19 20  1  0
 19 21  1  0
 19 55  1  6
 20 56  1  0
 21 28  1  0
 21 22  1  1
 21 23  1  0
 22 57  1  0
 22 58  1  0
 22 59  1  0
 23 24  1  0
 23 60  1  1
 24 25  1  0
 24 26  1  0
 24 61  1  1
 25 62  1  0
 26 27  1  0
 26 28  1  0
 26 63  1  1
 27 64  1  0
 28 30  1  1
 28 29  1  0
 29 30  1  0
 29 65  1  0
 29 66  1  0
M  END
>  <i_m_ct_stereo_status>  (16) 
1

>  <s_m_source_file>  (16) 
/var/tmp/pbs.5076255.sched01/tmp8nmo4hef/06hb_edth.sdf

>  <i_m_source_file_index>  (16) 
7

>  <i_lp_mmshare_version>  (16) 
48012

>  <i_f3d_flags>  (16) 
0

>  <s_epik_input>  (16) 
TzFbQ0gyXVtDQF0xMltDQF0zKFtDSDNdKVtDQEhdKFtDQEBIXShbT0hdKVtDQEhdMltPSF0pQyhbQ0gzXSk9QzRbQ0BIXShbQ0gyXVtDQEhdM1tPSF0pW0NAQF01KFtDSDNdKVtDQEhdKFtDQEBIXShbQ0gyXTQpW09IXSlbQ0BAXShbQ0gzXSkoW09IXSlbQ0BASF0oW09IXSlbQ0gyXVtDSDJdNQ==

>  <s_epik_cmdline>  (16) 
J2VwaWtfcHl0aG9uJywgJy1waHQnLCAnMi4wJywgJy1waCcsICc3LjAnLCAnLXRuJywgJzgnLCAnLW1hJywgJzIwMCcsICctaW1hZScsICc8aW5maWxlLm1hZT4nLCAnLW9tYWUnLCAnPG91dGZpbGUubWFlPic=

>  <r_lp_tautomer_probability>  (16) 
1

>  <r_epik_Ionization_Penalty>  (16) 
2.05871e-06

>  <r_epik_Ionization_Penalty_Charging>  (16) 
0

>  <r_epik_Ionization_Penalty_Neutral>  (16) 
2.05871e-06

>  <r_epik_State_Penalty>  (16) 
-0

>  <r_epik_Charging_Adjusted_Penalty>  (16) 
0

>  <i_epik_Tot_Q>  (16) 
0

>  <i_epik_Tot_abs_Q>  (16) 
0

>  <s_lp_Force_Field>  (16) 
OPLS3e

>  <r_lp_Energy>  (16) 
61.1138

>  <b_lp_Chiralities_Consistent>  (16) 
1

>  <s_lp_Variant>  (16) 
4:0-1

>  <s_i_glide_gridfile>  (16) 
pfpi4k_grid

>  <i_i_glide_lignum>  (16) 
7

>  <i_i_glide_rotatable_bonds>  (16) 
6

>  <r_i_docking_score>  (16) 
-2.93607

>  <r_i_glide_ligand_efficiency>  (16) 
-0.0978691

>  <r_i_glide_ligand_efficiency_sa>  (16) 
-0.304102

>  <r_i_glide_ligand_efficiency_ln>  (16) 
-0.667108

>  <r_i_glide_gscore>  (16) 
-2.93607

>  <r_i_glide_lipo>  (16) 
-0.419195

>  <r_i_glide_hbond>  (16) 
0

>  <r_i_glide_metal>  (16) 
-0

>  <r_i_glide_rewards>  (16) 
-0.514584

>  <r_i_glide_evdw>  (16) 
-20.5958

>  <r_i_glide_ecoul>  (16) 
-6.48336

>  <r_i_glide_erotb>  (16) 
0

>  <r_i_glide_esite>  (16) 
0

>  <r_i_glide_emodel>  (16) 
-31.8219

>  <r_i_glide_energy>  (16) 
-27.0792

>  <r_i_glide_einternal>  (16) 
1.44147

>  <r_i_glide_intrahb_reward>  (16) 
-0

>  <i_i_glide_confnum>  (16) 
1

>  <i_i_glide_posenum>  (16) 
1

>  <r_i_glide_eff_state_penalty>  (16) 
0

>  <ligand_id>  (16) 
4

>  <original_smiles>  (16) 
CC1=C2CC(O)C3C(C)(O)C(O)CCC3(C)C2CC(O)C2(C)C1C(O)C(O)C21CO1

>  <smiles>  (16) 
[H]OC1([H])C([H])(O[H])C2(OC2([H])[H])C2(C([H])([H])[H])C([H])(O[H])C([H])([H])C3([H])C(=C(C([H])([H])[H])C12[H])C([H])([H])C([H])(O[H])C1([H])C(O[H])(C([H])([H])[H])C([H])(O[H])C([H])([H])C([H])([H])C31C([H])([H])[H]

$$$$
5:0:0
     RDKit          3D

 62 70  0  0  1  0  0  0  0  0999 V2000
    1.7691   -7.6167    5.5361 C   0  0  0  0  0  0  0  0  0  0  0  0
    2.9747   -6.9729    5.1572 O   0  0  0  0  0  0  0  0  0  0  0  0
    2.7769   -5.9194    4.2056 C   0  0  2  0  0  0  0  0  0  0  0  0
    2.5191   -6.2670    2.7194 C   0  0  1  0  0  0  0  0  0  0  0  0
    2.4776   -5.0080    1.8484 C   0  0  2  0  0  0  0  0  0  0  0  0
    2.8949   -5.1450    0.1748 C   0  0  2  0  0  0  0  0  0  0  0  0
    4.2232   -5.9405    0.2734 C   0  0  2  0  0  0  0  0  0  0  0  0
    4.3315   -7.0956    1.2870 C   0  0  0  0  0  0  0  0  0  0  0  0
    3.9454   -6.7161    2.7231 C   0  0  1  0  0  0  0  0  0  0  0  0
    4.0304   -5.3076    3.4999 C   0  0  2  0  0  0  0  0  0  0  0  0
    5.1635   -5.1534    4.3541 O   0  0  0  0  0  0  0  0  0  0  0  0
    5.1286   -4.3890    5.4528 C   0  0  0  0  0  0  0  0  0  0  0  0
    6.4265   -4.4601    6.2411 C   0  0  0  0  0  0  0  0  0  0  0  0
    4.1794   -3.6937    5.8235 O   0  0  0  0  0  0  0  0  0  0  0  0
    3.4498   -4.0531    2.7746 C   0  0  1  0  0  0  0  0  0  0  0  0
    4.2758   -2.7886    2.1079 C   0  0  1  0  0  0  0  0  0  0  0  0
    3.4325   -1.4505    1.8224 C   0  0  1  0  0  0  0  0  0  0  0  0
    3.3492   -0.4846    2.8588 O   0  0  0  0  0  0  0  0  0  0  0  0
    4.1700   -1.0136    0.4483 C   0  0  1  0  0  0  0  0  0  0  0  0
    5.6037   -0.9937    1.1840 C   0  0  1  0  0  0  0  0  0  0  0  0
    5.7934   -0.6639    2.5687 O   0  0  0  0  0  0  0  0  0  0  0  0
    5.6332   -2.0869    2.3266 C   0  0  1  0  0  0  0  0  0  0  0  0
    3.9410   -2.1217   -0.9882 C   0  0  1  0  0  0  0  0  0  0  0  0
    3.4126   -1.3685   -2.0627 O   0  0  0  0  0  0  0  0  0  0  0  0
    5.3053   -2.5714   -1.3506 C   0  0  0  0  0  0  0  0  0  0  0  0
    5.6185   -3.0692   -0.0748 O   0  0  0  0  0  0  0  0  0  0  0  0
    4.5117   -3.4980    0.8075 C   0  0  2  0  0  0  0  0  0  0  0  0
    2.8954   -3.1992    0.2311 C   0  0  0  0  0  0  0  0  0  0  0  0
    3.0684   -3.7197   -0.9061 C   0  0  1  0  0  0  0  0  0  0  0  0
    5.2414   -4.9067    0.6467 C   0  0  1  0  0  0  0  0  0  0  0  0
    6.1604   -5.2129    1.7018 O   0  0  0  0  0  0  0  0  0  0  0  0
    7.5305   -4.8961    1.4738 C   0  0  0  0  0  0  0  0  0  0  0  0
    1.9774   -8.3635    6.3026 H   0  0  0  0  0  0  0  0  0  0  0  0
    1.3119   -8.1241    4.6859 H   0  0  0  0  0  0  0  0  0  0  0  0
    1.0503   -6.9068    5.9480 H   0  0  0  0  0  0  0  0  0  0  0  0
    2.0669   -5.1866    4.5964 H   0  0  0  0  0  0  0  0  0  0  0  0
    1.7858   -7.0472    2.5302 H   0  0  0  0  0  0  0  0  0  0  0  0
    1.4352   -4.6958    1.9524 H   0  0  0  0  0  0  0  0  0  0  0  0
    2.1606   -5.8073   -0.2913 H   0  0  0  0  0  0  0  0  0  0  0  0
    4.4368   -6.3524   -0.7174 H   0  0  0  0  0  0  0  0  0  0  0  0
    3.6715   -7.8984    0.9503 H   0  0  0  0  0  0  0  0  0  0  0  0
    5.3292   -7.5415    1.2576 H   0  0  0  0  0  0  0  0  0  0  0  0
    4.1573   -7.5845    3.3580 H   0  0  0  0  0  0  0  0  0  0  0  0
    7.2748   -4.1330    5.6423 H   0  0  0  0  0  0  0  0  0  0  0  0
    6.6116   -5.4871    6.5536 H   0  0  0  0  0  0  0  0  0  0  0  0
    6.3734   -3.8306    7.1266 H   0  0  0  0  0  0  0  0  0  0  0  0
    2.8005   -3.5264    3.4793 H   0  0  0  0  0  0  0  0  0  0  0  0
    2.3471   -1.5489    1.8208 H   0  0  0  0  0  0  0  0  0  0  0  0
    4.2412   -0.1978    3.0159 H   0  0  0  0  0  0  0  0  0  0  0  0
    3.9116    0.0119    0.1779 H   0  0  0  0  0  0  0  0  0  0  0  0
    6.4845   -0.8090    0.5697 H   0  0  0  0  0  0  0  0  0  0  0  0
    6.5207   -2.6823    2.4744 H   0  0  0  0  0  0  0  0  0  0  0  0
    2.5324   -1.0920   -1.8054 H   0  0  0  0  0  0  0  0  0  0  0  0
    5.2941   -3.3374   -2.1293 H   0  0  0  0  0  0  0  0  0  0  0  0
    5.9686   -1.7521   -1.6336 H   0  0  0  0  0  0  0  0  0  0  0  0
    1.9238   -3.2666    0.7165 H   0  0  0  0  0  0  0  0  0  0  0  0
    2.2388   -2.3119    0.0496 H   0  0  0  0  0  0  0  0  0  0  0  0
    2.1645   -3.6534   -1.5132 H   0  0  0  0  0  0  0  0  0  0  0  0
    5.8631   -5.0592   -0.2480 H   0  0  0  0  0  0  0  0  0  0  0  0
    8.0832   -5.0776    2.3982 H   0  0  0  0  0  0  0  0  0  0  0  0
    7.6844   -3.8534    1.1988 H   0  0  0  0  0  0  0  0  0  0  0  0
    7.9701   -5.5104    0.6875 H   0  0  0  0  0  0  0  0  0  0  0  0
  1  2  1  0
  1 33  1  0
  1 34  1  0
  1 35  1  0
  2  3  1  0
  3 10  1  0
  3  4  1  0
  3 36  1  1
  4  9  1  0
  4  5  1  0
  4 37  1  1
  5 15  1  0
  5  6  1  0
  5 38  1  6
  6 29  1  0
  6  7  1  0
  6 39  1  6
  7 30  1  0
  7  8  1  0
  7 40  1  6
  8  9  1  0
  8 41  1  0
  8 42  1  0
  9 10  1  0
  9 43  1  1
 10 11  1  1
 10 15  1  0
 11 12  1  0
 12 13  1  0
 12 14  2  0
 13 44  1  0
 13 45  1  0
 13 46  1  0
 15 16  1  0
 15 47  1  1
 16 22  1  0
 16 27  1  6
 16 17  1  0
 17 18  1  0
 17 19  1  0
 17 48  1  6
 18 49  1  0
 19 20  1  0
 19 23  1  0
 19 50  1  6
 20 22  1  0
 20 21  1  0
 20 51  1  6
 21 22  1  0
 22 52  1  6
 23 29  1  0
 23 24  1  6
 23 25  1  0
 24 53  1  0
 25 26  1  0
 25 54  1  0
 25 55  1  0
 27 26  1  6
 27 28  1  0
 27 30  1  0
 28 29  1  0
 28 56  1  0
 28 57  1  0
 29 58  1  6
 30 31  1  0
 30 59  1  6
 31 32  1  0
 32 60  1  0
 32 61  1  0
 32 62  1  0
M  END
>  <i_m_ct_stereo_status>  (17) 
1

>  <s_m_source_file>  (17) 
/var/tmp/pbs.5076255.sched01/tmp8nmo4hef/06hb_edth.sdf

>  <i_m_source_file_index>  (17) 
8

>  <i_lp_mmshare_version>  (17) 
48012

>  <i_f3d_flags>  (17) 
0

>  <s_epik_input>  (17) 
W0NIM11PW0NASF0xW0NASF0yW0NIMl1bQ0BASF0oW0NAQF0oW0NASF0zNCkoW0NAQEhdNU9bQ0gzXSlPQyg9TylbQ0gzXSlbQ0BASF01W0NAQEhdM1tDQEhdMltDSF0oW0NIMl02KVtDQEBdKFtPSF0pKFtDQEBIXShbQ0BASF03W09IXSlbQ0BASF04W0NASF05TzgpW0NIMl1PW0NAXTE2W0NAXTQ3OQ==

>  <s_epik_cmdline>  (17) 
J2VwaWtfcHl0aG9uJywgJy1waHQnLCAnMi4wJywgJy1waCcsICc3LjAnLCAnLXRuJywgJzgnLCAnLW1hJywgJzIwMCcsICctaW1hZScsICc8aW5maWxlLm1hZT4nLCAnLW9tYWUnLCAnPG91dGZpbGUubWFlPic=

>  <r_lp_tautomer_probability>  (17) 
1

>  <r_epik_Ionization_Penalty>  (17) 
8.13204e-08

>  <r_epik_Ionization_Penalty_Charging>  (17) 
0

>  <r_epik_Ionization_Penalty_Neutral>  (17) 
8.13204e-08

>  <r_epik_State_Penalty>  (17) 
-0

>  <r_epik_Charging_Adjusted_Penalty>  (17) 
0

>  <i_epik_Tot_Q>  (17) 
0

>  <i_epik_Tot_abs_Q>  (17) 
0

>  <s_epik_Chemistry_Notes>  (17) 
This compound has an ester and may undergo hydrolysis at high or low pH.

>  <s_lp_Force_Field>  (17) 
OPLS3e

>  <r_lp_Energy>  (17) 
587.205

>  <b_lp_Chiralities_Consistent>  (17) 
1

>  <s_lp_Variant>  (17) 
5:0-1

>  <s_i_glide_gridfile>  (17) 
pfpi4k_grid

>  <i_i_glide_lignum>  (17) 
8

>  <i_i_glide_rotatable_bonds>  (17) 
6

>  <r_i_docking_score>  (17) 
-2.90626

>  <r_i_glide_ligand_efficiency>  (17) 
-0.0908208

>  <r_i_glide_ligand_efficiency_sa>  (17) 
-0.288338

>  <r_i_glide_ligand_efficiency_ln>  (17) 
-0.650792

>  <r_i_glide_gscore>  (17) 
-2.90626

>  <r_i_glide_lipo>  (17) 
-0.583937

>  <r_i_glide_hbond>  (17) 
0

>  <r_i_glide_metal>  (17) 
-0

>  <r_i_glide_rewards>  (17) 
-0.864997

>  <r_i_glide_evdw>  (17) 
-21.2657

>  <r_i_glide_ecoul>  (17) 
-3.29635

>  <r_i_glide_erotb>  (17) 
0.100409

>  <r_i_glide_esite>  (17) 
0

>  <r_i_glide_emodel>  (17) 
-34.4606

>  <r_i_glide_energy>  (17) 
-24.5621

>  <r_i_glide_einternal>  (17) 
1.30587

>  <r_i_glide_intrahb_reward>  (17) 
-0.5

>  <i_i_glide_confnum>  (17) 
4

>  <i_i_glide_posenum>  (17) 
19

>  <r_i_glide_eff_state_penalty>  (17) 
0

>  <ligand_id>  (17) 
5

>  <original_smiles>  (17) 
COC1C2C3C4C5CC2C1(OC(C)=O)C3C12C(O)C(C3OC31)C1(O)COC2(CC41)C5OC

>  <smiles>  (17) 
[H]OC1([H])C2([H])C3([H])OC3([H])C13C1([H])C4([H])C5([H])C([H])(OC([H])([H])[H])C1(OC(=O)C([H])([H])[H])C5([H])C([H])([H])C1([H])C([H])(OC([H])([H])[H])C35OC([H])([H])C2(O[H])C([H])(C5([H])[H])C14[H]

$$$$
5:0:1
     RDKit          3D

 62 70  0  0  1  0  0  0  0  0999 V2000
   -0.2186   -7.8315    2.9363 C   0  0  0  0  0  0  0  0  0  0  0  0
    0.7512   -6.9557    3.4959 O   0  0  0  0  0  0  0  0  0  0  0  0
    1.3608   -6.0842    2.5176 C   0  0  2  0  0  0  0  0  0  0  0  0
    2.3570   -6.6517    1.4853 C   0  0  1  0  0  0  0  0  0  0  0  0
    2.9962   -5.5547    0.6294 C   0  0  2  0  0  0  0  0  0  0  0  0
    4.5755   -5.8203   -0.0281 C   0  0  2  0  0  0  0  0  0  0  0  0
    5.3292   -6.3537    1.2134 C   0  0  2  0  0  0  0  0  0  0  0  0
    4.5941   -7.3588    2.1331 C   0  0  0  0  0  0  0  0  0  0  0  0
    3.2459   -6.8316    2.6662 C   0  0  1  0  0  0  0  0  0  0  0  0
    2.6806   -5.3415    2.8851 C   0  0  2  0  0  0  0  0  0  0  0  0
    2.7304   -4.8229    4.2130 O   0  0  0  0  0  0  0  0  0  0  0  0
    1.8260   -3.9370    4.6743 C   0  0  0  0  0  0  0  0  0  0  0  0
    2.1802   -3.4308    6.0674 C   0  0  0  0  0  0  0  0  0  0  0  0
    0.8271   -3.5327    4.0771 O   0  0  0  0  0  0  0  0  0  0  0  0
    2.8558   -4.3287    1.7182 C   0  0  1  0  0  0  0  0  0  0  0  0
    3.8704   -3.0290    1.6628 C   0  0  1  0  0  0  0  0  0  0  0  0
    3.5280   -1.9238    0.5538 C   0  0  1  0  0  0  0  0  0  0  0  0
    2.6245   -0.8954    0.9257 O   0  0  0  0  0  0  0  0  0  0  0  0
    5.0478   -1.5197    0.1751 C   0  0  1  0  0  0  0  0  0  0  0  0
    5.3853   -1.1374    1.7010 C   0  0  1  0  0  0  0  0  0  0  0  0
    4.4286   -0.6289    2.6461 O   0  0  0  0  0  0  0  0  0  0  0  0
    4.5529   -2.0793    2.6762 C   0  0  1  0  0  0  0  0  0  0  0  0
    6.0656   -2.8141   -0.6166 C   0  0  1  0  0  0  0  0  0  0  0  0
    6.5932   -2.2918   -1.8346 O   0  0  0  0  0  0  0  0  0  0  0  0
    7.2013   -3.0322    0.2891 C   0  0  0  0  0  0  0  0  0  0  0  0
    6.4024   -3.3202    1.4149 O   0  0  0  0  0  0  0  0  0  0  0  0
    5.0411   -3.8441    1.2082 C   0  0  2  0  0  0  0  0  0  0  0  0
    4.4803   -3.9118   -0.4425 C   0  0  0  0  0  0  0  0  0  0  0  0
    5.4864   -4.5226   -0.8853 C   0  0  1  0  0  0  0  0  0  0  0  0
    5.6404   -5.1095    1.9967 C   0  0  1  0  0  0  0  0  0  0  0  0
    5.4209   -5.0769    3.4147 O   0  0  0  0  0  0  0  0  0  0  0  0
    6.3773   -5.7093    4.2861 C   0  0  0  0  0  0  0  0  0  0  0  0
   -0.6748   -8.4141    3.7322 H   0  0  0  0  0  0  0  0  0  0  0  0
    0.2392   -8.5226    2.2296 H   0  0  0  0  0  0  0  0  0  0  0  0
   -1.0084   -7.2815    2.4238 H   0  0  0  0  0  0  0  0  0  0  0  0
    0.5965   -5.4602    2.0562 H   0  0  0  0  0  0  0  0  0  0  0  0
    2.0674   -7.5793    1.0052 H   0  0  0  0  0  0  0  0  0  0  0  0
    2.2681   -5.4424   -0.1844 H   0  0  0  0  0  0  0  0  0  0  0  0
    4.5015   -6.6528   -0.7250 H   0  0  0  0  0  0  0  0  0  0  0  0
    6.2568   -6.8202    0.8790 H   0  0  0  0  0  0  0  0  0  0  0  0
    4.3931   -8.2536    1.5219 H   0  0  0  0  0  0  0  0  0  0  0  0
    5.1975   -7.7536    2.9203 H   0  0  0  0  0  0  0  0  0  0  0  0
    2.9007   -7.5418    3.4223 H   0  0  0  0  0  0  0  0  0  0  0  0
    3.1632   -2.9608    6.0569 H   0  0  0  0  0  0  0  0  0  0  0  0
    2.1978   -4.2525    6.7822 H   0  0  0  0  0  0  0  0  0  0  0  0
    1.4542   -2.6929    6.4039 H   0  0  0  0  0  0  0  0  0  0  0  0
    1.8946   -3.8483    1.5434 H   0  0  0  0  0  0  0  0  0  0  0  0
    2.8687   -2.2227   -0.2532 H   0  0  0  0  0  0  0  0  0  0  0  0
    1.9493   -0.8188    0.2449 H   0  0  0  0  0  0  0  0  0  0  0  0
    5.0714   -0.6120   -0.4289 H   0  0  0  0  0  0  0  0  0  0  0  0
    6.4008   -0.8503    1.9306 H   0  0  0  0  0  0  0  0  0  0  0  0
    5.0362   -2.4855    3.5533 H   0  0  0  0  0  0  0  0  0  0  0  0
    7.1085   -2.9584   -2.2551 H   0  0  0  0  0  0  0  0  0  0  0  0
    7.8290   -3.8739   -0.0133 H   0  0  0  0  0  0  0  0  0  0  0  0
    7.8173   -2.1405    0.4421 H   0  0  0  0  0  0  0  0  0  0  0  0
    3.5032   -4.1181   -0.8862 H   0  0  0  0  0  0  0  0  0  0  0  0
    4.2123   -3.1878   -1.2619 H   0  0  0  0  0  0  0  0  0  0  0  0
    5.3899   -4.6928   -1.9449 H   0  0  0  0  0  0  0  0  0  0  0  0
    6.7372   -5.2031    1.9468 H   0  0  0  0  0  0  0  0  0  0  0  0
    6.1001   -5.4635    5.3200 H   0  0  0  0  0  0  0  0  0  0  0  0
    7.3978   -5.3453    4.1310 H   0  0  0  0  0  0  0  0  0  0  0  0
    6.4358   -6.7808    4.2432 H   0  0  0  0  0  0  0  0  0  0  0  0
  1  2  1  0
  1 33  1  0
  1 34  1  0
  1 35  1  0
  2  3  1  0
  3 10  1  0
  3  4  1  0
  3 36  1  6
  4  9  1  0
  4  5  1  0
  4 37  1  6
  5 15  1  0
  5  6  1  0
  5 38  1  6
  6 29  1  0
  6  7  1  0
  6 39  1  6
  7 30  1  0
  7  8  1  0
  7 40  1  6
  8  9  1  0
  8 41  1  0
  8 42  1  0
  9 10  1  0
  9 43  1  1
 10 11  1  1
 10 15  1  0
 11 12  1  0
 12 13  1  0
 12 14  2  0
 13 44  1  0
 13 45  1  0
 13 46  1  0
 15 16  1  0
 15 47  1  6
 16 22  1  0
 16 27  1  6
 16 17  1  0
 17 18  1  0
 17 19  1  0
 17 48  1  6
 18 49  1  0
 19 20  1  0
 19 23  1  0
 19 50  1  6
 20 22  1  0
 20 21  1  0
 20 51  1  1
 21 22  1  0
 22 52  1  1
 23 29  1  0
 23 24  1  6
 23 25  1  0
 24 53  1  0
 25 26  1  0
 25 54  1  0
 25 55  1  0
 27 26  1  6
 27 28  1  0
 27 30  1  0
 28 29  1  0
 28 56  1  0
 28 57  1  0
 29 58  1  6
 30 31  1  0
 30 59  1  1
 31 32  1  0
 32 60  1  0
 32 61  1  0
 32 62  1  0
M  END
>  <i_m_ct_stereo_status>  (18) 
1

>  <s_m_source_file>  (18) 
/var/tmp/pbs.5076255.sched01/tmp8nmo4hef/06hb_edth.sdf

>  <i_m_source_file_index>  (18) 
8

>  <i_lp_mmshare_version>  (18) 
48012

>  <i_f3d_flags>  (18) 
0

>  <s_epik_input>  (18) 
W0NIM11PW0NASF0xW0NASF0yW0NIMl1bQ0BASF0oW0NAQF0oW0NASF0zNCkoW0NAQEhdNU9bQ0gzXSlPQyg9TylbQ0gzXSlbQ0BASF01W0NAQEhdM1tDQEhdMltDSF0oW0NIMl02KVtDQEBdKFtPSF0pKFtDQEBIXShbQ0BASF03W09IXSlbQ0BASF04W0NASF05TzgpW0NIMl1PW0NAXTE2W0NAXTQ3OQ==

>  <s_epik_cmdline>  (18) 
J2VwaWtfcHl0aG9uJywgJy1waHQnLCAnMi4wJywgJy1waCcsICc3LjAnLCAnLXRuJywgJzgnLCAnLW1hJywgJzIwMCcsICctaW1hZScsICc8aW5maWxlLm1hZT4nLCAnLW9tYWUnLCAnPG91dGZpbGUubWFlPic=

>  <r_lp_tautomer_probability>  (18) 
1

>  <r_epik_Ionization_Penalty>  (18) 
8.13204e-08

>  <r_epik_Ionization_Penalty_Charging>  (18) 
0

>  <r_epik_Ionization_Penalty_Neutral>  (18) 
8.13204e-08

>  <r_epik_State_Penalty>  (18) 
-0

>  <r_epik_Charging_Adjusted_Penalty>  (18) 
0

>  <i_epik_Tot_Q>  (18) 
0

>  <i_epik_Tot_abs_Q>  (18) 
0

>  <s_epik_Chemistry_Notes>  (18) 
This compound has an ester and may undergo hydrolysis at high or low pH.

>  <s_lp_Force_Field>  (18) 
OPLS3e

>  <r_lp_Energy>  (18) 
587.205

>  <b_lp_Chiralities_Consistent>  (18) 
1

>  <s_lp_Variant>  (18) 
5:0-1

>  <s_i_glide_gridfile>  (18) 
pfpi4k_grid

>  <i_i_glide_lignum>  (18) 
8

>  <i_i_glide_rotatable_bonds>  (18) 
6

>  <r_i_docking_score>  (18) 
-2.73068

>  <r_i_glide_ligand_efficiency>  (18) 
-0.0853336

>  <r_i_glide_ligand_efficiency_sa>  (18) 
-0.270917

>  <r_i_glide_ligand_efficiency_ln>  (18) 
-0.611473

>  <r_i_glide_gscore>  (18) 
-2.73068

>  <r_i_glide_lipo>  (18) 
-0.518468

>  <r_i_glide_hbond>  (18) 
0

>  <r_i_glide_metal>  (18) 
-0

>  <r_i_glide_rewards>  (18) 
-0.368742

>  <r_i_glide_evdw>  (18) 
-20.3481

>  <r_i_glide_ecoul>  (18) 
-6.17647

>  <r_i_glide_erotb>  (18) 
0.100409

>  <r_i_glide_esite>  (18) 
0

>  <r_i_glide_emodel>  (18) 
-29.1212

>  <r_i_glide_energy>  (18) 
-26.5245

>  <r_i_glide_einternal>  (18) 
3.99231

>  <r_i_glide_intrahb_reward>  (18) 
-0

>  <i_i_glide_confnum>  (18) 
2

>  <i_i_glide_posenum>  (18) 
4

>  <r_i_glide_eff_state_penalty>  (18) 
0

>  <ligand_id>  (18) 
5

>  <original_smiles>  (18) 
COC1C2C3C4C5CC2C1(OC(C)=O)C3C12C(O)C(C3OC31)C1(O)COC2(CC41)C5OC

>  <smiles>  (18) 
[H]OC1([H])C2([H])C3([H])OC3([H])C13C1([H])C4([H])C5([H])C([H])(OC([H])([H])[H])C1(OC(=O)C([H])([H])[H])C5([H])C([H])([H])C1([H])C([H])(OC([H])([H])[H])C35OC([H])([H])C2(O[H])C([H])(C5([H])[H])C14[H]

$$$$
5:0:2
     RDKit          3D

 62 70  0  0  1  0  0  0  0  0999 V2000
    0.8533   -3.8833    5.7621 C   0  0  0  0  0  0  0  0  0  0  0  0
    2.1581   -4.1136    5.2673 O   0  0  0  0  0  0  0  0  0  0  0  0
    2.3939   -3.4941    3.9952 C   0  0  2  0  0  0  0  0  0  0  0  0
    1.8341   -4.1477    2.7138 C   0  0  1  0  0  0  0  0  0  0  0  0
    2.3173   -3.4156    1.4587 C   0  0  2  0  0  0  0  0  0  0  0  0
    2.4091   -4.2996   -0.0328 C   0  0  2  0  0  0  0  0  0  0  0  0
    3.1836   -5.5520    0.4493 C   0  0  2  0  0  0  0  0  0  0  0  0
    2.8265   -6.1938    1.8011 C   0  0  0  0  0  0  0  0  0  0  0  0
    2.8435   -5.2152    2.9806 C   0  0  1  0  0  0  0  0  0  0  0  0
    3.6938   -3.8759    3.2204 C   0  0  2  0  0  0  0  0  0  0  0  0
    4.8209   -4.0514    4.0732 O   0  0  0  0  0  0  0  0  0  0  0  0
    5.2181   -3.1065    4.9332 C   0  0  0  0  0  0  0  0  0  0  0  0
    6.2128   -3.6602    5.9414 C   0  0  0  0  0  0  0  0  0  0  0  0
    4.8423   -1.9346    4.9577 O   0  0  0  0  0  0  0  0  0  0  0  0
    3.7357   -2.8348    2.0596 C   0  0  1  0  0  0  0  0  0  0  0  0
    4.9892   -2.4801    1.0542 C   0  0  1  0  0  0  0  0  0  0  0  0
    4.8887   -1.0923    0.2568 C   0  0  1  0  0  0  0  0  0  0  0  0
    5.3868    0.0545    0.8826 O   0  0  0  0  0  0  0  0  0  0  0  0
    5.5704   -1.5551   -1.1262 C   0  0  1  0  0  0  0  0  0  0  0  0
    6.9092   -2.0270   -0.3520 C   0  0  1  0  0  0  0  0  0  0  0  0
    7.4128   -1.4334    0.8412 O   0  0  0  0  0  0  0  0  0  0  0  0
    6.5357   -2.5528    1.0939 C   0  0  1  0  0  0  0  0  0  0  0  0
    4.6591   -2.7925   -2.1029 C   0  0  1  0  0  0  0  0  0  0  0  0
    4.4613   -2.2999   -3.4127 O   0  0  0  0  0  0  0  0  0  0  0  0
    5.5674   -3.9462   -2.1845 C   0  0  0  0  0  0  0  0  0  0  0  0
    5.7418   -4.0960   -0.8009 O   0  0  0  0  0  0  0  0  0  0  0  0
    4.6888   -3.5865    0.0999 C   0  0  2  0  0  0  0  0  0  0  0  0
    3.3738   -2.7359   -0.6631 C   0  0  0  0  0  0  0  0  0  0  0  0
    3.1328   -3.6132   -1.5253 C   0  0  1  0  0  0  0  0  0  0  0  0
    4.6104   -5.1220    0.4933 C   0  0  1  0  0  0  0  0  0  0  0  0
    5.4014   -5.4324    1.6509 O   0  0  0  0  0  0  0  0  0  0  0  0
    6.2534   -6.5711    1.5501 C   0  0  0  0  0  0  0  0  0  0  0  0
    0.7634   -4.3244    6.7552 H   0  0  0  0  0  0  0  0  0  0  0  0
    0.1055   -4.3439    5.1166 H   0  0  0  0  0  0  0  0  0  0  0  0
    0.6373   -2.8175    5.8477 H   0  0  0  0  0  0  0  0  0  0  0  0
    2.1872   -2.4235    4.0468 H   0  0  0  0  0  0  0  0  0  0  0  0
    0.8011   -4.4729    2.7753 H   0  0  0  0  0  0  0  0  0  0  0  0
    1.6023   -2.5924    1.3717 H   0  0  0  0  0  0  0  0  0  0  0  0
    1.4153   -4.6478   -0.3138 H   0  0  0  0  0  0  0  0  0  0  0  0
    3.0512   -6.3004   -0.3211 H   0  0  0  0  0  0  0  0  0  0  0  0
    1.8261   -6.6195    1.7154 H   0  0  0  0  0  0  0  0  0  0  0  0
    3.4606   -7.0577    2.0037 H   0  0  0  0  0  0  0  0  0  0  0  0
    2.6836   -5.8004    3.8934 H   0  0  0  0  0  0  0  0  0  0  0  0
    7.0907   -4.0701    5.4461 H   0  0  0  0  0  0  0  0  0  0  0  0
    5.7442   -4.4727    6.4938 H   0  0  0  0  0  0  0  0  0  0  0  0
    6.5269   -2.8918    6.6461 H   0  0  0  0  0  0  0  0  0  0  0  0
    3.5188   -1.8497    2.4817 H   0  0  0  0  0  0  0  0  0  0  0  0
    3.9055   -0.6202    0.2029 H   0  0  0  0  0  0  0  0  0  0  0  0
    5.3657    0.7838    0.2559 H   0  0  0  0  0  0  0  0  0  0  0  0
    5.8029   -0.6967   -1.7527 H   0  0  0  0  0  0  0  0  0  0  0  0
    7.6837   -2.5161   -0.9452 H   0  0  0  0  0  0  0  0  0  0  0  0
    7.0112   -3.4505    1.4859 H   0  0  0  0  0  0  0  0  0  0  0  0
    3.7973   -1.6244   -3.3728 H   0  0  0  0  0  0  0  0  0  0  0  0
    5.0745   -4.8051   -2.6443 H   0  0  0  0  0  0  0  0  0  0  0  0
    6.5117   -3.7230   -2.6885 H   0  0  0  0  0  0  0  0  0  0  0  0
    2.5822   -2.1331   -0.2417 H   0  0  0  0  0  0  0  0  0  0  0  0
    3.2072   -1.7633   -1.1951 H   0  0  0  0  0  0  0  0  0  0  0  0
    2.3090   -3.3190   -2.1805 H   0  0  0  0  0  0  0  0  0  0  0  0
    4.9577   -5.8474   -0.2600 H   0  0  0  0  0  0  0  0  0  0  0  0
    6.8399   -6.6690    2.4652 H   0  0  0  0  0  0  0  0  0  0  0  0
    6.9565   -6.4649    0.7223 H   0  0  0  0  0  0  0  0  0  0  0  0
    5.6953   -7.5009    1.4181 H   0  0  0  0  0  0  0  0  0  0  0  0
  1  2  1  0
  1 33  1  0
  1 34  1  0
  1 35  1  0
  2  3  1  0
  3 10  1  0
  3  4  1  0
  3 36  1  1
  4  9  1  0
  4  5  1  0
  4 37  1  1
  5 15  1  0
  5  6  1  0
  5 38  1  6
  6 29  1  0
  6  7  1  0
  6 39  1  6
  7 30  1  0
  7  8  1  0
  7 40  1  6
  8  9  1  0
  8 41  1  0
  8 42  1  0
  9 10  1  0
  9 43  1  1
 10 11  1  1
 10 15  1  0
 11 12  1  0
 12 13  1  0
 12 14  2  0
 13 44  1  0
 13 45  1  0
 13 46  1  0
 15 16  1  0
 15 47  1  1
 16 22  1  0
 16 27  1  6
 16 17  1  0
 17 18  1  0
 17 19  1  0
 17 48  1  6
 18 49  1  0
 19 20  1  0
 19 23  1  0
 19 50  1  6
 20 22  1  0
 20 21  1  0
 20 51  1  6
 21 22  1  0
 22 52  1  6
 23 29  1  0
 23 24  1  6
 23 25  1  0
 24 53  1  0
 25 26  1  0
 25 54  1  0
 25 55  1  0
 27 26  1  6
 27 28  1  0
 27 30  1  0
 28 29  1  0
 28 56  1  0
 28 57  1  0
 29 58  1  6
 30 31  1  0
 30 59  1  6
 31 32  1  0
 32 60  1  0
 32 61  1  0
 32 62  1  0
M  END
>  <i_m_ct_stereo_status>  (19) 
1

>  <s_m_source_file>  (19) 
/var/tmp/pbs.5076255.sched01/tmp8nmo4hef/06hb_edth.sdf

>  <i_m_source_file_index>  (19) 
8

>  <i_lp_mmshare_version>  (19) 
48012

>  <i_f3d_flags>  (19) 
0

>  <s_epik_input>  (19) 
W0NIM11PW0NASF0xW0NASF0yW0NIMl1bQ0BASF0oW0NAQF0oW0NASF0zNCkoW0NAQEhdNU9bQ0gzXSlPQyg9TylbQ0gzXSlbQ0BASF01W0NAQEhdM1tDQEhdMltDSF0oW0NIMl02KVtDQEBdKFtPSF0pKFtDQEBIXShbQ0BASF03W09IXSlbQ0BASF04W0NASF05TzgpW0NIMl1PW0NAXTE2W0NAXTQ3OQ==

>  <s_epik_cmdline>  (19) 
J2VwaWtfcHl0aG9uJywgJy1waHQnLCAnMi4wJywgJy1waCcsICc3LjAnLCAnLXRuJywgJzgnLCAnLW1hJywgJzIwMCcsICctaW1hZScsICc8aW5maWxlLm1hZT4nLCAnLW9tYWUnLCAnPG91dGZpbGUubWFlPic=

>  <r_lp_tautomer_probability>  (19) 
1

>  <r_epik_Ionization_Penalty>  (19) 
8.13204e-08

>  <r_epik_Ionization_Penalty_Charging>  (19) 
0

>  <r_epik_Ionization_Penalty_Neutral>  (19) 
8.13204e-08

>  <r_epik_State_Penalty>  (19) 
-0

>  <r_epik_Charging_Adjusted_Penalty>  (19) 
0

>  <i_epik_Tot_Q>  (19) 
0

>  <i_epik_Tot_abs_Q>  (19) 
0

>  <s_epik_Chemistry_Notes>  (19) 
This compound has an ester and may undergo hydrolysis at high or low pH.

>  <s_lp_Force_Field>  (19) 
OPLS3e

>  <r_lp_Energy>  (19) 
587.205

>  <b_lp_Chiralities_Consistent>  (19) 
1

>  <s_lp_Variant>  (19) 
5:0-1

>  <s_i_glide_gridfile>  (19) 
pfpi4k_grid

>  <i_i_glide_lignum>  (19) 
8

>  <i_i_glide_rotatable_bonds>  (19) 
6

>  <r_i_docking_score>  (19) 
-2.72286

>  <r_i_glide_ligand_efficiency>  (19) 
-0.0850893

>  <r_i_glide_ligand_efficiency_sa>  (19) 
-0.270142

>  <r_i_glide_ligand_efficiency_ln>  (19) 
-0.609722

>  <r_i_glide_gscore>  (19) 
-2.72286

>  <r_i_glide_lipo>  (19) 
-0.492446

>  <r_i_glide_hbond>  (19) 
0

>  <r_i_glide_metal>  (19) 
-0

>  <r_i_glide_rewards>  (19) 
-0.399963

>  <r_i_glide_evdw>  (19) 
-20.7346

>  <r_i_glide_ecoul>  (19) 
-5.96084

>  <r_i_glide_erotb>  (19) 
0.100409

>  <r_i_glide_esite>  (19) 
0

>  <r_i_glide_emodel>  (19) 
-29.4486

>  <r_i_glide_energy>  (19) 
-26.6955

>  <r_i_glide_einternal>  (19) 
4.83316

>  <r_i_glide_intrahb_reward>  (19) 
-0

>  <i_i_glide_confnum>  (19) 
2

>  <i_i_glide_posenum>  (19) 
2

>  <r_i_glide_eff_state_penalty>  (19) 
0

>  <ligand_id>  (19) 
5

>  <original_smiles>  (19) 
COC1C2C3C4C5CC2C1(OC(C)=O)C3C12C(O)C(C3OC31)C1(O)COC2(CC41)C5OC

>  <smiles>  (19) 
[H]OC1([H])C2([H])C3([H])OC3([H])C13C1([H])C4([H])C5([H])C([H])(OC([H])([H])[H])C1(OC(=O)C([H])([H])[H])C5([H])C([H])([H])C1([H])C([H])(OC([H])([H])[H])C35OC([H])([H])C2(O[H])C([H])(C5([H])[H])C14[H]

$$$$
6:0:0
     RDKit          3D

 20 22  0  0  1  0  0  0  0  0999 V2000
    4.4887   -5.9317    0.8495 C   0  0  0  0  0  0  0  0  0  0  0  0
    3.2102   -5.6289    0.4693 C   0  0  0  0  0  0  0  0  0  0  0  0
    2.3622   -6.3056    1.3275 N   0  0  0  0  0  0  0  0  0  0  0  0
    0.9985   -6.2744    1.2894 N   0  0  0  0  0  0  0  0  0  0  0  0
    0.4584   -7.0518    2.2312 C   0  0  0  0  0  0  0  0  0  0  0  0
    1.1672   -7.8149    3.2087 C   0  0  0  0  0  0  0  0  0  0  0  0
    2.5383   -7.7976    3.1967 C   0  0  0  0  0  0  0  0  0  0  0  0
    3.2006   -7.0172    2.2187 C   0  0  0  0  0  0  0  0  0  0  0  0
    4.4843   -6.7853    1.9440 N   0  0  0  0  0  0  0  0  0  0  0  0
    0.5239   -8.5562    4.1676 O   0  0  0  0  0  0  0  0  0  0  0  0
   -0.8474   -8.2336    4.3455 C   0  0  0  0  0  0  0  0  0  0  0  0
   -1.5330   -8.0811    2.9772 C   0  0  0  0  0  0  0  0  0  0  0  0
   -0.9202   -7.0353    2.2284 O   0  0  0  0  0  0  0  0  0  0  0  0
    5.4235   -5.6127    0.4158 H   0  0  0  0  0  0  0  0  0  0  0  0
    2.8161   -5.0323   -0.3438 H   0  0  0  0  0  0  0  0  0  0  0  0
    3.1119   -8.3498    3.9316 H   0  0  0  0  0  0  0  0  0  0  0  0
   -1.3138   -9.0370    4.9150 H   0  0  0  0  0  0  0  0  0  0  0  0
   -0.9347   -7.3221    4.9430 H   0  0  0  0  0  0  0  0  0  0  0  0
   -1.5074   -9.0138    2.4100 H   0  0  0  0  0  0  0  0  0  0  0  0
   -2.5804   -7.8283    3.1326 H   0  0  0  0  0  0  0  0  0  0  0  0
  1  9  1  0
  1  2  2  0
  1 14  1  0
  2  3  1  0
  2 15  1  0
  3  8  1  0
  3  4  1  0
  4  5  2  0
  5 13  1  0
  5  6  1  0
  6  7  2  0
  6 10  1  0
  7  8  1  0
  7 16  1  0
  8  9  2  0
 10 11  1  0
 11 12  1  0
 11 17  1  0
 11 18  1  0
 12 13  1  0
 12 19  1  0
 12 20  1  0
M  END
>  <i_m_ct_stereo_status>  (20) 
1

>  <s_m_source_file>  (20) 
/var/tmp/pbs.5076255.sched01/tmp8nmo4hef/06hb_edth.sdf

>  <i_m_source_file_index>  (20) 
9

>  <i_lp_mmshare_version>  (20) 
48012

>  <i_f3d_flags>  (20) 
0

>  <s_epik_input>  (20) 
W2NIXTFbY0hdbmMobjEyKVtjSF1jM2MobjIpT1tDSDJdW0NIMl1PMw==

>  <s_epik_cmdline>  (20) 
J2VwaWtfcHl0aG9uJywgJy1waHQnLCAnMi4wJywgJy1waCcsICc3LjAnLCAnLXRuJywgJzgnLCAnLW1hJywgJzIwMCcsICctaW1hZScsICc8aW5maWxlLm1hZT4nLCAnLW9tYWUnLCAnPG91dGZpbGUubWFlPic=

>  <r_lp_tautomer_probability>  (20) 
1

>  <r_epik_Ionization_Penalty>  (20) 
0.00179849

>  <r_epik_Ionization_Penalty_Charging>  (20) 
0

>  <r_epik_Ionization_Penalty_Neutral>  (20) 
0.00179849

>  <r_epik_State_Penalty>  (20) 
0.00121973

>  <r_epik_Charging_Adjusted_Penalty>  (20) 
0.00121973

>  <i_epik_Tot_Q>  (20) 
0

>  <i_epik_Tot_abs_Q>  (20) 
0

>  <s_lp_Force_Field>  (20) 
OPLS3e

>  <r_lp_Energy>  (20) 
17.8543

>  <b_lp_Chiralities_Consistent>  (20) 
1

>  <s_lp_Variant>  (20) 
6:0-1

>  <s_i_glide_gridfile>  (20) 
pfpi4k_grid

>  <i_i_glide_lignum>  (20) 
9

>  <i_i_glide_rotatable_bonds>  (20) 
0

>  <r_i_docking_score>  (20) 
-4.03114

>  <r_i_glide_ligand_efficiency>  (20) 
-0.310087

>  <r_i_glide_ligand_efficiency_sa>  (20) 
-0.729119

>  <r_i_glide_ligand_efficiency_ln>  (20) 
-1.13077

>  <r_i_glide_gscore>  (20) 
-4.03114

>  <r_i_glide_lipo>  (20) 
-0.0881754

>  <r_i_glide_hbond>  (20) 
-0.32

>  <r_i_glide_metal>  (20) 
-0

>  <r_i_glide_rewards>  (20) 
-2.21609

>  <r_i_glide_evdw>  (20) 
-16.1029

>  <r_i_glide_ecoul>  (20) 
-3.90501

>  <r_i_glide_erotb>  (20) 
0

>  <r_i_glide_esite>  (20) 
-0.0159777

>  <r_i_glide_emodel>  (20) 
-25.4253

>  <r_i_glide_energy>  (20) 
-20.0079

>  <r_i_glide_einternal>  (20) 
0

>  <r_i_glide_intrahb_reward>  (20) 
-0

>  <i_i_glide_confnum>  (20) 
1

>  <i_i_glide_posenum>  (20) 
2

>  <r_i_glide_eff_state_penalty>  (20) 
0

>  <ligand_id>  (20) 
6

>  <original_smiles>  (20) 
c1cn2nc3c(cc2n1)OCCO3

>  <smiles>  (20) 
[H]c1nc2c([H])c3c(nn2c1[H])OC([H])([H])C([H])([H])O3

$$$$
6:0:1
     RDKit          3D

 20 22  0  0  1  0  0  0  0  0999 V2000
    3.8709   -4.7508    1.2527 C   0  0  0  0  0  0  0  0  0  0  0  0
    2.8554   -5.2453    0.4817 C   0  0  0  0  0  0  0  0  0  0  0  0
    1.9884   -5.9052    1.3380 N   0  0  0  0  0  0  0  0  0  0  0  0
    0.8234   -6.5179    0.9789 N   0  0  0  0  0  0  0  0  0  0  0  0
    0.2215   -7.0991    2.0189 C   0  0  0  0  0  0  0  0  0  0  0  0
    0.6598   -7.0576    3.3793 C   0  0  0  0  0  0  0  0  0  0  0  0
    1.8245   -6.3983    3.6795 C   0  0  0  0  0  0  0  0  0  0  0  0
    2.5490   -5.7839    2.6326 C   0  0  0  0  0  0  0  0  0  0  0  0
    3.6748   -5.0737    2.5893 N   0  0  0  0  0  0  0  0  0  0  0  0
   -0.0546   -7.6397    4.3959 O   0  0  0  0  0  0  0  0  0  0  0  0
   -1.3944   -7.9732    4.0653 C   0  0  0  0  0  0  0  0  0  0  0  0
   -1.4509   -8.6339    2.6769 C   0  0  0  0  0  0  0  0  0  0  0  0
   -0.9531   -7.7353    1.6896 O   0  0  0  0  0  0  0  0  0  0  0  0
    4.7377   -4.1779    0.9588 H   0  0  0  0  0  0  0  0  0  0  0  0
    2.6593   -5.2015   -0.5818 H   0  0  0  0  0  0  0  0  0  0  0  0
    2.1768   -6.3265    4.7019 H   0  0  0  0  0  0  0  0  0  0  0  0
   -1.7738   -8.6564    4.8275 H   0  0  0  0  0  0  0  0  0  0  0  0
   -2.0135   -7.0741    4.1094 H   0  0  0  0  0  0  0  0  0  0  0  0
   -0.8908   -9.5714    2.6533 H   0  0  0  0  0  0  0  0  0  0  0  0
   -2.4849   -8.8790    2.4363 H   0  0  0  0  0  0  0  0  0  0  0  0
  1  9  1  0
  1  2  2  0
  1 14  1  0
  2  3  1  0
  2 15  1  0
  3  8  1  0
  3  4  1  0
  4  5  2  0
  5 13  1  0
  5  6  1  0
  6  7  2  0
  6 10  1  0
  7  8  1  0
  7 16  1  0
  8  9  2  0
 10 11  1  0
 11 12  1  0
 11 17  1  0
 11 18  1  0
 12 13  1  0
 12 19  1  0
 12 20  1  0
M  END
>  <i_m_ct_stereo_status>  (21) 
1

>  <s_m_source_file>  (21) 
/var/tmp/pbs.5076255.sched01/tmp8nmo4hef/06hb_edth.sdf

>  <i_m_source_file_index>  (21) 
9

>  <i_lp_mmshare_version>  (21) 
48012

>  <i_f3d_flags>  (21) 
0

>  <s_epik_input>  (21) 
W2NIXTFbY0hdbmMobjEyKVtjSF1jM2MobjIpT1tDSDJdW0NIMl1PMw==

>  <s_epik_cmdline>  (21) 
J2VwaWtfcHl0aG9uJywgJy1waHQnLCAnMi4wJywgJy1waCcsICc3LjAnLCAnLXRuJywgJzgnLCAnLW1hJywgJzIwMCcsICctaW1hZScsICc8aW5maWxlLm1hZT4nLCAnLW9tYWUnLCAnPG91dGZpbGUubWFlPic=

>  <r_lp_tautomer_probability>  (21) 
1

>  <r_epik_Ionization_Penalty>  (21) 
0.00179849

>  <r_epik_Ionization_Penalty_Charging>  (21) 
0

>  <r_epik_Ionization_Penalty_Neutral>  (21) 
0.00179849

>  <r_epik_State_Penalty>  (21) 
0.00121973

>  <r_epik_Charging_Adjusted_Penalty>  (21) 
0.00121973

>  <i_epik_Tot_Q>  (21) 
0

>  <i_epik_Tot_abs_Q>  (21) 
0

>  <s_lp_Force_Field>  (21) 
OPLS3e

>  <r_lp_Energy>  (21) 
17.8543

>  <b_lp_Chiralities_Consistent>  (21) 
1

>  <s_lp_Variant>  (21) 
6:0-1

>  <s_i_glide_gridfile>  (21) 
pfpi4k_grid

>  <i_i_glide_lignum>  (21) 
9

>  <i_i_glide_rotatable_bonds>  (21) 
0

>  <r_i_docking_score>  (21) 
-3.6606

>  <r_i_glide_ligand_efficiency>  (21) 
-0.281585

>  <r_i_glide_ligand_efficiency_sa>  (21) 
-0.6621

>  <r_i_glide_ligand_efficiency_ln>  (21) 
-1.02683

>  <r_i_glide_gscore>  (21) 
-3.6606

>  <r_i_glide_lipo>  (21) 
-0.025779

>  <r_i_glide_hbond>  (21) 
-0.13749

>  <r_i_glide_metal>  (21) 
-0

>  <r_i_glide_rewards>  (21) 
-2.20118

>  <r_i_glide_evdw>  (21) 
-16.6198

>  <r_i_glide_ecoul>  (21) 
-2.77414

>  <r_i_glide_erotb>  (21) 
0

>  <r_i_glide_esite>  (21) 
-0.0490451

>  <r_i_glide_emodel>  (21) 
-24.3041

>  <r_i_glide_energy>  (21) 
-19.3939

>  <r_i_glide_einternal>  (21) 
0

>  <r_i_glide_intrahb_reward>  (21) 
-0

>  <i_i_glide_confnum>  (21) 
2

>  <i_i_glide_posenum>  (21) 
39

>  <r_i_glide_eff_state_penalty>  (21) 
0

>  <ligand_id>  (21) 
6

>  <original_smiles>  (21) 
c1cn2nc3c(cc2n1)OCCO3

>  <smiles>  (21) 
[H]c1nc2c([H])c3c(nn2c1[H])OC([H])([H])C([H])([H])O3

$$$$
6:0:2
     RDKit          3D

 20 22  0  0  1  0  0  0  0  0999 V2000
   -0.9207    1.4501    2.4319 C   0  0  0  0  0  0  0  0  0  0  0  0
   -1.4429    2.6251    2.8975 C   0  0  0  0  0  0  0  0  0  0  0  0
   -1.5951    2.4845    4.2655 N   0  0  0  0  0  0  0  0  0  0  0  0
   -2.0704    3.4322    5.1240 N   0  0  0  0  0  0  0  0  0  0  0  0
   -2.1140    2.9925    6.3838 C   0  0  0  0  0  0  0  0  0  0  0  0
   -1.7099    1.7029    6.8444 C   0  0  0  0  0  0  0  0  0  0  0  0
   -1.2224    0.7992    5.9329 C   0  0  0  0  0  0  0  0  0  0  0  0
   -1.1538    1.1745    4.5699 C   0  0  0  0  0  0  0  0  0  0  0  0
   -0.7357    0.5470    3.4723 N   0  0  0  0  0  0  0  0  0  0  0  0
   -1.7839    1.3468    8.1684 O   0  0  0  0  0  0  0  0  0  0  0  0
   -1.9183    2.4435    9.0687 C   0  0  0  0  0  0  0  0  0  0  0  0
   -2.9827    3.4182    8.5444 C   0  0  0  0  0  0  0  0  0  0  0  0
   -2.5853    3.9270    7.2788 O   0  0  0  0  0  0  0  0  0  0  0  0
   -0.6517    1.1813    1.4198 H   0  0  0  0  0  0  0  0  0  0  0  0
   -1.6946    3.5497    2.3958 H   0  0  0  0  0  0  0  0  0  0  0  0
   -0.8691   -0.1761    6.2366 H   0  0  0  0  0  0  0  0  0  0  0  0
   -2.2251    2.0590   10.0412 H   0  0  0  0  0  0  0  0  0  0  0  0
   -0.9507    2.9358    9.2110 H   0  0  0  0  0  0  0  0  0  0  0  0
   -3.9631    2.9434    8.4670 H   0  0  0  0  0  0  0  0  0  0  0  0
   -3.0860    4.2511    9.2364 H   0  0  0  0  0  0  0  0  0  0  0  0
  1  9  1  0
  1  2  2  0
  1 14  1  0
  2  3  1  0
  2 15  1  0
  3  8  1  0
  3  4  1  0
  4  5  2  0
  5 13  1  0
  5  6  1  0
  6  7  2  0
  6 10  1  0
  7  8  1  0
  7 16  1  0
  8  9  2  0
 10 11  1  0
 11 12  1  0
 11 17  1  0
 11 18  1  0
 12 13  1  0
 12 19  1  0
 12 20  1  0
M  END
>  <i_m_ct_stereo_status>  (22) 
1

>  <s_m_source_file>  (22) 
/var/tmp/pbs.5076255.sched01/tmp8nmo4hef/06hb_edth.sdf

>  <i_m_source_file_index>  (22) 
9

>  <i_lp_mmshare_version>  (22) 
48012

>  <i_f3d_flags>  (22) 
0

>  <s_epik_input>  (22) 
W2NIXTFbY0hdbmMobjEyKVtjSF1jM2MobjIpT1tDSDJdW0NIMl1PMw==

>  <s_epik_cmdline>  (22) 
J2VwaWtfcHl0aG9uJywgJy1waHQnLCAnMi4wJywgJy1waCcsICc3LjAnLCAnLXRuJywgJzgnLCAnLW1hJywgJzIwMCcsICctaW1hZScsICc8aW5maWxlLm1hZT4nLCAnLW9tYWUnLCAnPG91dGZpbGUubWFlPic=

>  <r_lp_tautomer_probability>  (22) 
1

>  <r_epik_Ionization_Penalty>  (22) 
0.00179849

>  <r_epik_Ionization_Penalty_Charging>  (22) 
0

>  <r_epik_Ionization_Penalty_Neutral>  (22) 
0.00179849

>  <r_epik_State_Penalty>  (22) 
0.00121973

>  <r_epik_Charging_Adjusted_Penalty>  (22) 
0.00121973

>  <i_epik_Tot_Q>  (22) 
0

>  <i_epik_Tot_abs_Q>  (22) 
0

>  <s_lp_Force_Field>  (22) 
OPLS3e

>  <r_lp_Energy>  (22) 
17.8543

>  <b_lp_Chiralities_Consistent>  (22) 
1

>  <s_lp_Variant>  (22) 
6:0-1

>  <s_i_glide_gridfile>  (22) 
pfpi4k_grid

>  <i_i_glide_lignum>  (22) 
9

>  <i_i_glide_rotatable_bonds>  (22) 
0

>  <r_i_docking_score>  (22) 
-3.52158

>  <r_i_glide_ligand_efficiency>  (22) 
-0.270891

>  <r_i_glide_ligand_efficiency_sa>  (22) 
-0.636955

>  <r_i_glide_ligand_efficiency_ln>  (22) 
-0.987834

>  <r_i_glide_gscore>  (22) 
-3.52158

>  <r_i_glide_lipo>  (22) 
-0.168915

>  <r_i_glide_hbond>  (22) 
-0.0737638

>  <r_i_glide_metal>  (22) 
-0

>  <r_i_glide_rewards>  (22) 
-2.20118

>  <r_i_glide_evdw>  (22) 
-16.4728

>  <r_i_glide_ecoul>  (22) 
-1.38012

>  <r_i_glide_erotb>  (22) 
0

>  <r_i_glide_esite>  (22) 
-0.0470626

>  <r_i_glide_emodel>  (22) 
-22.5763

>  <r_i_glide_energy>  (22) 
-17.8529

>  <r_i_glide_einternal>  (22) 
0

>  <r_i_glide_intrahb_reward>  (22) 
-0

>  <i_i_glide_confnum>  (22) 
2

>  <i_i_glide_posenum>  (22) 
7

>  <r_i_glide_eff_state_penalty>  (22) 
0

>  <ligand_id>  (22) 
6

>  <original_smiles>  (22) 
c1cn2nc3c(cc2n1)OCCO3

>  <smiles>  (22) 
[H]c1nc2c([H])c3c(nn2c1[H])OC([H])([H])C([H])([H])O3

$$$$
7:0:0
     RDKit          3D

 51 54  0  0  1  0  0  0  0  0999 V2000
    9.0900   -2.9346    0.5041 C   0  0  0  0  0  0  0  0  0  0  0  0
    7.9562   -3.9941    0.6384 C   0  0  0  0  0  0  0  0  0  0  0  0
    8.5863   -5.3555    0.2790 C   0  0  0  0  0  0  0  0  0  0  0  0
    6.6135   -3.7044   -0.1491 C   0  0  2  0  0  0  0  0  0  0  0  0
    6.4904   -2.2366   -0.5975 C   0  0  0  0  0  0  0  0  0  0  0  0
    5.5237   -1.4022    0.2574 C   0  0  1  0  0  0  0  0  0  0  0  0
    6.1589   -0.2154    0.4784 O   0  0  0  0  0  0  0  0  0  0  0  0
    4.2130   -1.0385   -0.5049 C   0  0  0  0  0  0  0  0  0  0  0  0
    3.2368   -2.1376   -0.9329 C   0  0  0  0  0  0  0  0  0  0  0  0
    3.6926   -3.4993   -1.5191 C   0  0  1  0  0  0  0  0  0  0  0  0
    4.4564   -3.4695   -2.8608 C   0  0  0  0  0  0  0  0  0  0  0  0
    4.1295   -4.5954   -0.4994 C   0  0  2  0  0  0  0  0  0  0  0  0
    2.8482   -5.1609    0.2032 C   0  0  0  0  0  0  0  0  0  0  0  0
    3.0030   -6.2654    1.2789 C   0  0  0  0  0  0  0  0  0  0  0  0
    3.8738   -5.9464    2.5198 C   0  0  2  0  0  0  0  0  0  0  0  0
    3.5627   -6.9837    3.6224 C   0  0  0  0  0  0  0  0  0  0  0  0
    3.5036   -4.6833    3.0228 O   0  0  0  0  0  0  0  0  0  0  0  0
    4.7169   -3.7837    2.9135 O   0  0  0  0  0  0  0  0  0  0  0  0
    4.7449   -3.2705    1.6053 C   0  0  1  0  0  0  0  0  0  0  0  0
    5.3266   -1.9942    1.5180 O   0  0  0  0  0  0  0  0  0  0  0  0
    5.2767   -4.2734    0.5072 C   0  0  2  0  0  0  0  0  0  0  0  0
    5.5706   -5.6368    0.8457 O   0  0  0  0  0  0  0  0  0  0  0  0
    5.2751   -5.9955    2.2817 O   0  0  0  0  0  0  0  0  0  0  0  0
    9.3991   -2.7957   -0.5374 H   0  0  0  0  0  0  0  0  0  0  0  0
    9.9707   -3.2089    1.0663 H   0  0  0  0  0  0  0  0  0  0  0  0
    8.7822   -1.9525    0.8865 H   0  0  0  0  0  0  0  0  0  0  0  0
    7.6894   -4.0221    1.6854 H   0  0  0  0  0  0  0  0  0  0  0  0
    9.0136   -5.3462   -0.7265 H   0  0  0  0  0  0  0  0  0  0  0  0
    7.8882   -6.1913    0.3349 H   0  0  0  0  0  0  0  0  0  0  0  0
    9.4086   -5.5974    0.9573 H   0  0  0  0  0  0  0  0  0  0  0  0
    6.7170   -4.2620   -1.0720 H   0  0  0  0  0  0  0  0  0  0  0  0
    7.4281   -1.7148   -0.6660 H   0  0  0  0  0  0  0  0  0  0  0  0
    6.1634   -2.1254   -1.6261 H   0  0  0  0  0  0  0  0  0  0  0  0
    5.5439    0.4890    0.2587 H   0  0  0  0  0  0  0  0  0  0  0  0
    3.6612   -0.3095    0.0939 H   0  0  0  0  0  0  0  0  0  0  0  0
    4.5188   -0.4938   -1.4041 H   0  0  0  0  0  0  0  0  0  0  0  0
    2.5266   -2.3022   -0.1268 H   0  0  0  0  0  0  0  0  0  0  0  0
    2.6251   -1.6880   -1.7180 H   0  0  0  0  0  0  0  0  0  0  0  0
    2.7285   -3.8585   -1.8794 H   0  0  0  0  0  0  0  0  0  0  0  0
    5.5196   -3.6753   -2.7842 H   0  0  0  0  0  0  0  0  0  0  0  0
    4.3178   -2.5223   -3.3761 H   0  0  0  0  0  0  0  0  0  0  0  0
    4.0879   -4.2522   -3.5228 H   0  0  0  0  0  0  0  0  0  0  0  0
    4.5126   -5.4187   -1.1079 H   0  0  0  0  0  0  0  0  0  0  0  0
    2.2496   -4.3602    0.6361 H   0  0  0  0  0  0  0  0  0  0  0  0
    2.1869   -5.5713   -0.5585 H   0  0  0  0  0  0  0  0  0  0  0  0
    1.9827   -6.4393    1.6432 H   0  0  0  0  0  0  0  0  0  0  0  0
    3.3013   -7.2156    0.8319 H   0  0  0  0  0  0  0  0  0  0  0  0
    4.2008   -6.8449    4.4916 H   0  0  0  0  0  0  0  0  0  0  0  0
    3.7081   -7.9975    3.2480 H   0  0  0  0  0  0  0  0  0  0  0  0
    2.5216   -6.9106    3.9505 H   0  0  0  0  0  0  0  0  0  0  0  0
    3.6949   -3.0511    1.4749 H   0  0  0  0  0  0  0  0  0  0  0  0
  1  2  1  0
  1 24  1  0
  1 25  1  0
  1 26  1  0
  2  3  1  0
  2  4  1  0
  2 27  1  0
  3 28  1  0
  3 29  1  0
  3 30  1  0
  4 21  1  0
  4  5  1  0
  4 31  1  6
  5  6  1  0
  5 32  1  0
  5 33  1  0
  6 20  1  0
  6  7  1  1
  6  8  1  0
  7 34  1  0
  8  9  1  0
  8 35  1  0
  8 36  1  0
  9 10  1  0
  9 37  1  0
  9 38  1  0
 10 11  1  0
 10 12  1  0
 10 39  1  6
 11 40  1  0
 11 41  1  0
 11 42  1  0
 12 21  1  0
 12 13  1  0
 12 43  1  6
 13 14  1  0
 13 44  1  0
 13 45  1  0
 14 15  1  0
 14 46  1  0
 14 47  1  0
 15 23  1  0
 15 16  1  1
 15 17  1  0
 16 48  1  0
 16 49  1  0
 16 50  1  0
 17 18  1  0
 18 19  1  0
 19 20  1  0
 19 21  1  0
 19 51  1  6
 21 22  1  1
 22 23  1  0
M  END
>  <i_m_ct_stereo_status>  (23) 
1

>  <s_m_source_file>  (23) 
/var/tmp/pbs.5076255.sched01/tmp8nmo4hef/06hb_edth.sdf

>  <i_m_source_file_index>  (23) 
10

>  <i_lp_mmshare_version>  (23) 
48012

>  <i_f3d_flags>  (23) 
0

>  <s_epik_input>  (23) 
W0NAXTEyM1tDQEBIXTRbQ0BIXShbQ0gzXSlbQ0gyXVtDSDJdW0NAXShbT0hdKShbQ0gyXVtDQEhdMVtDSF0oW0NIM10pW0NIM10pT1tDQEBIXTJPT1tDQF0oW0NIM10pKE9PMylbQ0gyXVtDSDJdNA==

>  <s_epik_cmdline>  (23) 
J2VwaWtfcHl0aG9uJywgJy1waHQnLCAnMi4wJywgJy1waCcsICc3LjAnLCAnLXRuJywgJzgnLCAnLW1hJywgJzIwMCcsICctaW1hZScsICc8aW5maWxlLm1hZT4nLCAnLW9tYWUnLCAnPG91dGZpbGUubWFlPic=

>  <r_lp_tautomer_probability>  (23) 
1

>  <r_epik_Ionization_Penalty>  (23) 
4.99426e-08

>  <r_epik_Ionization_Penalty_Charging>  (23) 
0

>  <r_epik_Ionization_Penalty_Neutral>  (23) 
4.99426e-08

>  <r_epik_State_Penalty>  (23) 
-0

>  <r_epik_Charging_Adjusted_Penalty>  (23) 
0

>  <i_epik_Tot_Q>  (23) 
0

>  <i_epik_Tot_abs_Q>  (23) 
0

>  <s_epik_Chemistry_Notes>  (23) 
This compound contains an acetal/aminal-like group ( X-CH(R)-Y where X, Y are N, S, or O) that may be acid/base labile, releasing an aldehyde.

>  <s_lp_Force_Field>  (23) 
OPLS3e

>  <r_lp_Energy>  (23) 
62.2747

>  <b_lp_Chiralities_Consistent>  (23) 
1

>  <s_lp_Variant>  (23) 
7:0-1

>  <s_i_glide_gridfile>  (23) 
pfpi4k_grid

>  <i_i_glide_lignum>  (23) 
10

>  <i_i_glide_rotatable_bonds>  (23) 
2

>  <r_i_docking_score>  (23) 
-2.81221

>  <r_i_glide_ligand_efficiency>  (23) 
-0.12227

>  <r_i_glide_ligand_efficiency_sa>  (23) 
-0.34772

>  <r_i_glide_ligand_efficiency_ln>  (23) 
-0.680018

>  <r_i_glide_gscore>  (23) 
-2.81221

>  <r_i_glide_lipo>  (23) 
-0.391134

>  <r_i_glide_hbond>  (23) 
0

>  <r_i_glide_metal>  (23) 
-0

>  <r_i_glide_rewards>  (23) 
-1.27719

>  <r_i_glide_evdw>  (23) 
-17.4349

>  <r_i_glide_ecoul>  (23) 
-1.81424

>  <r_i_glide_erotb>  (23) 
0

>  <r_i_glide_esite>  (23) 
0

>  <r_i_glide_emodel>  (23) 
-14.9556

>  <r_i_glide_energy>  (23) 
-19.2491

>  <r_i_glide_einternal>  (23) 
10.8784

>  <r_i_glide_intrahb_reward>  (23) 
-0

>  <i_i_glide_confnum>  (23) 
1

>  <i_i_glide_posenum>  (23) 
1

>  <r_i_glide_eff_state_penalty>  (23) 
0

>  <ligand_id>  (23) 
7

>  <original_smiles>  (23) 
CC(C)C1CC2(O)CCC(C)C3CCC4(C)OOC(O2)C13OO4

>  <smiles>  (23) 
[H]OC12OC3([H])OOC4(C([H])([H])[H])OOC3(C([H])(C([H])(C([H])([H])[H])C([H])([H])[H])C1([H])[H])C([H])(C([H])([H])C4([H])[H])C([H])(C([H])([H])[H])C([H])([H])C2([H])[H]

$$$$
7:0:1
     RDKit          3D

 51 54  0  0  1  0  0  0  0  0999 V2000
    7.1404   -6.4849    1.0830 C   0  0  0  0  0  0  0  0  0  0  0  0
    6.7830   -5.1076    1.6670 C   0  0  0  0  0  0  0  0  0  0  0  0
    6.1816   -5.2402    3.0737 C   0  0  0  0  0  0  0  0  0  0  0  0
    5.9930   -4.1699    0.6882 C   0  0  2  0  0  0  0  0  0  0  0  0
    6.4710   -2.7010    0.8838 C   0  0  0  0  0  0  0  0  0  0  0  0
    5.4543   -1.8070    1.5908 C   0  0  1  0  0  0  0  0  0  0  0  0
    6.1913   -0.9638    2.4773 O   0  0  0  0  0  0  0  0  0  0  0  0
    4.7535   -0.7842    0.6512 C   0  0  0  0  0  0  0  0  0  0  0  0
    3.8131   -1.3064   -0.4583 C   0  0  0  0  0  0  0  0  0  0  0  0
    4.1209   -2.5247   -1.3498 C   0  0  1  0  0  0  0  0  0  0  0  0
    5.3712   -2.4258   -2.2436 C   0  0  0  0  0  0  0  0  0  0  0  0
    3.8022   -3.9255   -0.7659 C   0  0  2  0  0  0  0  0  0  0  0  0
    2.2484   -4.1179   -0.7765 C   0  0  0  0  0  0  0  0  0  0  0  0
    1.6413   -5.4200   -0.2001 C   0  0  0  0  0  0  0  0  0  0  0  0
    1.9839   -5.8318    1.2610 C   0  0  2  0  0  0  0  0  0  0  0  0
    0.9780   -6.9271    1.6787 C   0  0  0  0  0  0  0  0  0  0  0  0
    1.7703   -4.7188    2.1055 O   0  0  0  0  0  0  0  0  0  0  0  0
    3.0950   -4.3498    2.7071 O   0  0  0  0  0  0  0  0  0  0  0  0
    3.7410   -3.5244    1.7654 C   0  0  1  0  0  0  0  0  0  0  0  0
    4.5901   -2.5570    2.3865 O   0  0  0  0  0  0  0  0  0  0  0  0
    4.4284   -4.3202    0.6056 C   0  0  2  0  0  0  0  0  0  0  0  0
    4.2326   -5.7472    0.4508 O   0  0  0  0  0  0  0  0  0  0  0  0
    3.2926   -6.3434    1.4594 O   0  0  0  0  0  0  0  0  0  0  0  0
    6.2584   -7.0782    0.8560 H   0  0  0  0  0  0  0  0  0  0  0  0
    7.7311   -7.0670    1.7915 H   0  0  0  0  0  0  0  0  0  0  0  0
    7.7416   -6.3848    0.1772 H   0  0  0  0  0  0  0  0  0  0  0  0
    7.7736   -4.6739    1.8153 H   0  0  0  0  0  0  0  0  0  0  0  0
    5.2589   -5.8182    3.0491 H   0  0  0  0  0  0  0  0  0  0  0  0
    5.9611   -4.2709    3.5179 H   0  0  0  0  0  0  0  0  0  0  0  0
    6.8706   -5.7444    3.7510 H   0  0  0  0  0  0  0  0  0  0  0  0
    6.3735   -4.4540   -0.2874 H   0  0  0  0  0  0  0  0  0  0  0  0
    7.4081   -2.6838    1.4314 H   0  0  0  0  0  0  0  0  0  0  0  0
    6.7553   -2.2186   -0.0445 H   0  0  0  0  0  0  0  0  0  0  0  0
    5.6113   -0.4129    2.9093 H   0  0  0  0  0  0  0  0  0  0  0  0
    4.1772   -0.0972    1.2678 H   0  0  0  0  0  0  0  0  0  0  0  0
    5.5291   -0.1819    0.1859 H   0  0  0  0  0  0  0  0  0  0  0  0
    2.8052   -1.3588   -0.0564 H   0  0  0  0  0  0  0  0  0  0  0  0
    3.7769   -0.4782   -1.1643 H   0  0  0  0  0  0  0  0  0  0  0  0
    3.3495   -2.4003   -2.1113 H   0  0  0  0  0  0  0  0  0  0  0  0
    6.2176   -3.0120   -1.9033 H   0  0  0  0  0  0  0  0  0  0  0  0
    5.6853   -1.3868   -2.3365 H   0  0  0  0  0  0  0  0  0  0  0  0
    5.1523   -2.7981   -3.2456 H   0  0  0  0  0  0  0  0  0  0  0  0
    4.2080   -4.6333   -1.4880 H   0  0  0  0  0  0  0  0  0  0  0  0
    1.7646   -3.2590   -0.3056 H   0  0  0  0  0  0  0  0  0  0  0  0
    1.9063   -4.0617   -1.8127 H   0  0  0  0  0  0  0  0  0  0  0  0
    0.5686   -5.3973   -0.3329 H   0  0  0  0  0  0  0  0  0  0  0  0
    1.8360   -6.2120   -0.8381 H   0  0  0  0  0  0  0  0  0  0  0  0
    1.1879   -7.2858    2.6853 H   0  0  0  0  0  0  0  0  0  0  0  0
    1.0232   -7.7871    1.0059 H   0  0  0  0  0  0  0  0  0  0  0  0
   -0.0507   -6.5732    1.6618 H   0  0  0  0  0  0  0  0  0  0  0  0
    2.9301   -2.9002    1.4182 H   0  0  0  0  0  0  0  0  0  0  0  0
  1  2  1  0
  1 24  1  0
  1 25  1  0
  1 26  1  0
  2  3  1  0
  2  4  1  0
  2 27  1  0
  3 28  1  0
  3 29  1  0
  3 30  1  0
  4 21  1  0
  4  5  1  0
  4 31  1  6
  5  6  1  0
  5 32  1  0
  5 33  1  0
  6 20  1  0
  6  7  1  1
  6  8  1  0
  7 34  1  0
  8  9  1  0
  8 35  1  0
  8 36  1  0
  9 10  1  0
  9 37  1  0
  9 38  1  0
 10 11  1  0
 10 12  1  0
 10 39  1  6
 11 40  1  0
 11 41  1  0
 11 42  1  0
 12 21  1  0
 12 13  1  0
 12 43  1  6
 13 14  1  0
 13 44  1  0
 13 45  1  0
 14 15  1  0
 14 46  1  0
 14 47  1  0
 15 23  1  0
 15 16  1  1
 15 17  1  0
 16 48  1  0
 16 49  1  0
 16 50  1  0
 17 18  1  0
 18 19  1  0
 19 20  1  0
 19 21  1  0
 19 51  1  6
 21 22  1  1
 22 23  1  0
M  END
>  <i_m_ct_stereo_status>  (24) 
1

>  <s_m_source_file>  (24) 
/var/tmp/pbs.5076255.sched01/tmp8nmo4hef/06hb_edth.sdf

>  <i_m_source_file_index>  (24) 
10

>  <i_lp_mmshare_version>  (24) 
48012

>  <i_f3d_flags>  (24) 
0

>  <s_epik_input>  (24) 
W0NAXTEyM1tDQEBIXTRbQ0BIXShbQ0gzXSlbQ0gyXVtDSDJdW0NAXShbT0hdKShbQ0gyXVtDQEhdMVtDSF0oW0NIM10pW0NIM10pT1tDQEBIXTJPT1tDQF0oW0NIM10pKE9PMylbQ0gyXVtDSDJdNA==

>  <s_epik_cmdline>  (24) 
J2VwaWtfcHl0aG9uJywgJy1waHQnLCAnMi4wJywgJy1waCcsICc3LjAnLCAnLXRuJywgJzgnLCAnLW1hJywgJzIwMCcsICctaW1hZScsICc8aW5maWxlLm1hZT4nLCAnLW9tYWUnLCAnPG91dGZpbGUubWFlPic=

>  <r_lp_tautomer_probability>  (24) 
1

>  <r_epik_Ionization_Penalty>  (24) 
4.99426e-08

>  <r_epik_Ionization_Penalty_Charging>  (24) 
0

>  <r_epik_Ionization_Penalty_Neutral>  (24) 
4.99426e-08

>  <r_epik_State_Penalty>  (24) 
-0

>  <r_epik_Charging_Adjusted_Penalty>  (24) 
0

>  <i_epik_Tot_Q>  (24) 
0

>  <i_epik_Tot_abs_Q>  (24) 
0

>  <s_epik_Chemistry_Notes>  (24) 
This compound contains an acetal/aminal-like group ( X-CH(R)-Y where X, Y are N, S, or O) that may be acid/base labile, releasing an aldehyde.

>  <s_lp_Force_Field>  (24) 
OPLS3e

>  <r_lp_Energy>  (24) 
62.2747

>  <b_lp_Chiralities_Consistent>  (24) 
1

>  <s_lp_Variant>  (24) 
7:0-1

>  <s_i_glide_gridfile>  (24) 
pfpi4k_grid

>  <i_i_glide_lignum>  (24) 
10

>  <i_i_glide_rotatable_bonds>  (24) 
2

>  <r_i_docking_score>  (24) 
-2.39347

>  <r_i_glide_ligand_efficiency>  (24) 
-0.104064

>  <r_i_glide_ligand_efficiency_sa>  (24) 
-0.295944

>  <r_i_glide_ligand_efficiency_ln>  (24) 
-0.578763

>  <r_i_glide_gscore>  (24) 
-2.39347

>  <r_i_glide_lipo>  (24) 
-0.501754

>  <r_i_glide_hbond>  (24) 
-0.00904861

>  <r_i_glide_metal>  (24) 
-0

>  <r_i_glide_rewards>  (24) 
-1.31294

>  <r_i_glide_evdw>  (24) 
-14.585

>  <r_i_glide_ecoul>  (24) 
1.37353

>  <r_i_glide_erotb>  (24) 
0

>  <r_i_glide_esite>  (24) 
-0.0465101

>  <r_i_glide_emodel>  (24) 
-13.8421

>  <r_i_glide_energy>  (24) 
-13.2115

>  <r_i_glide_einternal>  (24) 
1.38743

>  <r_i_glide_intrahb_reward>  (24) 
-0

>  <i_i_glide_confnum>  (24) 
2

>  <i_i_glide_posenum>  (24) 
7

>  <r_i_glide_eff_state_penalty>  (24) 
0

>  <ligand_id>  (24) 
7

>  <original_smiles>  (24) 
CC(C)C1CC2(O)CCC(C)C3CCC4(C)OOC(O2)C13OO4

>  <smiles>  (24) 
[H]OC12OC3([H])OOC4(C([H])([H])[H])OOC3(C([H])(C([H])(C([H])([H])[H])C([H])([H])[H])C1([H])[H])C([H])(C([H])([H])C4([H])[H])C([H])(C([H])([H])[H])C([H])([H])C2([H])[H]

$$$$
7:0:2
     RDKit          3D

 51 54  0  0  1  0  0  0  0  0999 V2000
    7.6368   -5.9849    0.7775 C   0  0  0  0  0  0  0  0  0  0  0  0
    7.1107   -4.7313    1.4925 C   0  0  0  0  0  0  0  0  0  0  0  0
    6.5669   -5.0800    2.8850 C   0  0  0  0  0  0  0  0  0  0  0  0
    6.1690   -3.8308    0.6171 C   0  0  2  0  0  0  0  0  0  0  0  0
    6.5158   -2.3372    0.8258 C   0  0  0  0  0  0  0  0  0  0  0  0
    5.4757   -1.5572    1.6664 C   0  0  1  0  0  0  0  0  0  0  0  0
    6.1696   -0.6813    2.5020 O   0  0  0  0  0  0  0  0  0  0  0  0
    4.6163   -0.6040    0.7995 C   0  0  0  0  0  0  0  0  0  0  0  0
    3.6444   -1.1797   -0.2334 C   0  0  0  0  0  0  0  0  0  0  0  0
    3.9878   -2.3297   -1.2145 C   0  0  1  0  0  0  0  0  0  0  0  0
    5.1429   -2.0823   -2.2034 C   0  0  0  0  0  0  0  0  0  0  0  0
    3.8455   -3.7741   -0.6603 C   0  0  2  0  0  0  0  0  0  0  0  0
    2.3227   -4.1107   -0.5617 C   0  0  0  0  0  0  0  0  0  0  0  0
    1.8901   -5.4896    0.0020 C   0  0  0  0  0  0  0  0  0  0  0  0
    2.3542   -5.8698    1.4177 C   0  0  2  0  0  0  0  0  0  0  0  0
    1.5016   -7.0697    1.9055 C   0  0  0  0  0  0  0  0  0  0  0  0
    2.0874   -4.7994    2.2736 O   0  0  0  0  0  0  0  0  0  0  0  0
    3.4215   -4.3359    2.8167 O   0  0  0  0  0  0  0  0  0  0  0  0
    3.9495   -3.4401    1.8868 C   0  0  1  0  0  0  0  0  0  0  0  0
    4.7521   -2.4458    2.4778 O   0  0  0  0  0  0  0  0  0  0  0  0
    4.6158   -4.1413    0.6402 C   0  0  2  0  0  0  0  0  0  0  0  0
    4.5252   -5.5613    0.4583 O   0  0  0  0  0  0  0  0  0  0  0  0
    3.7033   -6.2575    1.5333 O   0  0  0  0  0  0  0  0  0  0  0  0
    6.8358   -6.6570    0.4815 H   0  0  0  0  0  0  0  0  0  0  0  0
    8.3147   -6.5431    1.4260 H   0  0  0  0  0  0  0  0  0  0  0  0
    8.2125   -5.7154   -0.1066 H   0  0  0  0  0  0  0  0  0  0  0  0
    8.0288   -4.1795    1.6648 H   0  0  0  0  0  0  0  0  0  0  0  0
    5.7465   -5.7941    2.8303 H   0  0  0  0  0  0  0  0  0  0  0  0
    6.2052   -4.2040    3.4181 H   0  0  0  0  0  0  0  0  0  0  0  0
    7.3433   -5.5286    3.5099 H   0  0  0  0  0  0  0  0  0  0  0  0
    6.4826   -4.0547   -0.3995 H   0  0  0  0  0  0  0  0  0  0  0  0
    7.4959   -2.2162    1.3042 H   0  0  0  0  0  0  0  0  0  0  0  0
    6.6685   -1.8014   -0.1103 H   0  0  0  0  0  0  0  0  0  0  0  0
    6.8860   -1.1582    2.8933 H   0  0  0  0  0  0  0  0  0  0  0  0
    4.0434    0.0247    1.4811 H   0  0  0  0  0  0  0  0  0  0  0  0
    5.2962    0.0974    0.2937 H   0  0  0  0  0  0  0  0  0  0  0  0
    2.6665   -1.3233    0.2249 H   0  0  0  0  0  0  0  0  0  0  0  0
    3.4865   -0.3486   -0.8977 H   0  0  0  0  0  0  0  0  0  0  0  0
    3.1453   -2.2439   -1.9041 H   0  0  0  0  0  0  0  0  0  0  0  0
    6.0651   -2.5944   -1.9495 H   0  0  0  0  0  0  0  0  0  0  0  0
    5.3542   -1.0188   -2.3132 H   0  0  0  0  0  0  0  0  0  0  0  0
    4.8760   -2.4569   -3.1925 H   0  0  0  0  0  0  0  0  0  0  0  0
    4.2336   -4.4255   -1.4450 H   0  0  0  0  0  0  0  0  0  0  0  0
    1.8248   -3.3173   -0.0039 H   0  0  0  0  0  0  0  0  0  0  0  0
    1.8894   -4.0363   -1.5653 H   0  0  0  0  0  0  0  0  0  0  0  0
    0.7949   -5.4785   -0.0144 H   0  0  0  0  0  0  0  0  0  0  0  0
    2.1234   -6.2518   -0.7036 H   0  0  0  0  0  0  0  0  0  0  0  0
    1.8278   -7.4236    2.8790 H   0  0  0  0  0  0  0  0  0  0  0  0
    1.5627   -7.9061    1.2076 H   0  0  0  0  0  0  0  0  0  0  0  0
    0.4389   -6.8056    1.9865 H   0  0  0  0  0  0  0  0  0  0  0  0
    3.0716   -2.8765    1.6319 H   0  0  0  0  0  0  0  0  0  0  0  0
  1  2  1  0
  1 24  1  0
  1 25  1  0
  1 26  1  0
  2  3  1  0
  2  4  1  0
  2 27  1  0
  3 28  1  0
  3 29  1  0
  3 30  1  0
  4 21  1  0
  4  5  1  0
  4 31  1  6
  5  6  1  0
  5 32  1  0
  5 33  1  0
  6 20  1  0
  6  7  1  1
  6  8  1  0
  7 34  1  0
  8  9  1  0
  8 35  1  0
  8 36  1  0
  9 10  1  0
  9 37  1  0
  9 38  1  0
 10 11  1  0
 10 12  1  0
 10 39  1  6
 11 40  1  0
 11 41  1  0
 11 42  1  0
 12 21  1  0
 12 13  1  0
 12 43  1  6
 13 14  1  0
 13 44  1  0
 13 45  1  0
 14 15  1  0
 14 46  1  0
 14 47  1  0
 15 23  1  0
 15 16  1  1
 15 17  1  0
 16 48  1  0
 16 49  1  0
 16 50  1  0
 17 18  1  0
 18 19  1  0
 19 20  1  0
 19 21  1  0
 19 51  1  6
 21 22  1  1
 22 23  1  0
M  END
>  <i_m_ct_stereo_status>  (25) 
1

>  <s_m_source_file>  (25) 
/var/tmp/pbs.5076255.sched01/tmp8nmo4hef/06hb_edth.sdf

>  <i_m_source_file_index>  (25) 
10

>  <i_lp_mmshare_version>  (25) 
48012

>  <i_f3d_flags>  (25) 
0

>  <s_epik_input>  (25) 
W0NAXTEyM1tDQEBIXTRbQ0BIXShbQ0gzXSlbQ0gyXVtDSDJdW0NAXShbT0hdKShbQ0gyXVtDQEhdMVtDSF0oW0NIM10pW0NIM10pT1tDQEBIXTJPT1tDQF0oW0NIM10pKE9PMylbQ0gyXVtDSDJdNA==

>  <s_epik_cmdline>  (25) 
J2VwaWtfcHl0aG9uJywgJy1waHQnLCAnMi4wJywgJy1waCcsICc3LjAnLCAnLXRuJywgJzgnLCAnLW1hJywgJzIwMCcsICctaW1hZScsICc8aW5maWxlLm1hZT4nLCAnLW9tYWUnLCAnPG91dGZpbGUubWFlPic=

>  <r_lp_tautomer_probability>  (25) 
1

>  <r_epik_Ionization_Penalty>  (25) 
4.99426e-08

>  <r_epik_Ionization_Penalty_Charging>  (25) 
0

>  <r_epik_Ionization_Penalty_Neutral>  (25) 
4.99426e-08

>  <r_epik_State_Penalty>  (25) 
-0

>  <r_epik_Charging_Adjusted_Penalty>  (25) 
0

>  <i_epik_Tot_Q>  (25) 
0

>  <i_epik_Tot_abs_Q>  (25) 
0

>  <s_epik_Chemistry_Notes>  (25) 
This compound contains an acetal/aminal-like group ( X-CH(R)-Y where X, Y are N, S, or O) that may be acid/base labile, releasing an aldehyde.

>  <s_lp_Force_Field>  (25) 
OPLS3e

>  <r_lp_Energy>  (25) 
62.2747

>  <b_lp_Chiralities_Consistent>  (25) 
1

>  <s_lp_Variant>  (25) 
7:0-1

>  <s_i_glide_gridfile>  (25) 
pfpi4k_grid

>  <i_i_glide_lignum>  (25) 
10

>  <i_i_glide_rotatable_bonds>  (25) 
2

>  <r_i_docking_score>  (25) 
-2.35693

>  <r_i_glide_ligand_efficiency>  (25) 
-0.102475

>  <r_i_glide_ligand_efficiency_sa>  (25) 
-0.291426

>  <r_i_glide_ligand_efficiency_ln>  (25) 
-0.569927

>  <r_i_glide_gscore>  (25) 
-2.35693

>  <r_i_glide_lipo>  (25) 
-0.466075

>  <r_i_glide_hbond>  (25) 
0

>  <r_i_glide_metal>  (25) 
-0

>  <r_i_glide_rewards>  (25) 
-1.33728

>  <r_i_glide_evdw>  (25) 
-13.4957

>  <r_i_glide_ecoul>  (25) 
0.957593

>  <r_i_glide_erotb>  (25) 
0

>  <r_i_glide_esite>  (25) 
-0.0224307

>  <r_i_glide_emodel>  (25) 
-13.1451

>  <r_i_glide_energy>  (25) 
-12.5381

>  <r_i_glide_einternal>  (25) 
1.93232

>  <r_i_glide_intrahb_reward>  (25) 
-0

>  <i_i_glide_confnum>  (25) 
1

>  <i_i_glide_posenum>  (25) 
37

>  <r_i_glide_eff_state_penalty>  (25) 
0

>  <ligand_id>  (25) 
7

>  <original_smiles>  (25) 
CC(C)C1CC2(O)CCC(C)C3CCC4(C)OOC(O2)C13OO4

>  <smiles>  (25) 
[H]OC12OC3([H])OOC4(C([H])([H])[H])OOC3(C([H])(C([H])(C([H])([H])[H])C([H])([H])[H])C1([H])[H])C([H])(C([H])([H])C4([H])[H])C([H])(C([H])([H])[H])C([H])([H])C2([H])[H]

$$$$
8:0:0
     RDKit          3D

 55 59  0  0  1  0  0  0  0  0999 V2000
    2.3927   -2.2737   -3.5361 C   0  0  0  0  0  0  0  0  0  0  0  0
    3.4746   -2.3059   -2.4479 C   0  0  2  0  0  0  0  0  0  0  0  0
    4.8116   -1.8420   -2.9992 C   0  0  0  0  0  0  0  0  0  0  0  0
    5.8118   -1.7854   -1.8489 C   0  0  0  0  0  0  0  0  0  0  0  0
    5.8961   -3.0201   -0.9191 C   0  0  2  0  0  0  0  0  0  0  0  0
    4.6165   -3.8315   -0.7810 N   0  0  2  0  0  0  0  0  0  0  0  0
    4.7826   -5.2892   -0.3824 C   0  0  0  0  0  0  0  0  0  0  0  0
    4.2792   -5.7351    1.0468 C   0  0  0  0  0  0  0  0  0  0  0  0
    4.5350   -4.9242    2.3996 C   0  0  2  0  0  0  0  0  0  0  0  0
    3.1813   -4.7474    3.1243 C   0  0  1  0  0  0  0  0  0  0  0  0
    3.3731   -4.1639    4.5403 C   0  0  0  0  0  0  0  0  0  0  0  0
    2.2056   -3.9302    2.2096 C   0  0  0  0  0  0  0  0  0  0  0  0
    2.8831   -3.1761    1.1830 O   0  0  0  0  0  0  0  0  0  0  0  0
    3.9653   -2.5803    1.7911 C   0  0  2  0  0  0  0  0  0  0  0  0
    4.5786   -1.4750    1.0901 N   0  0  0  0  0  0  0  0  0  0  0  0
    4.0202   -0.1108    1.2869 C   0  0  0  0  0  0  0  0  0  0  0  0
    5.9723   -1.7045    1.4919 C   0  0  1  0  0  0  0  0  0  0  0  0
    5.8173   -2.5021    2.6967 O   0  0  0  0  0  0  0  0  0  0  0  0
    5.1476   -3.5607    2.0753 C   0  0  1  0  0  0  0  0  0  0  0  0
    6.5158   -3.8048    1.3331 C   0  0  0  0  0  0  0  0  0  0  0  0
    6.6506   -2.6495    0.4314 C   0  0  1  0  0  0  0  0  0  0  0  0
    8.1378   -2.3021    0.2031 C   0  0  0  0  0  0  0  0  0  0  0  0
    8.5683   -1.1934    0.4718 O   0  0  0  0  0  0  0  0  0  0  0  0
    3.7059   -3.7231   -1.9503 C   0  0  0  0  0  0  0  0  0  0  0  0
    2.6460   -2.8839   -4.4052 H   0  0  0  0  0  0  0  0  0  0  0  0
    2.2607   -1.2507   -3.8849 H   0  0  0  0  0  0  0  0  0  0  0  0
    1.4376   -2.6347   -3.1516 H   0  0  0  0  0  0  0  0  0  0  0  0
    3.1576   -1.6709   -1.6193 H   0  0  0  0  0  0  0  0  0  0  0  0
    5.1679   -2.5272   -3.7757 H   0  0  0  0  0  0  0  0  0  0  0  0
    4.7046   -0.8561   -3.4595 H   0  0  0  0  0  0  0  0  0  0  0  0
    6.8029   -1.6684   -2.2769 H   0  0  0  0  0  0  0  0  0  0  0  0
    5.5836   -0.8971   -1.2650 H   0  0  0  0  0  0  0  0  0  0  0  0
    6.5559   -3.6914   -1.4712 H   0  0  0  0  0  0  0  0  0  0  0  0
    4.2442   -5.9230   -1.0715 H   0  0  0  0  0  0  0  0  0  0  0  0
    5.7782   -5.6686   -0.5963 H   0  0  0  0  0  0  0  0  0  0  0  0
    3.2092   -5.9003    0.9261 H   0  0  0  0  0  0  0  0  0  0  0  0
    4.6516   -6.7467    1.2117 H   0  0  0  0  0  0  0  0  0  0  0  0
    5.2260   -5.4903    3.0270 H   0  0  0  0  0  0  0  0  0  0  0  0
    2.7331   -5.7304    3.2698 H   0  0  0  0  0  0  0  0  0  0  0  0
    3.8519   -3.1848    4.5374 H   0  0  0  0  0  0  0  0  0  0  0  0
    4.0122   -4.8182    5.1353 H   0  0  0  0  0  0  0  0  0  0  0  0
    2.4238   -4.0646    5.0660 H   0  0  0  0  0  0  0  0  0  0  0  0
    1.5150   -4.6197    1.7234 H   0  0  0  0  0  0  0  0  0  0  0  0
    1.5878   -3.2667    2.8182 H   0  0  0  0  0  0  0  0  0  0  0  0
    3.6065   -2.0827    2.6969 H   0  0  0  0  0  0  0  0  0  0  0  0
    4.5628    0.6287    0.6978 H   0  0  0  0  0  0  0  0  0  0  0  0
    4.1191    0.1742    2.3350 H   0  0  0  0  0  0  0  0  0  0  0  0
    2.9619   -0.0658    1.0287 H   0  0  0  0  0  0  0  0  0  0  0  0
    6.4214   -0.7188    1.6494 H   0  0  0  0  0  0  0  0  0  0  0  0
    7.3097   -3.8454    2.0781 H   0  0  0  0  0  0  0  0  0  0  0  0
    6.7229   -4.7612    0.8738 H   0  0  0  0  0  0  0  0  0  0  0  0
    8.7802   -3.1088   -0.1686 H   0  0  0  0  0  0  0  0  0  0  0  0
    2.7568   -4.1674   -1.6594 H   0  0  0  0  0  0  0  0  0  0  0  0
    4.1498   -4.2539   -2.7924 H   0  0  0  0  0  0  0  0  0  0  0  0
    4.0901   -3.3982   -0.0286 H   0  0  0  0  0  0  0  0  0  0  0  0
  1  2  1  0
  1 25  1  0
  1 26  1  0
  1 27  1  0
  2 24  1  0
  2  3  1  0
  2 28  1  1
  3  4  1  0
  3 29  1  0
  3 30  1  0
  4  5  1  0
  4 31  1  0
  4 32  1  0
  5 21  1  0
  5  6  1  0
  5 33  1  6
  6  7  1  0
  6 24  1  0
  6 55  1  1
  7  8  1  0
  7 34  1  0
  7 35  1  0
  8  9  1  0
  8 36  1  0
  8 37  1  0
  9 19  1  0
  9 10  1  0
  9 38  1  1
 10 11  1  0
 10 12  1  0
 10 39  1  1
 11 40  1  0
 11 41  1  0
 11 42  1  0
 12 13  1  0
 12 43  1  0
 12 44  1  0
 13 14  1  0
 14 19  1  0
 14 15  1  0
 14 45  1  1
 15 16  1  0
 15 17  1  0
 16 46  1  0
 16 47  1  0
 16 48  1  0
 17 21  1  0
 17 18  1  0
 17 49  1  1
 19 18  1  1
 19 20  1  0
 20 21  1  0
 20 50  1  0
 20 51  1  0
 21 22  1  6
 22 23  2  0
 22 52  1  0
 24 53  1  0
 24 54  1  0
M  CHG  1   6   1
M  END
>  <i_m_ct_stereo_status>  (26) 
1

>  <s_m_source_file>  (26) 
/var/tmp/pbs.5076255.sched01/tmp8nmo4hef/06hb_edth.sdf

>  <i_m_source_file_index>  (26) 
11

>  <i_lp_mmshare_version>  (26) 
48012

>  <i_f3d_flags>  (26) 
0

>  <s_epik_input>  (26) 
QzEyM1tDQEBIXTRbQ0gyXVtDSDJdTjVbQ0BASF0oW0NIMl1bQ0gyXVtDQEBIXShbQ0gzXSlbQ0gyXTUpW0NAQF0oW0NIMl0zKShbQ0hdPU8pW0NASF0oTzIpTihbQ0gzXSlbQ0BIXTFPW0NIMl1bQ0BASF00W0NIM10=

>  <s_epik_cmdline>  (26) 
J2VwaWtfcHl0aG9uJywgJy1waHQnLCAnMi4wJywgJy1waCcsICc3LjAnLCAnLXRuJywgJzgnLCAnLW1hJywgJzIwMCcsICctaW1hZScsICc8aW5maWxlLm1hZT4nLCAnLW9tYWUnLCAnPG91dGZpbGUubWFlPic=

>  <r_lp_tautomer_probability>  (26) 
1

>  <r_epik_Ionization_Penalty>  (26) 
0.00561432

>  <r_epik_Ionization_Penalty_Charging>  (26) 
0.0055872

>  <r_epik_Ionization_Penalty_Neutral>  (26) 
2.71219e-05

>  <r_epik_State_Penalty>  (26) 
-0

>  <r_epik_Charging_Adjusted_Penalty>  (26) 
0.0055872

>  <i_epik_Tot_Q>  (26) 
1

>  <i_epik_Tot_abs_Q>  (26) 
1

>  <s_epik_Chemistry_Notes>  (26) 
This compound contains an acetal/aminal-like group ( X-CH(R)-Y where X, Y are N, S, or O) that may be acid/base labile, releasing an aldehyde.

>  <s_lp_Force_Field>  (26) 
OPLS3e

>  <r_lp_Energy>  (26) 
133.01

>  <b_lp_Chiralities_Consistent>  (26) 
1

>  <s_lp_Variant>  (26) 
8:0-1

>  <s_i_glide_gridfile>  (26) 
pfpi4k_grid

>  <i_i_glide_lignum>  (26) 
11

>  <i_i_glide_rotatable_bonds>  (26) 
1

>  <r_i_docking_score>  (26) 
-3.36842

>  <r_i_glide_ligand_efficiency>  (26) 
-0.140351

>  <r_i_glide_ligand_efficiency_sa>  (26) 
-0.404842

>  <r_i_glide_ligand_efficiency_ln>  (26) 
-0.806217

>  <r_i_glide_gscore>  (26) 
-3.36842

>  <r_i_glide_lipo>  (26) 
-0.645978

>  <r_i_glide_hbond>  (26) 
-0.00875709

>  <r_i_glide_metal>  (26) 
-0

>  <r_i_glide_rewards>  (26) 
-1.53014

>  <r_i_glide_evdw>  (26) 
-15.753

>  <r_i_glide_ecoul>  (26) 
-2.63494

>  <r_i_glide_erotb>  (26) 
0

>  <r_i_glide_esite>  (26) 
-0.00065283

>  <r_i_glide_emodel>  (26) 
-21.7109

>  <r_i_glide_energy>  (26) 
-18.3879

>  <r_i_glide_einternal>  (26) 
0.398404

>  <r_i_glide_intrahb_reward>  (26) 
-0

>  <i_i_glide_confnum>  (26) 
1

>  <i_i_glide_posenum>  (26) 
17

>  <r_i_glide_eff_state_penalty>  (26) 
0

>  <ligand_id>  (26) 
8

>  <original_smiles>  (26) 
CC1CCC2N(CCC3C(C)COC4N(C)C5OC34CC25C=O)C1

>  <smiles>  (26) 
[H]C(=O)C12C3([H])OC4(C([H])(OC([H])([H])C([H])(C([H])([H])[H])C4([H])C([H])([H])C([H])([H])[N+]4([H])C([H])([H])C([H])(C([H])([H])[H])C([H])([H])C([H])([H])C14[H])N3C([H])([H])[H])C2([H])[H]

$$$$
8:0:1
     RDKit          3D

 55 59  0  0  1  0  0  0  0  0999 V2000
    0.7740   -1.2320    3.5795 C   0  0  0  0  0  0  0  0  0  0  0  0
    1.9791   -2.1084    3.2022 C   0  0  2  0  0  0  0  0  0  0  0  0
    2.4703   -2.9215    4.3971 C   0  0  0  0  0  0  0  0  0  0  0  0
    3.5361   -3.9113    3.9293 C   0  0  0  0  0  0  0  0  0  0  0  0
    4.6571   -3.3256    3.0222 C   0  0  2  0  0  0  0  0  0  0  0  0
    4.2778   -2.1141    2.1646 N   0  0  2  0  0  0  0  0  0  0  0  0
    5.4136   -1.2066    1.7322 C   0  0  0  0  0  0  0  0  0  0  0  0
    5.8036   -1.1808    0.1961 C   0  0  0  0  0  0  0  0  0  0  0  0
    5.9549   -2.4752   -0.7361 C   0  0  2  0  0  0  0  0  0  0  0  0
    5.1101   -2.2435   -2.0170 C   0  0  1  0  0  0  0  0  0  0  0  0
    5.3820   -3.3489   -3.0624 C   0  0  0  0  0  0  0  0  0  0  0  0
    3.5996   -2.0742   -1.6258 C   0  0  0  0  0  0  0  0  0  0  0  0
    3.3022   -2.6155   -0.3185 O   0  0  0  0  0  0  0  0  0  0  0  0
    3.9309   -3.8333   -0.2324 C   0  0  2  0  0  0  0  0  0  0  0  0
    3.4658   -4.7108    0.8094 N   0  0  0  0  0  0  0  0  0  0  0  0
    2.3098   -5.5950    0.5193 C   0  0  0  0  0  0  0  0  0  0  0  0
    4.7482   -5.3547    1.1516 C   0  0  1  0  0  0  0  0  0  0  0  0
    5.5574   -5.1459   -0.0373 O   0  0  0  0  0  0  0  0  0  0  0  0
    5.4745   -3.7425    0.0063 C   0  0  1  0  0  0  0  0  0  0  0  0
    6.3450   -3.8913    1.3096 C   0  0  0  0  0  0  0  0  0  0  0  0
    5.4327   -4.5211    2.2865 C   0  0  1  0  0  0  0  0  0  0  0  0
    6.1869   -5.4560    3.2535 C   0  0  0  0  0  0  0  0  0  0  0  0
    6.7521   -6.4735    2.8542 O   0  0  0  0  0  0  0  0  0  0  0  0
    3.1617   -1.2812    2.6946 C   0  0  0  0  0  0  0  0  0  0  0  0
    1.0156   -0.5309    4.3816 H   0  0  0  0  0  0  0  0  0  0  0  0
   -0.0594   -1.8520    3.9171 H   0  0  0  0  0  0  0  0  0  0  0  0
    0.4252   -0.6550    2.7212 H   0  0  0  0  0  0  0  0  0  0  0  0
    1.6565   -2.7876    2.4121 H   0  0  0  0  0  0  0  0  0  0  0  0
    2.8712   -2.2601    5.1717 H   0  0  0  0  0  0  0  0  0  0  0  0
    1.6417   -3.4711    4.8506 H   0  0  0  0  0  0  0  0  0  0  0  0
    3.9863   -4.3685    4.8115 H   0  0  0  0  0  0  0  0  0  0  0  0
    3.0269   -4.7161    3.4024 H   0  0  0  0  0  0  0  0  0  0  0  0
    5.3658   -2.9047    3.7394 H   0  0  0  0  0  0  0  0  0  0  0  0
    5.1481   -0.1758    1.9631 H   0  0  0  0  0  0  0  0  0  0  0  0
    6.2889   -1.3081    2.3766 H   0  0  0  0  0  0  0  0  0  0  0  0
    5.0897   -0.4924   -0.2573 H   0  0  0  0  0  0  0  0  0  0  0  0
    6.7370   -0.6251    0.1294 H   0  0  0  0  0  0  0  0  0  0  0  0
    7.0089   -2.6002   -0.9962 H   0  0  0  0  0  0  0  0  0  0  0  0
    5.4138   -1.3055   -2.4831 H   0  0  0  0  0  0  0  0  0  0  0  0
    5.1296   -4.3471   -2.7056 H   0  0  0  0  0  0  0  0  0  0  0  0
    6.4401   -3.3772   -3.3227 H   0  0  0  0  0  0  0  0  0  0  0  0
    4.8169   -3.1822   -3.9770 H   0  0  0  0  0  0  0  0  0  0  0  0
    3.3238   -1.0178   -1.6306 H   0  0  0  0  0  0  0  0  0  0  0  0
    2.9611   -2.5340   -2.3810 H   0  0  0  0  0  0  0  0  0  0  0  0
    3.6766   -4.4010   -1.1311 H   0  0  0  0  0  0  0  0  0  0  0  0
    2.0432   -6.2075    1.3826 H   0  0  0  0  0  0  0  0  0  0  0  0
    2.5721   -6.2591   -0.2966 H   0  0  0  0  0  0  0  0  0  0  0  0
    1.4381   -5.0291    0.1993 H   0  0  0  0  0  0  0  0  0  0  0  0
    4.5314   -6.4010    1.3787 H   0  0  0  0  0  0  0  0  0  0  0  0
    7.2152   -4.5254    1.1105 H   0  0  0  0  0  0  0  0  0  0  0  0
    6.9181   -3.0516    1.6671 H   0  0  0  0  0  0  0  0  0  0  0  0
    6.2086   -5.1502    4.3006 H   0  0  0  0  0  0  0  0  0  0  0  0
    2.8211   -0.6344    1.8860 H   0  0  0  0  0  0  0  0  0  0  0  0
    3.5201   -0.6320    3.4973 H   0  0  0  0  0  0  0  0  0  0  0  0
    3.8947   -2.5020    1.3041 H   0  0  0  0  0  0  0  0  0  0  0  0
  1  2  1  0
  1 25  1  0
  1 26  1  0
  1 27  1  0
  2 24  1  0
  2  3  1  0
  2 28  1  6
  3  4  1  0
  3 29  1  0
  3 30  1  0
  4  5  1  0
  4 31  1  0
  4 32  1  0
  5 21  1  0
  5  6  1  0
  5 33  1  1
  6  7  1  0
  6 24  1  0
  6 55  1  6
  7  8  1  0
  7 34  1  0
  7 35  1  0
  8  9  1  0
  8 36  1  0
  8 37  1  0
  9 19  1  0
  9 10  1  0
  9 38  1  6
 10 11  1  0
 10 12  1  0
 10 39  1  6
 11 40  1  0
 11 41  1  0
 11 42  1  0
 12 13  1  0
 12 43  1  0
 12 44  1  0
 13 14  1  0
 14 19  1  0
 14 15  1  0
 14 45  1  6
 15 16  1  0
 15 17  1  0
 16 46  1  0
 16 47  1  0
 16 48  1  0
 17 21  1  0
 17 18  1  0
 17 49  1  1
 19 18  1  6
 19 20  1  0
 20 21  1  0
 20 50  1  0
 20 51  1  0
 21 22  1  1
 22 23  2  0
 22 52  1  0
 24 53  1  0
 24 54  1  0
M  CHG  1   6   1
M  END
>  <i_m_ct_stereo_status>  (27) 
1

>  <s_m_source_file>  (27) 
/var/tmp/pbs.5076255.sched01/tmp8nmo4hef/06hb_edth.sdf

>  <i_m_source_file_index>  (27) 
11

>  <i_lp_mmshare_version>  (27) 
48012

>  <i_f3d_flags>  (27) 
0

>  <s_epik_input>  (27) 
QzEyM1tDQEBIXTRbQ0gyXVtDSDJdTjVbQ0BASF0oW0NIMl1bQ0gyXVtDQEBIXShbQ0gzXSlbQ0gyXTUpW0NAQF0oW0NIMl0zKShbQ0hdPU8pW0NASF0oTzIpTihbQ0gzXSlbQ0BIXTFPW0NIMl1bQ0BASF00W0NIM10=

>  <s_epik_cmdline>  (27) 
J2VwaWtfcHl0aG9uJywgJy1waHQnLCAnMi4wJywgJy1waCcsICc3LjAnLCAnLXRuJywgJzgnLCAnLW1hJywgJzIwMCcsICctaW1hZScsICc8aW5maWxlLm1hZT4nLCAnLW9tYWUnLCAnPG91dGZpbGUubWFlPic=

>  <r_lp_tautomer_probability>  (27) 
1

>  <r_epik_Ionization_Penalty>  (27) 
0.00561432

>  <r_epik_Ionization_Penalty_Charging>  (27) 
0.0055872

>  <r_epik_Ionization_Penalty_Neutral>  (27) 
2.71219e-05

>  <r_epik_State_Penalty>  (27) 
-0

>  <r_epik_Charging_Adjusted_Penalty>  (27) 
0.0055872

>  <i_epik_Tot_Q>  (27) 
1

>  <i_epik_Tot_abs_Q>  (27) 
1

>  <s_epik_Chemistry_Notes>  (27) 
This compound contains an acetal/aminal-like group ( X-CH(R)-Y where X, Y are N, S, or O) that may be acid/base labile, releasing an aldehyde.

>  <s_lp_Force_Field>  (27) 
OPLS3e

>  <r_lp_Energy>  (27) 
133.01

>  <b_lp_Chiralities_Consistent>  (27) 
1

>  <s_lp_Variant>  (27) 
8:0-1

>  <s_i_glide_gridfile>  (27) 
pfpi4k_grid

>  <i_i_glide_lignum>  (27) 
11

>  <i_i_glide_rotatable_bonds>  (27) 
1

>  <r_i_docking_score>  (27) 
-2.96573

>  <r_i_glide_ligand_efficiency>  (27) 
-0.123572

>  <r_i_glide_ligand_efficiency_sa>  (27) 
-0.356444

>  <r_i_glide_ligand_efficiency_ln>  (27) 
-0.709836

>  <r_i_glide_gscore>  (27) 
-2.96573

>  <r_i_glide_lipo>  (27) 
-0.598327

>  <r_i_glide_hbond>  (27) 
0

>  <r_i_glide_metal>  (27) 
-0

>  <r_i_glide_rewards>  (27) 
-1.20106

>  <r_i_glide_evdw>  (27) 
-19.8762

>  <r_i_glide_ecoul>  (27) 
-1.12747

>  <r_i_glide_erotb>  (27) 
0

>  <r_i_glide_esite>  (27) 
-0.0034154

>  <r_i_glide_emodel>  (27) 
-24.3006

>  <r_i_glide_energy>  (27) 
-21.0037

>  <r_i_glide_einternal>  (27) 
0.00205243

>  <r_i_glide_intrahb_reward>  (27) 
-0

>  <i_i_glide_confnum>  (27) 
1

>  <i_i_glide_posenum>  (27) 
4

>  <r_i_glide_eff_state_penalty>  (27) 
0

>  <ligand_id>  (27) 
8

>  <original_smiles>  (27) 
CC1CCC2N(CCC3C(C)COC4N(C)C5OC34CC25C=O)C1

>  <smiles>  (27) 
[H]C(=O)C12C3([H])OC4(C([H])(OC([H])([H])C([H])(C([H])([H])[H])C4([H])C([H])([H])C([H])([H])[N+]4([H])C([H])([H])C([H])(C([H])([H])[H])C([H])([H])C([H])([H])C14[H])N3C([H])([H])[H])C2([H])[H]

$$$$
8:0:2
     RDKit          3D

 55 59  0  0  1  0  0  0  0  0999 V2000
    5.1066    0.9603    5.4063 C   0  0  0  0  0  0  0  0  0  0  0  0
    4.0650    2.0776    5.5931 C   0  0  2  0  0  0  0  0  0  0  0  0
    4.6231    3.2239    6.4309 C   0  0  0  0  0  0  0  0  0  0  0  0
    3.6224    4.3744    6.4258 C   0  0  0  0  0  0  0  0  0  0  0  0
    2.1433    4.0002    6.7172 C   0  0  2  0  0  0  0  0  0  0  0  0
    1.7088    2.5850    6.3293 N   0  0  2  0  0  0  0  0  0  0  0  0
    0.5243    2.0118    7.0722 C   0  0  0  0  0  0  0  0  0  0  0  0
   -0.8279    1.8039    6.2775 C   0  0  0  0  0  0  0  0  0  0  0  0
   -1.4843    2.8620    5.2689 C   0  0  2  0  0  0  0  0  0  0  0  0
   -1.7966    2.1313    3.9382 C   0  0  1  0  0  0  0  0  0  0  0  0
   -2.6251    3.0308    2.9971 C   0  0  0  0  0  0  0  0  0  0  0  0
   -0.4657    1.5768    3.3131 C   0  0  0  0  0  0  0  0  0  0  0  0
    0.7059    2.2349    3.8421 O   0  0  0  0  0  0  0  0  0  0  0  0
    0.4247    3.5855    3.8580 C   0  0  2  0  0  0  0  0  0  0  0  0
    1.5522    4.4801    3.9625 N   0  0  0  0  0  0  0  0  0  0  0  0
    2.2694    4.8630    2.7170 C   0  0  0  0  0  0  0  0  0  0  0  0
    0.9345    5.5444    4.7709 C   0  0  1  0  0  0  0  0  0  0  0  0
   -0.4932    5.3580    4.5432 O   0  0  0  0  0  0  0  0  0  0  0  0
   -0.5162    4.0340    5.0225 C   0  0  1  0  0  0  0  0  0  0  0  0
   -0.2020    4.6964    6.4144 C   0  0  0  0  0  0  0  0  0  0  0  0
    1.1810    5.1998    6.2856 C   0  0  1  0  0  0  0  0  0  0  0  0
    1.3981    6.4883    7.0970 C   0  0  0  0  0  0  0  0  0  0  0  0
    0.7112    7.4917    6.8914 O   0  0  0  0  0  0  0  0  0  0  0  0
    2.8000    1.5776    6.2868 C   0  0  0  0  0  0  0  0  0  0  0  0
    5.4354    0.5447    6.3615 H   0  0  0  0  0  0  0  0  0  0  0  0
    5.9910    1.3416    4.8925 H   0  0  0  0  0  0  0  0  0  0  0  0
    4.7080    0.1455    4.7996 H   0  0  0  0  0  0  0  0  0  0  0  0
    3.8062    2.4499    4.6002 H   0  0  0  0  0  0  0  0  0  0  0  0
    4.8177    2.8874    7.4544 H   0  0  0  0  0  0  0  0  0  0  0  0
    5.5775    3.5690    6.0234 H   0  0  0  0  0  0  0  0  0  0  0  0
    3.9584    5.1189    7.1534 H   0  0  0  0  0  0  0  0  0  0  0  0
    3.6863    4.8607    5.4538 H   0  0  0  0  0  0  0  0  0  0  0  0
    2.1071    3.9727    7.8061 H   0  0  0  0  0  0  0  0  0  0  0  0
    0.7825    1.0200    7.4354 H   0  0  0  0  0  0  0  0  0  0  0  0
    0.3610    2.5020    8.0345 H   0  0  0  0  0  0  0  0  0  0  0  0
   -0.7007    0.8529    5.7589 H   0  0  0  0  0  0  0  0  0  0  0  0
   -1.5924    1.5622    7.0164 H   0  0  0  0  0  0  0  0  0  0  0  0
   -2.4017    3.2465    5.7131 H   0  0  0  0  0  0  0  0  0  0  0  0
   -2.4299    1.2737    4.1552 H   0  0  0  0  0  0  0  0  0  0  0  0
   -2.1095    3.9480    2.7172 H   0  0  0  0  0  0  0  0  0  0  0  0
   -3.5594    3.3237    3.4752 H   0  0  0  0  0  0  0  0  0  0  0  0
   -2.8830    2.5092    2.0798 H   0  0  0  0  0  0  0  0  0  0  0  0
   -0.3740    0.5068    3.5090 H   0  0  0  0  0  0  0  0  0  0  0  0
   -0.4999    1.6659    2.2254 H   0  0  0  0  0  0  0  0  0  0  0  0
    0.0333    3.8602    2.8782 H   0  0  0  0  0  0  0  0  0  0  0  0
    3.1089    5.5327    2.9086 H   0  0  0  0  0  0  0  0  0  0  0  0
    1.5702    5.4018    2.0780 H   0  0  0  0  0  0  0  0  0  0  0  0
    2.6194    4.0004    2.1485 H   0  0  0  0  0  0  0  0  0  0  0  0
    1.3490    6.4961    4.4056 H   0  0  0  0  0  0  0  0  0  0  0  0
   -0.9032    5.5088    6.6031 H   0  0  0  0  0  0  0  0  0  0  0  0
   -0.4335    4.1687    7.3243 H   0  0  0  0  0  0  0  0  0  0  0  0
    2.1778    6.4649    7.8568 H   0  0  0  0  0  0  0  0  0  0  0  0
    2.4247    0.7104    5.7531 H   0  0  0  0  0  0  0  0  0  0  0  0
    3.0525    1.2470    7.2954 H   0  0  0  0  0  0  0  0  0  0  0  0
    1.4149    2.6586    5.3560 H   0  0  0  0  0  0  0  0  0  0  0  0
  1  2  1  0
  1 25  1  0
  1 26  1  0
  1 27  1  0
  2 24  1  0
  2  3  1  0
  2 28  1  6
  3  4  1  0
  3 29  1  0
  3 30  1  0
  4  5  1  0
  4 31  1  0
  4 32  1  0
  5 21  1  0
  5  6  1  0
  5 33  1  1
  6  7  1  0
  6 24  1  0
  6 55  1  6
  7  8  1  0
  7 34  1  0
  7 35  1  0
  8  9  1  0
  8 36  1  0
  8 37  1  0
  9 19  1  0
  9 10  1  0
  9 38  1  1
 10 11  1  0
 10 12  1  0
 10 39  1  1
 11 40  1  0
 11 41  1  0
 11 42  1  0
 12 13  1  0
 12 43  1  0
 12 44  1  0
 13 14  1  0
 14 19  1  0
 14 15  1  0
 14 45  1  6
 15 16  1  0
 15 17  1  0
 16 46  1  0
 16 47  1  0
 16 48  1  0
 17 21  1  0
 17 18  1  0
 17 49  1  6
 19 18  1  6
 19 20  1  0
 20 21  1  0
 20 50  1  0
 20 51  1  0
 21 22  1  1
 22 23  2  0
 22 52  1  0
 24 53  1  0
 24 54  1  0
M  CHG  1   6   1
M  END
>  <i_m_ct_stereo_status>  (28) 
1

>  <s_m_source_file>  (28) 
/var/tmp/pbs.5076255.sched01/tmp8nmo4hef/06hb_edth.sdf

>  <i_m_source_file_index>  (28) 
11

>  <i_lp_mmshare_version>  (28) 
48012

>  <i_f3d_flags>  (28) 
0

>  <s_epik_input>  (28) 
QzEyM1tDQEBIXTRbQ0gyXVtDSDJdTjVbQ0BASF0oW0NIMl1bQ0gyXVtDQEBIXShbQ0gzXSlbQ0gyXTUpW0NAQF0oW0NIMl0zKShbQ0hdPU8pW0NASF0oTzIpTihbQ0gzXSlbQ0BIXTFPW0NIMl1bQ0BASF00W0NIM10=

>  <s_epik_cmdline>  (28) 
J2VwaWtfcHl0aG9uJywgJy1waHQnLCAnMi4wJywgJy1waCcsICc3LjAnLCAnLXRuJywgJzgnLCAnLW1hJywgJzIwMCcsICctaW1hZScsICc8aW5maWxlLm1hZT4nLCAnLW9tYWUnLCAnPG91dGZpbGUubWFlPic=

>  <r_lp_tautomer_probability>  (28) 
1

>  <r_epik_Ionization_Penalty>  (28) 
0.00561432

>  <r_epik_Ionization_Penalty_Charging>  (28) 
0.0055872

>  <r_epik_Ionization_Penalty_Neutral>  (28) 
2.71219e-05

>  <r_epik_State_Penalty>  (28) 
-0

>  <r_epik_Charging_Adjusted_Penalty>  (28) 
0.0055872

>  <i_epik_Tot_Q>  (28) 
1

>  <i_epik_Tot_abs_Q>  (28) 
1

>  <s_epik_Chemistry_Notes>  (28) 
This compound contains an acetal/aminal-like group ( X-CH(R)-Y where X, Y are N, S, or O) that may be acid/base labile, releasing an aldehyde.

>  <s_lp_Force_Field>  (28) 
OPLS3e

>  <r_lp_Energy>  (28) 
133.01

>  <b_lp_Chiralities_Consistent>  (28) 
1

>  <s_lp_Variant>  (28) 
8:0-1

>  <s_i_glide_gridfile>  (28) 
pfpi4k_grid

>  <i_i_glide_lignum>  (28) 
11

>  <i_i_glide_rotatable_bonds>  (28) 
1

>  <r_i_docking_score>  (28) 
-2.57501

>  <r_i_glide_ligand_efficiency>  (28) 
-0.107292

>  <r_i_glide_ligand_efficiency_sa>  (28) 
-0.309484

>  <r_i_glide_ligand_efficiency_ln>  (28) 
-0.616318

>  <r_i_glide_gscore>  (28) 
-2.57501

>  <r_i_glide_lipo>  (28) 
-0.0376806

>  <r_i_glide_hbond>  (28) 
-0.0237632

>  <r_i_glide_metal>  (28) 
-0

>  <r_i_glide_rewards>  (28) 
-1.12186

>  <r_i_glide_evdw>  (28) 
-15.6144

>  <r_i_glide_ecoul>  (28) 
-3.40174

>  <r_i_glide_erotb>  (28) 
0

>  <r_i_glide_esite>  (28) 
-0.100725

>  <r_i_glide_emodel>  (28) 
-21.7538

>  <r_i_glide_energy>  (28) 
-19.0162

>  <r_i_glide_einternal>  (28) 
0.0528626

>  <r_i_glide_intrahb_reward>  (28) 
-0

>  <i_i_glide_confnum>  (28) 
1

>  <i_i_glide_posenum>  (28) 
33

>  <r_i_glide_eff_state_penalty>  (28) 
0

>  <ligand_id>  (28) 
8

>  <original_smiles>  (28) 
CC1CCC2N(CCC3C(C)COC4N(C)C5OC34CC25C=O)C1

>  <smiles>  (28) 
[H]C(=O)C12C3([H])OC4(C([H])(OC([H])([H])C([H])(C([H])([H])[H])C4([H])C([H])([H])C([H])([H])[N+]4([H])C([H])([H])C([H])(C([H])([H])[H])C([H])([H])C([H])([H])C14[H])N3C([H])([H])[H])C2([H])[H]

$$$$
9:0:0
     RDKit          3D

 30 32  0  0  1  0  0  0  0  0999 V2000
   -0.5762    1.8304    2.3328 C   0  0  0  0  0  0  0  0  0  0  0  0
    0.0811    0.6291    2.8159 N   0  0  0  0  0  0  0  0  0  0  0  0
    0.9887   -0.1148    2.1532 C   0  0  0  0  0  0  0  0  0  0  0  0
    1.4697   -1.1912    2.7751 N   0  0  0  0  0  0  0  0  0  0  0  0
    0.8073   -1.1331    3.9851 C   0  0  0  0  0  0  0  0  0  0  0  0
    0.9538   -1.9967    4.9929 N   0  0  0  0  0  0  0  0  0  0  0  0
    0.2078   -1.6962    6.0617 C   0  0  0  0  0  0  0  0  0  0  0  0
   -0.6570   -0.6878    6.2318 N   0  0  0  0  0  0  0  0  0  0  0  0
   -0.8265    0.1849    5.2124 C   0  0  0  0  0  0  0  0  0  0  0  0
   -1.7299    1.3409    5.3648 C   0  0  0  0  0  0  0  0  0  0  0  0
   -2.0117    2.0140    6.4985 C   0  0  0  0  0  0  0  0  0  0  0  0
   -1.3955    1.7853    7.8625 C   0  0  0  0  0  0  0  0  0  0  0  0
   -1.8417    2.9609    8.7302 C   0  0  0  0  0  0  0  0  0  0  0  0
   -3.1179    3.4923    8.0711 C   0  0  0  0  0  0  0  0  0  0  0  0
   -2.9743    3.1755    6.5776 C   0  0  0  0  0  0  0  0  0  0  0  0
   -0.0733   -0.0115    4.0407 C   0  0  0  0  0  0  0  0  0  0  0  0
   -0.1463    2.1321    1.3791 H   0  0  0  0  0  0  0  0  0  0  0  0
   -0.4389    2.6414    3.0455 H   0  0  0  0  0  0  0  0  0  0  0  0
   -1.6374    1.6387    2.1916 H   0  0  0  0  0  0  0  0  0  0  0  0
    1.2928    0.1444    1.1523 H   0  0  0  0  0  0  0  0  0  0  0  0
    0.3085   -2.3675    6.9010 H   0  0  0  0  0  0  0  0  0  0  0  0
   -2.2472    1.6324    4.4616 H   0  0  0  0  0  0  0  0  0  0  0  0
   -1.7886    0.8641    8.2772 H   0  0  0  0  0  0  0  0  0  0  0  0
   -0.3096    1.7086    7.8052 H   0  0  0  0  0  0  0  0  0  0  0  0
   -2.0027    2.6685    9.7691 H   0  0  0  0  0  0  0  0  0  0  0  0
   -1.0715    3.7319    8.7172 H   0  0  0  0  0  0  0  0  0  0  0  0
   -3.9854    2.9668    8.4715 H   0  0  0  0  0  0  0  0  0  0  0  0
   -3.2631    4.5568    8.2601 H   0  0  0  0  0  0  0  0  0  0  0  0
   -2.5330    4.0159    6.0456 H   0  0  0  0  0  0  0  0  0  0  0  0
   -3.9307    2.9439    6.1099 H   0  0  0  0  0  0  0  0  0  0  0  0
  1  2  1  0
  1 17  1  0
  1 18  1  0
  1 19  1  0
  2 16  1  0
  2  3  1  0
  3  4  2  0
  3 20  1  0
  4  5  1  0
  5 16  2  0
  5  6  1  0
  6  7  2  0
  7  8  1  0
  7 21  1  0
  8  9  2  0
  9 10  1  0
  9 16  1  0
 10 11  2  3
 10 22  1  0
 11 15  1  0
 11 12  1  0
 12 13  1  0
 12 23  1  0
 12 24  1  0
 13 14  1  0
 13 25  1  0
 13 26  1  0
 14 15  1  0
 14 27  1  0
 14 28  1  0
 15 29  1  0
 15 30  1  0
M  END
>  <i_m_ct_stereo_status>  (29) 
1

>  <s_m_source_file>  (29) 
/var/tmp/pbs.5076255.sched01/tmp8nmo4hef/06hb_edth.sdf

>  <i_m_source_file_index>  (29) 
12

>  <i_lp_mmshare_version>  (29) 
48012

>  <i_f3d_flags>  (29) 
0

>  <s_epik_input>  (29) 
bjFbY0hdbihbQ0gzXSljKGMxMiljKG5bY0hdbjIpW0NIXT1DM1tDSDJdW0NIMl1bQ0gyXVtDSDJdMw==

>  <s_epik_cmdline>  (29) 
J2VwaWtfcHl0aG9uJywgJy1waHQnLCAnMi4wJywgJy1waCcsICc3LjAnLCAnLXRuJywgJzgnLCAnLW1hJywgJzIwMCcsICctaW1hZScsICc8aW5maWxlLm1hZT4nLCAnLW9tYWUnLCAnPG91dGZpbGUubWFlPic=

>  <r_epik_Ionization_Penalty>  (29) 
0.00327524

>  <r_epik_Ionization_Penalty_Charging>  (29) 
0.00179344

>  <r_epik_Ionization_Penalty_Neutral>  (29) 
0.0014818

>  <r_epik_State_Penalty>  (29) 
0.0022015

>  <r_epik_Charging_Adjusted_Penalty>  (29) 
0.00399494

>  <i_epik_Tot_Q>  (29) 
0

>  <i_epik_Tot_abs_Q>  (29) 
0

>  <s_lp_Force_Field>  (29) 
OPLS3e

>  <r_lp_Energy>  (29) 
21.6699

>  <b_lp_Chiralities_Consistent>  (29) 
1

>  <s_lp_Variant>  (29) 
9:0-1

>  <s_i_glide_gridfile>  (29) 
pfpi4k_grid

>  <i_i_glide_lignum>  (29) 
12

>  <i_i_glide_rotatable_bonds>  (29) 
1

>  <r_i_docking_score>  (29) 
-3.17522

>  <r_i_glide_ligand_efficiency>  (29) 
-0.198451

>  <r_i_glide_ligand_efficiency_sa>  (29) 
-0.500066

>  <r_i_glide_ligand_efficiency_ln>  (29) 
-0.841655

>  <r_i_glide_gscore>  (29) 
-3.17522

>  <r_i_glide_lipo>  (29) 
-0.240824

>  <r_i_glide_hbond>  (29) 
0

>  <r_i_glide_metal>  (29) 
-0

>  <r_i_glide_rewards>  (29) 
-1.94818

>  <r_i_glide_evdw>  (29) 
-16.4079

>  <r_i_glide_ecoul>  (29) 
-2.63722

>  <r_i_glide_erotb>  (29) 
0.363843

>  <r_i_glide_esite>  (29) 
-0.134075

>  <r_i_glide_emodel>  (29) 
-23.1483

>  <r_i_glide_energy>  (29) 
-19.0451

>  <r_i_glide_einternal>  (29) 
1.09527

>  <r_i_glide_intrahb_reward>  (29) 
-0

>  <i_i_glide_confnum>  (29) 
5

>  <i_i_glide_posenum>  (29) 
39

>  <r_i_glide_eff_state_penalty>  (29) 
0

>  <ligand_id>  (29) 
9

>  <original_smiles>  (29) 
Cn1cnc2ncnc(C=C3CCCC3)c21

>  <smiles>  (29) 
[H]C(=C1C([H])([H])C([H])([H])C([H])([H])C1([H])[H])c1nc([H])nc2nc([H])n(C([H])([H])[H])c12

$$$$
9:0:1
     RDKit          3D

 30 32  0  0  1  0  0  0  0  0999 V2000
    0.3429    3.9395    3.8423 C   0  0  0  0  0  0  0  0  0  0  0  0
   -0.0132    2.5435    3.6579 N   0  0  0  0  0  0  0  0  0  0  0  0
    0.2022    1.8065    2.5477 C   0  0  0  0  0  0  0  0  0  0  0  0
   -0.1924    0.5376    2.5721 N   0  0  0  0  0  0  0  0  0  0  0  0
   -0.7399    0.4413    3.8313 C   0  0  0  0  0  0  0  0  0  0  0  0
   -1.2980   -0.6591    4.3448 N   0  0  0  0  0  0  0  0  0  0  0  0
   -1.7659   -0.4908    5.5792 C   0  0  0  0  0  0  0  0  0  0  0  0
   -1.7454    0.5986    6.3468 N   0  0  0  0  0  0  0  0  0  0  0  0
   -1.1738    1.7249    5.8518 C   0  0  0  0  0  0  0  0  0  0  0  0
   -1.1555    2.9702    6.6522 C   0  0  0  0  0  0  0  0  0  0  0  0
   -1.8942    3.2764    7.7375 C   0  0  0  0  0  0  0  0  0  0  0  0
   -2.9667    2.4181    8.3601 C   0  0  0  0  0  0  0  0  0  0  0  0
   -3.3539    3.1023    9.6632 C   0  0  0  0  0  0  0  0  0  0  0  0
   -2.9589    4.5679    9.4765 C   0  0  0  0  0  0  0  0  0  0  0  0
   -1.7727    4.5672    8.5113 C   0  0  0  0  0  0  0  0  0  0  0  0
   -0.6478    1.6751    4.5441 C   0  0  0  0  0  0  0  0  0  0  0  0
    0.9352    4.2868    2.9964 H   0  0  0  0  0  0  0  0  0  0  0  0
    0.9475    4.0542    4.7381 H   0  0  0  0  0  0  0  0  0  0  0  0
   -0.5600    4.5430    3.9141 H   0  0  0  0  0  0  0  0  0  0  0  0
    0.6773    2.2187    1.6729 H   0  0  0  0  0  0  0  0  0  0  0  0
   -2.2245   -1.3600    6.0254 H   0  0  0  0  0  0  0  0  0  0  0  0
   -0.4252    3.7059    6.3523 H   0  0  0  0  0  0  0  0  0  0  0  0
   -3.8042    2.3815    7.6615 H   0  0  0  0  0  0  0  0  0  0  0  0
   -2.5892    1.4211    8.5773 H   0  0  0  0  0  0  0  0  0  0  0  0
   -4.4091    2.9638    9.8995 H   0  0  0  0  0  0  0  0  0  0  0  0
   -2.7732    2.6670   10.4781 H   0  0  0  0  0  0  0  0  0  0  0  0
   -3.7849    5.0987    9.0116 H   0  0  0  0  0  0  0  0  0  0  0  0
   -2.7230    5.0563   10.4204 H   0  0  0  0  0  0  0  0  0  0  0  0
   -0.8287    4.5567    9.0564 H   0  0  0  0  0  0  0  0  0  0  0  0
   -1.7792    5.4322    7.8483 H   0  0  0  0  0  0  0  0  0  0  0  0
  1  2  1  0
  1 17  1  0
  1 18  1  0
  1 19  1  0
  2 16  1  0
  2  3  1  0
  3  4  2  0
  3 20  1  0
  4  5  1  0
  5 16  2  0
  5  6  1  0
  6  7  2  0
  7  8  1  0
  7 21  1  0
  8  9  2  0
  9 10  1  0
  9 16  1  0
 10 11  2  3
 10 22  1  0
 11 15  1  0
 11 12  1  0
 12 13  1  0
 12 23  1  0
 12 24  1  0
 13 14  1  0
 13 25  1  0
 13 26  1  0
 14 15  1  0
 14 27  1  0
 14 28  1  0
 15 29  1  0
 15 30  1  0
M  END
>  <i_m_ct_stereo_status>  (30) 
1

>  <s_m_source_file>  (30) 
/var/tmp/pbs.5076255.sched01/tmp8nmo4hef/06hb_edth.sdf

>  <i_m_source_file_index>  (30) 
12

>  <i_lp_mmshare_version>  (30) 
48012

>  <i_f3d_flags>  (30) 
0

>  <s_epik_input>  (30) 
bjFbY0hdbihbQ0gzXSljKGMxMiljKG5bY0hdbjIpW0NIXT1DM1tDSDJdW0NIMl1bQ0gyXVtDSDJdMw==

>  <s_epik_cmdline>  (30) 
J2VwaWtfcHl0aG9uJywgJy1waHQnLCAnMi4wJywgJy1waCcsICc3LjAnLCAnLXRuJywgJzgnLCAnLW1hJywgJzIwMCcsICctaW1hZScsICc8aW5maWxlLm1hZT4nLCAnLW9tYWUnLCAnPG91dGZpbGUubWFlPic=

>  <r_epik_Ionization_Penalty>  (30) 
0.00327524

>  <r_epik_Ionization_Penalty_Charging>  (30) 
0.00179344

>  <r_epik_Ionization_Penalty_Neutral>  (30) 
0.0014818

>  <r_epik_State_Penalty>  (30) 
0.0022015

>  <r_epik_Charging_Adjusted_Penalty>  (30) 
0.00399494

>  <i_epik_Tot_Q>  (30) 
0

>  <i_epik_Tot_abs_Q>  (30) 
0

>  <s_lp_Force_Field>  (30) 
OPLS3e

>  <r_lp_Energy>  (30) 
21.6699

>  <b_lp_Chiralities_Consistent>  (30) 
1

>  <s_lp_Variant>  (30) 
9:0-1

>  <s_i_glide_gridfile>  (30) 
pfpi4k_grid

>  <i_i_glide_lignum>  (30) 
12

>  <i_i_glide_rotatable_bonds>  (30) 
1

>  <r_i_docking_score>  (30) 
-3.15383

>  <r_i_glide_ligand_efficiency>  (30) 
-0.197114

>  <r_i_glide_ligand_efficiency_sa>  (30) 
-0.496697

>  <r_i_glide_ligand_efficiency_ln>  (30) 
-0.835985

>  <r_i_glide_gscore>  (30) 
-3.15383

>  <r_i_glide_lipo>  (30) 
-0.159129

>  <r_i_glide_hbond>  (30) 
-0.137978

>  <r_i_glide_metal>  (30) 
-0

>  <r_i_glide_rewards>  (30) 
-1.94818

>  <r_i_glide_evdw>  (30) 
-17.5833

>  <r_i_glide_ecoul>  (30) 
-1.12815

>  <r_i_glide_erotb>  (30) 
0.363843

>  <r_i_glide_esite>  (30) 
-0.223994

>  <r_i_glide_emodel>  (30) 
-23.1189

>  <r_i_glide_energy>  (30) 
-18.7114

>  <r_i_glide_einternal>  (30) 
0.251037

>  <r_i_glide_intrahb_reward>  (30) 
-0

>  <i_i_glide_confnum>  (30) 
4

>  <i_i_glide_posenum>  (30) 
28

>  <r_i_glide_eff_state_penalty>  (30) 
0

>  <ligand_id>  (30) 
9

>  <original_smiles>  (30) 
Cn1cnc2ncnc(C=C3CCCC3)c21

>  <smiles>  (30) 
[H]C(=C1C([H])([H])C([H])([H])C([H])([H])C1([H])[H])c1nc([H])nc2nc([H])n(C([H])([H])[H])c12

$$$$
9:0:2
     RDKit          3D

 30 32  0  0  1  0  0  0  0  0999 V2000
   -1.8430    3.1971    3.3944 C   0  0  0  0  0  0  0  0  0  0  0  0
   -1.0816    1.9628    3.3519 N   0  0  0  0  0  0  0  0  0  0  0  0
   -0.3736    1.4819    2.3083 C   0  0  0  0  0  0  0  0  0  0  0  0
    0.2693    0.3289    2.4847 N   0  0  0  0  0  0  0  0  0  0  0  0
   -0.0632    0.0204    3.7864 C   0  0  0  0  0  0  0  0  0  0  0  0
    0.3390   -1.0655    4.4538 N   0  0  0  0  0  0  0  0  0  0  0  0
   -0.1193   -1.1175    5.7079 C   0  0  0  0  0  0  0  0  0  0  0  0
   -0.9210   -0.2581    6.3518 N   0  0  0  0  0  0  0  0  0  0  0  0
   -1.3418    0.8398    5.6834 C   0  0  0  0  0  0  0  0  0  0  0  0
   -2.1805    1.8442    6.3621 C   0  0  0  0  0  0  0  0  0  0  0  0
   -2.1399    2.1972    7.6622 C   0  0  0  0  0  0  0  0  0  0  0  0
   -1.1522    1.7064    8.6973 C   0  0  0  0  0  0  0  0  0  0  0  0
   -1.3519    2.6066    9.9183 C   0  0  0  0  0  0  0  0  0  0  0  0
   -2.7724    3.1666    9.7915 C   0  0  0  0  0  0  0  0  0  0  0  0
   -3.0647    3.2142    8.2898 C   0  0  0  0  0  0  0  0  0  0  0  0
   -0.9119    1.0151    4.3560 C   0  0  0  0  0  0  0  0  0  0  0  0
   -1.6694    3.7733    2.4864 H   0  0  0  0  0  0  0  0  0  0  0  0
   -1.5318    3.7912    4.2526 H   0  0  0  0  0  0  0  0  0  0  0  0
   -2.9040    2.9681    3.4719 H   0  0  0  0  0  0  0  0  0  0  0  0
   -0.3250    2.0053    1.3677 H   0  0  0  0  0  0  0  0  0  0  0  0
    0.1990   -1.9779    6.2786 H   0  0  0  0  0  0  0  0  0  0  0  0
   -2.9355    2.3040    5.7429 H   0  0  0  0  0  0  0  0  0  0  0  0
   -1.3836    0.6736    8.9449 H   0  0  0  0  0  0  0  0  0  0  0  0
   -0.1280    1.7495    8.3253 H   0  0  0  0  0  0  0  0  0  0  0  0
   -1.2047    2.0711   10.8573 H   0  0  0  0  0  0  0  0  0  0  0  0
   -0.6327    3.4253    9.8867 H   0  0  0  0  0  0  0  0  0  0  0  0
   -3.4748    2.4906   10.2776 H   0  0  0  0  0  0  0  0  0  0  0  0
   -2.8803    4.1414   10.2683 H   0  0  0  0  0  0  0  0  0  0  0  0
   -2.8215    4.1973    7.8885 H   0  0  0  0  0  0  0  0  0  0  0  0
   -4.1104    2.9964    8.0713 H   0  0  0  0  0  0  0  0  0  0  0  0
  1  2  1  0
  1 17  1  0
  1 18  1  0
  1 19  1  0
  2 16  1  0
  2  3  1  0
  3  4  2  0
  3 20  1  0
  4  5  1  0
  5 16  2  0
  5  6  1  0
  6  7  2  0
  7  8  1  0
  7 21  1  0
  8  9  2  0
  9 10  1  0
  9 16  1  0
 10 11  2  3
 10 22  1  0
 11 15  1  0
 11 12  1  0
 12 13  1  0
 12 23  1  0
 12 24  1  0
 13 14  1  0
 13 25  1  0
 13 26  1  0
 14 15  1  0
 14 27  1  0
 14 28  1  0
 15 29  1  0
 15 30  1  0
M  END
>  <i_m_ct_stereo_status>  (31) 
1

>  <s_m_source_file>  (31) 
/var/tmp/pbs.5076255.sched01/tmp8nmo4hef/06hb_edth.sdf

>  <i_m_source_file_index>  (31) 
12

>  <i_lp_mmshare_version>  (31) 
48012

>  <i_f3d_flags>  (31) 
0

>  <s_epik_input>  (31) 
bjFbY0hdbihbQ0gzXSljKGMxMiljKG5bY0hdbjIpW0NIXT1DM1tDSDJdW0NIMl1bQ0gyXVtDSDJdMw==

>  <s_epik_cmdline>  (31) 
J2VwaWtfcHl0aG9uJywgJy1waHQnLCAnMi4wJywgJy1waCcsICc3LjAnLCAnLXRuJywgJzgnLCAnLW1hJywgJzIwMCcsICctaW1hZScsICc8aW5maWxlLm1hZT4nLCAnLW9tYWUnLCAnPG91dGZpbGUubWFlPic=

>  <r_epik_Ionization_Penalty>  (31) 
0.00327524

>  <r_epik_Ionization_Penalty_Charging>  (31) 
0.00179344

>  <r_epik_Ionization_Penalty_Neutral>  (31) 
0.0014818

>  <r_epik_State_Penalty>  (31) 
0.0022015

>  <r_epik_Charging_Adjusted_Penalty>  (31) 
0.00399494

>  <i_epik_Tot_Q>  (31) 
0

>  <i_epik_Tot_abs_Q>  (31) 
0

>  <s_lp_Force_Field>  (31) 
OPLS3e

>  <r_lp_Energy>  (31) 
21.6699

>  <b_lp_Chiralities_Consistent>  (31) 
1

>  <s_lp_Variant>  (31) 
9:0-1

>  <s_i_glide_gridfile>  (31) 
pfpi4k_grid

>  <i_i_glide_lignum>  (31) 
12

>  <i_i_glide_rotatable_bonds>  (31) 
1

>  <r_i_docking_score>  (31) 
-3.00382

>  <r_i_glide_ligand_efficiency>  (31) 
-0.187739

>  <r_i_glide_ligand_efficiency_sa>  (31) 
-0.473072

>  <r_i_glide_ligand_efficiency_ln>  (31) 
-0.796223

>  <r_i_glide_gscore>  (31) 
-3.00382

>  <r_i_glide_lipo>  (31) 
-0.090781

>  <r_i_glide_hbond>  (31) 
-0.0534448

>  <r_i_glide_metal>  (31) 
-0

>  <r_i_glide_rewards>  (31) 
-1.94818

>  <r_i_glide_evdw>  (31) 
-18.1539

>  <r_i_glide_ecoul>  (31) 
-1.46732

>  <r_i_glide_erotb>  (31) 
0.363843

>  <r_i_glide_esite>  (31) 
-0.147461

>  <r_i_glide_emodel>  (31) 
-23.3596

>  <r_i_glide_energy>  (31) 
-19.6212

>  <r_i_glide_einternal>  (31) 
1.30692

>  <r_i_glide_intrahb_reward>  (31) 
-0

>  <i_i_glide_confnum>  (31) 
5

>  <i_i_glide_posenum>  (31) 
1

>  <r_i_glide_eff_state_penalty>  (31) 
0

>  <ligand_id>  (31) 
9

>  <original_smiles>  (31) 
Cn1cnc2ncnc(C=C3CCCC3)c21

>  <smiles>  (31) 
[H]C(=C1C([H])([H])C([H])([H])C([H])([H])C1([H])[H])c1nc([H])nc2nc([H])n(C([H])([H])[H])c12

$$$$
10:0:0
     RDKit          3D

 39 42  0  0  1  0  0  0  0  0999 V2000
    5.1100   -2.1639    3.0788 C   0  0  0  0  0  0  0  0  0  0  0  0
    4.5905   -3.3647    2.2491 C   0  0  2  0  0  0  0  0  0  0  0  0
    5.1496   -4.7090    2.8011 C   0  0  0  0  0  0  0  0  0  0  0  0
    5.1312   -4.9302    4.0112 O   0  0  0  0  0  0  0  0  0  0  0  0
    5.7386   -5.7630    1.8514 C   0  0  0  0  0  0  0  0  0  0  0  0
    7.0951   -5.3662    1.2259 C   0  0  0  0  0  0  0  0  0  0  0  0
    7.0643   -3.9112    0.7221 C   0  0  1  0  0  0  0  0  0  0  0  0
    8.2837   -3.2625    0.0695 C   0  0  0  0  0  0  0  0  0  0  0  0
    7.6877   -2.1006   -0.5202 O   0  0  0  0  0  0  0  0  0  0  0  0
    6.5694   -2.6142   -1.1395 C   0  0  2  0  0  0  0  0  0  0  0  0
    5.7131   -1.7288   -1.7466 O   0  0  0  0  0  0  0  0  0  0  0  0
    4.5219   -2.4102   -2.1494 C   0  0  2  0  0  0  0  0  0  0  0  0
    4.2088   -1.9856   -3.5856 C   0  0  0  0  0  0  0  0  0  0  0  0
    3.4253   -1.9286   -1.1937 C   0  0  0  0  0  0  0  0  0  0  0  0
    3.9064   -1.8538    0.2563 C   0  0  0  0  0  0  0  0  0  0  0  0
    4.5974   -3.1492    0.6889 C   0  0  1  0  0  0  0  0  0  0  0  0
    5.8652   -3.5639   -0.1576 C   0  0  2  0  0  0  0  0  0  0  0  0
    5.3736   -4.5395   -1.0517 O   0  0  0  0  0  0  0  0  0  0  0  0
    4.6148   -3.8616   -2.2193 O   0  0  0  0  0  0  0  0  0  0  0  0
    4.8380   -2.2720    4.1297 H   0  0  0  0  0  0  0  0  0  0  0  0
    4.6893   -1.2136    2.7466 H   0  0  0  0  0  0  0  0  0  0  0  0
    6.1931   -2.0519    3.0489 H   0  0  0  0  0  0  0  0  0  0  0  0
    3.5316   -3.4212    2.5118 H   0  0  0  0  0  0  0  0  0  0  0  0
    5.8668   -6.6944    2.4025 H   0  0  0  0  0  0  0  0  0  0  0  0
    5.0060   -5.9706    1.0706 H   0  0  0  0  0  0  0  0  0  0  0  0
    7.8974   -5.4768    1.9543 H   0  0  0  0  0  0  0  0  0  0  0  0
    7.3315   -6.0429    0.4042 H   0  0  0  0  0  0  0  0  0  0  0  0
    7.0232   -3.2918    1.6096 H   0  0  0  0  0  0  0  0  0  0  0  0
    9.0325   -2.9615    0.8078 H   0  0  0  0  0  0  0  0  0  0  0  0
    8.7363   -3.9154   -0.6827 H   0  0  0  0  0  0  0  0  0  0  0  0
    6.9707   -3.1945   -1.9783 H   0  0  0  0  0  0  0  0  0  0  0  0
    4.9741   -2.3628   -4.2694 H   0  0  0  0  0  0  0  0  0  0  0  0
    4.1670   -0.8988   -3.6786 H   0  0  0  0  0  0  0  0  0  0  0  0
    3.2467   -2.3832   -3.9115 H   0  0  0  0  0  0  0  0  0  0  0  0
    3.1197   -0.9222   -1.4840 H   0  0  0  0  0  0  0  0  0  0  0  0
    2.5419   -2.5621   -1.2924 H   0  0  0  0  0  0  0  0  0  0  0  0
    4.5753   -1.0016    0.3999 H   0  0  0  0  0  0  0  0  0  0  0  0
    3.0405   -1.6634    0.8889 H   0  0  0  0  0  0  0  0  0  0  0  0
    3.8573   -3.8984    0.4087 H   0  0  0  0  0  0  0  0  0  0  0  0
  1  2  1  0
  1 20  1  0
  1 21  1  0
  1 22  1  0
  2 16  1  0
  2  3  1  0
  2 23  1  1
  3  4  2  0
  3  5  1  0
  5  6  1  0
  5 24  1  0
  5 25  1  0
  6  7  1  0
  6 26  1  0
  6 27  1  0
  7 17  1  0
  7  8  1  0
  7 28  1  1
  8  9  1  0
  8 29  1  0
  8 30  1  0
  9 10  1  0
 10 17  1  0
 10 11  1  0
 10 31  1  6
 11 12  1  0
 12 19  1  0
 12 13  1  6
 12 14  1  0
 13 32  1  0
 13 33  1  0
 13 34  1  0
 14 15  1  0
 14 35  1  0
 14 36  1  0
 15 16  1  0
 15 37  1  0
 15 38  1  0
 16 17  1  0
 16 39  1  6
 17 18  1  6
 18 19  1  0
M  END
>  <i_m_ct_stereo_status>  (32) 
1

>  <s_m_source_file>  (32) 
/var/tmp/pbs.5076255.sched01/tmp8nmo4hef/06hb_edth.sdf

>  <i_m_source_file_index>  (32) 
13

>  <i_lp_mmshare_version>  (32) 
48012

>  <i_f3d_flags>  (32) 
0

>  <s_epik_input>  (32) 
W0NAQF0xMjNbQ0BIXTRbQ0gyXVtDSDJdQyg9TylbQ0BASF0oW0NIM10pW0NASF0yW0NIMl1bQ0gyXVtDQF0oW0NIM10pKE9PMylPW0NASF0xT1tDSDJdNA==

>  <s_epik_cmdline>  (32) 
J2VwaWtfcHl0aG9uJywgJy1waHQnLCAnMi4wJywgJy1waCcsICc3LjAnLCAnLXRuJywgJzgnLCAnLW1hJywgJzIwMCcsICctaW1hZScsICc8aW5maWxlLm1hZT4nLCAnLW9tYWUnLCAnPG91dGZpbGUubWFlPic=

>  <r_lp_tautomer_probability>  (32) 
1

>  <r_epik_Ionization_Penalty>  (32) 
7.1252e-13

>  <r_epik_Ionization_Penalty_Charging>  (32) 
0

>  <r_epik_Ionization_Penalty_Neutral>  (32) 
7.1252e-13

>  <r_epik_State_Penalty>  (32) 
-0

>  <r_epik_Charging_Adjusted_Penalty>  (32) 
0

>  <i_epik_Tot_Q>  (32) 
0

>  <i_epik_Tot_abs_Q>  (32) 
0

>  <s_epik_Chemistry_Notes>  (32) 
This compound contains an acetal/aminal-like group ( X-CH(R)-Y where X, Y are N, S, or O) that may be acid/base labile, releasing an aldehyde.

>  <s_lp_Force_Field>  (32) 
OPLS3e

>  <r_lp_Energy>  (32) 
50.2469

>  <b_lp_Chiralities_Consistent>  (32) 
1

>  <s_lp_Variant>  (32) 
10:0-1

>  <s_i_glide_gridfile>  (32) 
pfpi4k_grid

>  <i_i_glide_lignum>  (32) 
13

>  <i_i_glide_rotatable_bonds>  (32) 
0

>  <r_i_docking_score>  (32) 
-4.01651

>  <r_i_glide_ligand_efficiency>  (32) 
-0.211395

>  <r_i_glide_ligand_efficiency_sa>  (32) 
-0.564088

>  <r_i_glide_ligand_efficiency_ln>  (32) 
-1.01827

>  <r_i_glide_gscore>  (32) 
-4.01651

>  <r_i_glide_lipo>  (32) 
-0.835326

>  <r_i_glide_hbond>  (32) 
-0.189919

>  <r_i_glide_metal>  (32) 
-0

>  <r_i_glide_rewards>  (32) 
-1.64933

>  <r_i_glide_evdw>  (32) 
-21.691

>  <r_i_glide_ecoul>  (32) 
-1.53037

>  <r_i_glide_erotb>  (32) 
0

>  <r_i_glide_esite>  (32) 
-0.0278315

>  <r_i_glide_emodel>  (32) 
-29.2662

>  <r_i_glide_energy>  (32) 
-23.2213

>  <r_i_glide_einternal>  (32) 
0

>  <r_i_glide_intrahb_reward>  (32) 
-0

>  <i_i_glide_confnum>  (32) 
2

>  <i_i_glide_posenum>  (32) 
19

>  <r_i_glide_eff_state_penalty>  (32) 
0

>  <ligand_id>  (32) 
10

>  <original_smiles>  (32) 
CC1C(=O)CCC2COC3OC4(C)CCC1C23OO4

>  <smiles>  (32) 
[H]C([H])([H])C12OOC34C([H])(OC([H])([H])C3([H])C([H])([H])C([H])([H])C(=O)C([H])(C([H])([H])[H])C4([H])C([H])([H])C1([H])[H])O2

$$$$
10:0:1
     RDKit          3D

 39 42  0  0  1  0  0  0  0  0999 V2000
    5.5312   -0.8853    2.5598 C   0  0  0  0  0  0  0  0  0  0  0  0
    4.7094   -2.1275    2.1239 C   0  0  2  0  0  0  0  0  0  0  0  0
    5.0111   -3.3456    3.0443 C   0  0  0  0  0  0  0  0  0  0  0  0
    5.0032   -3.2088    4.2677 O   0  0  0  0  0  0  0  0  0  0  0  0
    5.3076   -4.7334    2.4432 C   0  0  0  0  0  0  0  0  0  0  0  0
    6.6636   -4.8416    1.7051 C   0  0  0  0  0  0  0  0  0  0  0  0
    6.9004   -3.6165    0.8080 C   0  0  1  0  0  0  0  0  0  0  0  0
    8.1798   -3.4423   -0.0076 C   0  0  0  0  0  0  0  0  0  0  0  0
    7.7916   -2.3918   -0.9022 O   0  0  0  0  0  0  0  0  0  0  0  0
    6.5493   -2.8166   -1.3444 C   0  0  2  0  0  0  0  0  0  0  0  0
    5.8344   -1.9856   -2.1635 O   0  0  0  0  0  0  0  0  0  0  0  0
    4.5055   -2.4843   -2.3465 C   0  0  2  0  0  0  0  0  0  0  0  0
    4.2037   -2.4578   -3.8476 C   0  0  0  0  0  0  0  0  0  0  0  0
    3.6211   -1.5080   -1.5837 C   0  0  0  0  0  0  0  0  0  0  0  0
    4.2088   -1.1417   -0.2211 C   0  0  0  0  0  0  0  0  0  0  0  0
    4.6469   -2.3796    0.5706 C   0  0  1  0  0  0  0  0  0  0  0  0
    5.7415   -3.2815   -0.1273 C   0  0  2  0  0  0  0  0  0  0  0  0
    5.0289   -4.3554   -0.7006 O   0  0  0  0  0  0  0  0  0  0  0  0
    4.2448   -3.8547   -1.9392 O   0  0  0  0  0  0  0  0  0  0  0  0
    5.3082   -0.6179    3.5942 H   0  0  0  0  0  0  0  0  0  0  0  0
    5.2903   -0.0079    1.9608 H   0  0  0  0  0  0  0  0  0  0  0  0
    6.6104   -1.0242    2.5023 H   0  0  0  0  0  0  0  0  0  0  0  0
    3.6826   -1.8687    2.3961 H   0  0  0  0  0  0  0  0  0  0  0  0
    5.2836   -5.4676    3.2492 H   0  0  0  0  0  0  0  0  0  0  0  0
    4.4879   -4.9956    1.7709 H   0  0  0  0  0  0  0  0  0  0  0  0
    7.4775   -4.9347    2.4236 H   0  0  0  0  0  0  0  0  0  0  0  0
    6.6850   -5.7557    1.1111 H   0  0  0  0  0  0  0  0  0  0  0  0
    7.0366   -2.7776    1.4767 H   0  0  0  0  0  0  0  0  0  0  0  0
    9.0194   -3.1119    0.6062 H   0  0  0  0  0  0  0  0  0  0  0  0
    8.4525   -4.3554   -0.5416 H   0  0  0  0  0  0  0  0  0  0  0  0
    6.7677   -3.6723   -1.9935 H   0  0  0  0  0  0  0  0  0  0  0  0
    4.8328   -3.1940   -4.3470 H   0  0  0  0  0  0  0  0  0  0  0  0
    4.3963   -1.4741   -4.2802 H   0  0  0  0  0  0  0  0  0  0  0  0
    3.1598   -2.7117   -4.0479 H   0  0  0  0  0  0  0  0  0  0  0  0
    3.5198   -0.5984   -2.1685 H   0  0  0  0  0  0  0  0  0  0  0  0
    2.6190   -1.9309   -1.4924 H   0  0  0  0  0  0  0  0  0  0  0  0
    5.0485   -0.4501   -0.3304 H   0  0  0  0  0  0  0  0  0  0  0  0
    3.4493   -0.5974    0.3356 H   0  0  0  0  0  0  0  0  0  0  0  0
    3.7514   -3.0017    0.5291 H   0  0  0  0  0  0  0  0  0  0  0  0
  1  2  1  0
  1 20  1  0
  1 21  1  0
  1 22  1  0
  2 16  1  0
  2  3  1  0
  2 23  1  1
  3  4  2  0
  3  5  1  0
  5  6  1  0
  5 24  1  0
  5 25  1  0
  6  7  1  0
  6 26  1  0
  6 27  1  0
  7 17  1  0
  7  8  1  0
  7 28  1  1
  8  9  1  0
  8 29  1  0
  8 30  1  0
  9 10  1  0
 10 17  1  0
 10 11  1  0
 10 31  1  6
 11 12  1  0
 12 19  1  0
 12 13  1  6
 12 14  1  0
 13 32  1  0
 13 33  1  0
 13 34  1  0
 14 15  1  0
 14 35  1  0
 14 36  1  0
 15 16  1  0
 15 37  1  0
 15 38  1  0
 16 17  1  0
 16 39  1  1
 17 18  1  6
 18 19  1  0
M  END
>  <i_m_ct_stereo_status>  (33) 
1

>  <s_m_source_file>  (33) 
/var/tmp/pbs.5076255.sched01/tmp8nmo4hef/06hb_edth.sdf

>  <i_m_source_file_index>  (33) 
13

>  <i_lp_mmshare_version>  (33) 
48012

>  <i_f3d_flags>  (33) 
0

>  <s_epik_input>  (33) 
W0NAQF0xMjNbQ0BIXTRbQ0gyXVtDSDJdQyg9TylbQ0BASF0oW0NIM10pW0NASF0yW0NIMl1bQ0gyXVtDQF0oW0NIM10pKE9PMylPW0NASF0xT1tDSDJdNA==

>  <s_epik_cmdline>  (33) 
J2VwaWtfcHl0aG9uJywgJy1waHQnLCAnMi4wJywgJy1waCcsICc3LjAnLCAnLXRuJywgJzgnLCAnLW1hJywgJzIwMCcsICctaW1hZScsICc8aW5maWxlLm1hZT4nLCAnLW9tYWUnLCAnPG91dGZpbGUubWFlPic=

>  <r_lp_tautomer_probability>  (33) 
1

>  <r_epik_Ionization_Penalty>  (33) 
7.1252e-13

>  <r_epik_Ionization_Penalty_Charging>  (33) 
0

>  <r_epik_Ionization_Penalty_Neutral>  (33) 
7.1252e-13

>  <r_epik_State_Penalty>  (33) 
-0

>  <r_epik_Charging_Adjusted_Penalty>  (33) 
0

>  <i_epik_Tot_Q>  (33) 
0

>  <i_epik_Tot_abs_Q>  (33) 
0

>  <s_epik_Chemistry_Notes>  (33) 
This compound contains an acetal/aminal-like group ( X-CH(R)-Y where X, Y are N, S, or O) that may be acid/base labile, releasing an aldehyde.

>  <s_lp_Force_Field>  (33) 
OPLS3e

>  <r_lp_Energy>  (33) 
50.2469

>  <b_lp_Chiralities_Consistent>  (33) 
1

>  <s_lp_Variant>  (33) 
10:0-1

>  <s_i_glide_gridfile>  (33) 
pfpi4k_grid

>  <i_i_glide_lignum>  (33) 
13

>  <i_i_glide_rotatable_bonds>  (33) 
0

>  <r_i_docking_score>  (33) 
-3.95476

>  <r_i_glide_ligand_efficiency>  (33) 
-0.208145

>  <r_i_glide_ligand_efficiency_sa>  (33) 
-0.555415

>  <r_i_glide_ligand_efficiency_ln>  (33) 
-1.00262

>  <r_i_glide_gscore>  (33) 
-3.95476

>  <r_i_glide_lipo>  (33) 
-0.671646

>  <r_i_glide_hbond>  (33) 
-0.169504

>  <r_i_glide_metal>  (33) 
-0

>  <r_i_glide_rewards>  (33) 
-1.73688

>  <r_i_glide_evdw>  (33) 
-23.3754

>  <r_i_glide_ecoul>  (33) 
-1.31778

>  <r_i_glide_erotb>  (33) 
0

>  <r_i_glide_esite>  (33) 
-0.0102967

>  <r_i_glide_emodel>  (33) 
-30.5828

>  <r_i_glide_energy>  (33) 
-24.6931

>  <r_i_glide_einternal>  (33) 
0

>  <r_i_glide_intrahb_reward>  (33) 
-0

>  <i_i_glide_confnum>  (33) 
1

>  <i_i_glide_posenum>  (33) 
6

>  <r_i_glide_eff_state_penalty>  (33) 
0

>  <ligand_id>  (33) 
10

>  <original_smiles>  (33) 
CC1C(=O)CCC2COC3OC4(C)CCC1C23OO4

>  <smiles>  (33) 
[H]C([H])([H])C12OOC34C([H])(OC([H])([H])C3([H])C([H])([H])C([H])([H])C(=O)C([H])(C([H])([H])[H])C4([H])C([H])([H])C1([H])[H])O2

$$$$
10:0:2
     RDKit          3D

 39 42  0  0  1  0  0  0  0  0999 V2000
    2.9621   -4.3591    2.0409 C   0  0  0  0  0  0  0  0  0  0  0  0
    3.7793   -4.9464    0.8597 C   0  0  2  0  0  0  0  0  0  0  0  0
    5.0366   -5.6945    1.3845 C   0  0  0  0  0  0  0  0  0  0  0  0
    4.9425   -6.4849    2.3189 O   0  0  0  0  0  0  0  0  0  0  0  0
    6.4088   -5.4521    0.7457 C   0  0  0  0  0  0  0  0  0  0  0  0
    7.0095   -4.0555    1.0077 C   0  0  0  0  0  0  0  0  0  0  0  0
    5.9583   -2.9501    0.8369 C   0  0  1  0  0  0  0  0  0  0  0  0
    6.2791   -1.4763    1.0862 C   0  0  0  0  0  0  0  0  0  0  0  0
    5.1464   -0.8464    0.4797 O   0  0  0  0  0  0  0  0  0  0  0  0
    5.0299   -1.5059   -0.7295 C   0  0  2  0  0  0  0  0  0  0  0  0
    3.9869   -1.1998   -1.5547 O   0  0  0  0  0  0  0  0  0  0  0  0
    3.9213   -2.1156   -2.6461 C   0  0  2  0  0  0  0  0  0  0  0  0
    3.7196   -1.2656   -3.9094 C   0  0  0  0  0  0  0  0  0  0  0  0
    2.6998   -2.9991   -2.3662 C   0  0  0  0  0  0  0  0  0  0  0  0
    2.6193   -3.4491   -0.9041 C   0  0  0  0  0  0  0  0  0  0  0  0
    3.9523   -3.9987   -0.3903 C   0  0  1  0  0  0  0  0  0  0  0  0
    5.1857   -3.0142   -0.4783 C   0  0  2  0  0  0  0  0  0  0  0  0
    5.8883   -3.3902   -1.6432 O   0  0  0  0  0  0  0  0  0  0  0  0
    5.1219   -2.9109   -2.9064 O   0  0  0  0  0  0  0  0  0  0  0  0
    2.6508   -5.1511    2.7236 H   0  0  0  0  0  0  0  0  0  0  0  0
    2.0512   -3.8655    1.7051 H   0  0  0  0  0  0  0  0  0  0  0  0
    3.5115   -3.6365    2.6434 H   0  0  0  0  0  0  0  0  0  0  0  0
    3.1556   -5.7608    0.4894 H   0  0  0  0  0  0  0  0  0  0  0  0
    7.1054   -6.2157    1.0894 H   0  0  0  0  0  0  0  0  0  0  0  0
    6.2920   -5.6178   -0.3249 H   0  0  0  0  0  0  0  0  0  0  0  0
    7.4022   -4.0328    2.0196 H   0  0  0  0  0  0  0  0  0  0  0  0
    7.8539   -3.8809    0.3377 H   0  0  0  0  0  0  0  0  0  0  0  0
    5.2555   -3.0823    1.6489 H   0  0  0  0  0  0  0  0  0  0  0  0
    6.3137   -1.2419    2.1533 H   0  0  0  0  0  0  0  0  0  0  0  0
    7.2233   -1.1823    0.6166 H   0  0  0  0  0  0  0  0  0  0  0  0
    5.8926   -1.1466   -1.2984 H   0  0  0  0  0  0  0  0  0  0  0  0
    4.6015   -0.6498   -4.0992 H   0  0  0  0  0  0  0  0  0  0  0  0
    2.8625   -0.5947   -3.8041 H   0  0  0  0  0  0  0  0  0  0  0  0
    3.5402   -1.8984   -4.7796 H   0  0  0  0  0  0  0  0  0  0  0  0
    1.7990   -2.4286   -2.5847 H   0  0  0  0  0  0  0  0  0  0  0  0
    2.6825   -3.8519   -3.0440 H   0  0  0  0  0  0  0  0  0  0  0  0
    2.3038   -2.6171   -0.2754 H   0  0  0  0  0  0  0  0  0  0  0  0
    1.8350   -4.2011   -0.8177 H   0  0  0  0  0  0  0  0  0  0  0  0
    4.1952   -4.7499   -1.1391 H   0  0  0  0  0  0  0  0  0  0  0  0
  1  2  1  0
  1 20  1  0
  1 21  1  0
  1 22  1  0
  2 16  1  0
  2  3  1  0
  2 23  1  6
  3  4  2  0
  3  5  1  0
  5  6  1  0
  5 24  1  0
  5 25  1  0
  6  7  1  0
  6 26  1  0
  6 27  1  0
  7 17  1  0
  7  8  1  0
  7 28  1  1
  8  9  1  0
  8 29  1  0
  8 30  1  0
  9 10  1  0
 10 17  1  0
 10 11  1  0
 10 31  1  6
 11 12  1  0
 12 19  1  0
 12 13  1  6
 12 14  1  0
 13 32  1  0
 13 33  1  0
 13 34  1  0
 14 15  1  0
 14 35  1  0
 14 36  1  0
 15 16  1  0
 15 37  1  0
 15 38  1  0
 16 17  1  0
 16 39  1  6
 17 18  1  6
 18 19  1  0
M  END
>  <i_m_ct_stereo_status>  (34) 
1

>  <s_m_source_file>  (34) 
/var/tmp/pbs.5076255.sched01/tmp8nmo4hef/06hb_edth.sdf

>  <i_m_source_file_index>  (34) 
13

>  <i_lp_mmshare_version>  (34) 
48012

>  <i_f3d_flags>  (34) 
0

>  <s_epik_input>  (34) 
W0NAQF0xMjNbQ0BIXTRbQ0gyXVtDSDJdQyg9TylbQ0BASF0oW0NIM10pW0NASF0yW0NIMl1bQ0gyXVtDQF0oW0NIM10pKE9PMylPW0NASF0xT1tDSDJdNA==

>  <s_epik_cmdline>  (34) 
J2VwaWtfcHl0aG9uJywgJy1waHQnLCAnMi4wJywgJy1waCcsICc3LjAnLCAnLXRuJywgJzgnLCAnLW1hJywgJzIwMCcsICctaW1hZScsICc8aW5maWxlLm1hZT4nLCAnLW9tYWUnLCAnPG91dGZpbGUubWFlPic=

>  <r_lp_tautomer_probability>  (34) 
1

>  <r_epik_Ionization_Penalty>  (34) 
7.1252e-13

>  <r_epik_Ionization_Penalty_Charging>  (34) 
0

>  <r_epik_Ionization_Penalty_Neutral>  (34) 
7.1252e-13

>  <r_epik_State_Penalty>  (34) 
-0

>  <r_epik_Charging_Adjusted_Penalty>  (34) 
0

>  <i_epik_Tot_Q>  (34) 
0

>  <i_epik_Tot_abs_Q>  (34) 
0

>  <s_epik_Chemistry_Notes>  (34) 
This compound contains an acetal/aminal-like group ( X-CH(R)-Y where X, Y are N, S, or O) that may be acid/base labile, releasing an aldehyde.

>  <s_lp_Force_Field>  (34) 
OPLS3e

>  <r_lp_Energy>  (34) 
50.2469

>  <b_lp_Chiralities_Consistent>  (34) 
1

>  <s_lp_Variant>  (34) 
10:0-1

>  <s_i_glide_gridfile>  (34) 
pfpi4k_grid

>  <i_i_glide_lignum>  (34) 
13

>  <i_i_glide_rotatable_bonds>  (34) 
0

>  <r_i_docking_score>  (34) 
-3.51164

>  <r_i_glide_ligand_efficiency>  (34) 
-0.184823

>  <r_i_glide_ligand_efficiency_sa>  (34) 
-0.493182

>  <r_i_glide_ligand_efficiency_ln>  (34) 
-0.890276

>  <r_i_glide_gscore>  (34) 
-3.51164

>  <r_i_glide_lipo>  (34) 
-0.572945

>  <r_i_glide_hbond>  (34) 
0

>  <r_i_glide_metal>  (34) 
-0

>  <r_i_glide_rewards>  (34) 
-1.68333

>  <r_i_glide_evdw>  (34) 
-26.3948

>  <r_i_glide_ecoul>  (34) 
0.639997

>  <r_i_glide_erotb>  (34) 
0

>  <r_i_glide_esite>  (34) 
-0.0316243

>  <r_i_glide_emodel>  (34) 
-31.0032

>  <r_i_glide_energy>  (34) 
-25.7548

>  <r_i_glide_einternal>  (34) 
0

>  <r_i_glide_intrahb_reward>  (34) 
-0

>  <i_i_glide_confnum>  (34) 
2

>  <i_i_glide_posenum>  (34) 
4

>  <r_i_glide_eff_state_penalty>  (34) 
0

>  <ligand_id>  (34) 
10

>  <original_smiles>  (34) 
CC1C(=O)CCC2COC3OC4(C)CCC1C23OO4

>  <smiles>  (34) 
[H]C([H])([H])C12OOC34C([H])(OC([H])([H])C3([H])C([H])([H])C([H])([H])C(=O)C([H])(C([H])([H])[H])C4([H])C([H])([H])C1([H])[H])O2

$$$$
11:0:0
     RDKit          3D

 82 88  0  0  1  0  0  0  0  0999 V2000
    8.2748   -3.0198   -1.2417 C   0  0  0  0  0  0  0  0  0  0  0  0
    7.8067   -1.9103   -0.5246 O   0  0  0  0  0  0  0  0  0  0  0  0
    7.5995   -2.1795    0.8188 C   0  0  0  0  0  0  0  0  0  0  0  0
    6.5129   -3.0059    1.0904 O   0  0  0  0  0  0  0  0  0  0  0  0
    5.4324   -3.0220    0.1761 C   0  0  2  0  0  0  0  0  0  0  0  0
    4.7335   -1.6508    0.0159 C   0  0  0  0  0  0  0  0  0  0  0  0
    3.6104   -1.7727   -1.0194 C   0  0  1  0  0  0  0  0  0  0  0  0
    4.1145   -2.1170   -2.3233 O   0  0  0  0  0  0  0  0  0  0  0  0
    3.8771   -1.3911   -3.4490 C   0  0  0  0  0  0  0  0  0  0  0  0
    3.2107   -0.0467   -3.2460 C   0  0  0  0  0  0  0  0  0  0  0  0
    4.2113   -1.7338   -4.5811 O   0  0  0  0  0  0  0  0  0  0  0  0
    2.6193   -2.8541   -0.5778 C   0  0  0  0  0  0  0  0  0  0  0  0
    3.2528   -4.2281   -0.3031 C   0  0  2  0  0  0  0  0  0  0  0  0
    2.3002   -5.0290    0.3929 O   0  0  0  0  0  0  0  0  0  0  0  0
    2.4460   -4.8190    1.8003 C   0  0  1  0  0  0  0  0  0  0  0  0
    1.9820   -6.1238    2.5071 C   0  0  2  0  0  0  0  0  0  0  0  0
    2.0106   -5.9861    3.9474 O   0  0  0  0  0  0  0  0  0  0  0  0
    2.8644   -7.0015    4.5084 C   0  0  2  0  0  0  0  0  0  0  0  0
    3.6985   -6.3611    5.6706 C   0  0  0  0  0  0  0  0  0  0  0  0
    5.2336   -6.5803    5.6183 C   0  0  0  0  0  0  0  0  0  0  0  0
    5.9167   -5.6191    6.6170 C   0  0  0  0  0  0  0  0  0  0  0  0
    5.5487   -8.0220    6.0693 C   0  0  0  0  0  0  0  0  0  0  0  0
    5.7933   -6.3842    4.1751 C   0  0  1  0  0  0  0  0  0  0  0  0
    5.0106   -7.1471    3.1608 C   0  0  0  0  0  0  0  0  0  0  0  0
    3.7112   -7.2972    3.3116 C   0  0  0  0  0  0  0  0  0  0  0  0
    2.8000   -7.3565    2.2559 C   0  0  0  0  0  0  0  0  0  0  0  0
    2.2509   -8.5164    1.8830 C   0  0  0  0  0  0  0  0  0  0  0  0
    2.4233   -9.7604    2.6801 C   0  0  1  0  0  0  0  0  0  0  0  0
    3.4977   -9.9030    3.6405 O   0  0  0  0  0  0  0  0  0  0  0  0
    2.2098   -9.6521    4.1962 C   0  0  2  0  0  0  0  0  0  0  0  0
    1.5912  -10.8541    4.8853 C   0  0  0  0  0  0  0  0  0  0  0  0
    1.9238   -8.2554    4.8737 C   0  0  1  0  0  0  0  0  0  0  0  0
    1.5544   -8.3511    6.3678 C   0  0  0  0  0  0  0  0  0  0  0  0
    5.9128   -4.9387    3.6438 C   0  0  0  0  0  0  0  0  0  0  0  0
    4.6513   -4.0814    3.3088 C   0  0  0  0  0  0  0  0  0  0  0  0
    3.8533   -4.1634    1.9671 C   0  0  1  0  0  0  0  0  0  0  0  0
    4.5167   -4.2127    0.5724 C   0  0  2  0  0  0  0  0  0  0  0  0
    5.2638   -5.5166    0.2731 C   0  0  0  0  0  0  0  0  0  0  0  0
    8.3383   -2.6725   -2.2785 H   0  0  0  0  0  0  0  0  0  0  0  0
    7.5041   -3.7632   -1.2162 H   0  0  0  0  0  0  0  0  0  0  0  0
    9.2621   -3.4027   -0.9545 H   0  0  0  0  0  0  0  0  0  0  0  0
    8.4705   -2.7061    1.1923 H   0  0  0  0  0  0  0  0  0  0  0  0
    7.4801   -1.2161    1.3088 H   0  0  0  0  0  0  0  0  0  0  0  0
    5.7711   -3.2766   -0.8078 H   0  0  0  0  0  0  0  0  0  0  0  0
    4.3029   -1.2569    0.9491 H   0  0  0  0  0  0  0  0  0  0  0  0
    5.4374   -0.9055   -0.3329 H   0  0  0  0  0  0  0  0  0  0  0  0
    3.0785   -0.8297   -1.0500 H   0  0  0  0  0  0  0  0  0  0  0  0
    2.2805   -0.1872   -2.6941 H   0  0  0  0  0  0  0  0  0  0  0  0
    3.0181    0.4624   -4.1913 H   0  0  0  0  0  0  0  0  0  0  0  0
    3.9026    0.5722   -2.6856 H   0  0  0  0  0  0  0  0  0  0  0  0
    2.1571   -2.4671    0.3233 H   0  0  0  0  0  0  0  0  0  0  0  0
    1.8466   -2.9769   -1.3350 H   0  0  0  0  0  0  0  0  0  0  0  0
    3.5194   -4.6529   -1.2656 H   0  0  0  0  0  0  0  0  0  0  0  0
    1.7197   -4.0472    2.0696 H   0  0  0  0  0  0  0  0  0  0  0  0
    0.9460   -6.3159    2.2237 H   0  0  0  0  0  0  0  0  0  0  0  0
    3.4928   -5.2924    5.7027 H   0  0  0  0  0  0  0  0  0  0  0  0
    3.3661   -6.6736    6.6504 H   0  0  0  0  0  0  0  0  0  0  0  0
    7.0038   -5.6799    6.5614 H   0  0  0  0  0  0  0  0  0  0  0  0
    5.6208   -5.8390    7.6407 H   0  0  0  0  0  0  0  0  0  0  0  0
    5.6346   -4.5832    6.4342 H   0  0  0  0  0  0  0  0  0  0  0  0
    6.6208   -8.2211    6.0699 H   0  0  0  0  0  0  0  0  0  0  0  0
    5.0861   -8.7586    5.4143 H   0  0  0  0  0  0  0  0  0  0  0  0
    5.1775   -8.2118    7.0749 H   0  0  0  0  0  0  0  0  0  0  0  0
    6.7928   -6.8004    4.1471 H   0  0  0  0  0  0  0  0  0  0  0  0
    5.4639   -7.2815    2.1962 H   0  0  0  0  0  0  0  0  0  0  0  0
    1.3243   -8.4791    1.3345 H   0  0  0  0  0  0  0  0  0  0  0  0
    2.1809  -10.6576    2.1368 H   0  0  0  0  0  0  0  0  0  0  0  0
    0.5032  -10.7627    4.9352 H   0  0  0  0  0  0  0  0  0  0  0  0
    2.0016  -10.9685    5.8883 H   0  0  0  0  0  0  0  0  0  0  0  0
    1.8290  -11.7624    4.3325 H   0  0  0  0  0  0  0  0  0  0  0  0
    0.9647   -7.9918    4.4281 H   0  0  0  0  0  0  0  0  0  0  0  0
    2.3928   -8.7151    6.9660 H   0  0  0  0  0  0  0  0  0  0  0  0
    0.7051   -9.0202    6.5326 H   0  0  0  0  0  0  0  0  0  0  0  0
    1.2450   -7.3770    6.7460 H   0  0  0  0  0  0  0  0  0  0  0  0
    6.4357   -4.4184    4.4368 H   0  0  0  0  0  0  0  0  0  0  0  0
    6.6061   -4.9140    2.8056 H   0  0  0  0  0  0  0  0  0  0  0  0
    3.9477   -4.0836    4.1344 H   0  0  0  0  0  0  0  0  0  0  0  0
    5.0424   -3.0589    3.3403 H   0  0  0  0  0  0  0  0  0  0  0  0
    3.5288   -3.1253    1.9808 H   0  0  0  0  0  0  0  0  0  0  0  0
    4.6370   -6.3848    0.4219 H   0  0  0  0  0  0  0  0  0  0  0  0
    6.1853   -5.6158    0.8375 H   0  0  0  0  0  0  0  0  0  0  0  0
    5.5526   -5.5352   -0.7767 H   0  0  0  0  0  0  0  0  0  0  0  0
  1  2  1  0
  1 39  1  0
  1 40  1  0
  1 41  1  0
  2  3  1  0
  3  4  1  0
  3 42  1  0
  3 43  1  0
  4  5  1  0
  5 37  1  0
  5  6  1  0
  5 44  1  6
  6  7  1  0
  6 45  1  0
  6 46  1  0
  7  8  1  0
  7 12  1  0
  7 47  1  6
  8  9  1  0
  9 10  1  0
  9 11  2  0
 10 48  1  0
 10 49  1  0
 10 50  1  0
 12 13  1  0
 12 51  1  0
 12 52  1  0
 13 37  1  0
 13 14  1  0
 13 53  1  6
 14 15  1  0
 15 36  1  0
 15 16  1  0
 15 54  1  1
 16 26  1  0
 16 17  1  0
 16 55  1  6
 18 17  1  6
 18 25  1  0
 18 32  1  0
 18 19  1  0
 19 20  1  0
 19 56  1  0
 19 57  1  0
 20 21  1  0
 20 22  1  0
 20 23  1  0
 21 58  1  0
 21 59  1  0
 21 60  1  0
 22 61  1  0
 22 62  1  0
 22 63  1  0
 23 24  1  0
 23 34  1  0
 23 64  1  1
 24 25  2  0
 24 65  1  0
 25 26  1  0
 26 27  2  0
 27 28  1  0
 27 66  1  0
 28 30  1  0
 28 29  1  0
 28 67  1  6
 29 30  1  0
 30 31  1  1
 30 32  1  0
 31 68  1  0
 31 69  1  0
 31 70  1  0
 32 33  1  0
 32 71  1  6
 33 72  1  0
 33 73  1  0
 33 74  1  0
 34 35  1  0
 34 75  1  0
 34 76  1  0
 35 36  1  0
 35 77  1  0
 35 78  1  0
 36 37  1  0
 36 79  1  6
 37 38  1  1
 38 80  1  0
 38 81  1  0
 38 82  1  0
M  END
>  <i_m_ct_stereo_status>  (35) 
1

>  <s_m_source_file>  (35) 
/var/tmp/pbs.5076255.sched01/tmp8nmo4hef/06hb_edth.sdf

>  <i_m_source_file_index>  (35) 
14

>  <i_lp_mmshare_version>  (35) 
48012

>  <i_f3d_flags>  (35) 
0

>  <s_epik_input>  (35) 
W0NIM11PW0NIMl1PW0NAQEhdMVtDSDJdW0NAQEhdKE9DKD1PKVtDSDNdKVtDSDJdW0NASF0oTzIpW0NAXTEoW0NIM10pW0NASF0oW0NIMl1bQ0gyXVtDQEhdKFtDSF09MylDKFtDSDJdNCkoW0NIM10pW0NIM10pW0NAQEhdMltDQEhdKE81KUMoQzNbQ0BAXTQ1Nik9W0NIXVtDQEBIXTdbQ0BdKE83KShbQ0gzXSlbQ0BIXTZbQ0gzXQ==

>  <s_epik_cmdline>  (35) 
J2VwaWtfcHl0aG9uJywgJy1waHQnLCAnMi4wJywgJy1waCcsICc3LjAnLCAnLXRuJywgJzgnLCAnLW1hJywgJzIwMCcsICctaW1hZScsICc8aW5maWxlLm1hZT4nLCAnLW9tYWUnLCAnPG91dGZpbGUubWFlPic=

>  <r_lp_tautomer_probability>  (35) 
1

>  <r_epik_Ionization_Penalty>  (35) 
2.75404e-12

>  <r_epik_Ionization_Penalty_Charging>  (35) 
0

>  <r_epik_Ionization_Penalty_Neutral>  (35) 
2.75404e-12

>  <r_epik_State_Penalty>  (35) 
-0

>  <r_epik_Charging_Adjusted_Penalty>  (35) 
0

>  <i_epik_Tot_Q>  (35) 
0

>  <i_epik_Tot_abs_Q>  (35) 
0

>  <s_epik_Chemistry_Notes>  (35) 
This compound has an ester and may undergo hydrolysis at high or low pH. This compound contains an acetal/aminal-like group ( X-CH(R)-Y where X, Y are N, S, or O) that may be acid/base labile, releasing an aldehyde.

>  <s_lp_Force_Field>  (35) 
OPLS3e

>  <r_lp_Energy>  (35) 
128.632

>  <b_lp_Chiralities_Consistent>  (35) 
1

>  <s_lp_Variant>  (35) 
11:0-1

>  <s_i_glide_gridfile>  (35) 
pfpi4k_grid

>  <i_i_glide_lignum>  (35) 
14

>  <i_i_glide_rotatable_bonds>  (35) 
5

>  <r_i_docking_score>  (35) 
-3.25967

>  <r_i_glide_ligand_efficiency>  (35) 
-0.0857808

>  <r_i_glide_ligand_efficiency_sa>  (35) 
-0.288393

>  <r_i_glide_ligand_efficiency_ln>  (35) 
-0.702881

>  <r_i_glide_gscore>  (35) 
-3.25967

>  <r_i_glide_lipo>  (35) 
-0.211423

>  <r_i_glide_hbond>  (35) 
-0.477156

>  <r_i_glide_metal>  (35) 
-0

>  <r_i_glide_rewards>  (35) 
-0.323419

>  <r_i_glide_evdw>  (35) 
-21.7491

>  <r_i_glide_ecoul>  (35) 
-9.20906

>  <r_i_glide_erotb>  (35) 
0.221141

>  <r_i_glide_esite>  (35) 
0

>  <r_i_glide_emodel>  (35) 
-31.571

>  <r_i_glide_energy>  (35) 
-30.9581

>  <r_i_glide_einternal>  (35) 
8.97759

>  <r_i_glide_intrahb_reward>  (35) 
-0

>  <i_i_glide_confnum>  (35) 
2

>  <i_i_glide_posenum>  (35) 
3

>  <r_i_glide_eff_state_penalty>  (35) 
0

>  <ligand_id>  (35) 
11

>  <original_smiles>  (35) 
COCOC1CC(OC(C)=O)CC2OC3C4OC56CC(C)(C)C(C=C5C4=CC4OC4(C)C6C)CCC3C12C

>  <smiles>  (35) 
[H]C1=C2C3=C([H])C4([H])C([H])([H])C([H])([H])C5([H])C([H])(OC6([H])C([H])([H])C([H])(OC(=O)C([H])([H])[H])C([H])([H])C([H])(OC([H])([H])OC([H])([H])[H])C65C([H])([H])[H])C2([H])OC3(C([H])([H])C4(C([H])([H])[H])C([H])([H])[H])C([H])(C([H])([H])[H])C2(C([H])([H])[H])OC12[H]

$$$$
11:0:1
     RDKit          3D

 82 88  0  0  1  0  0  0  0  0999 V2000
    7.7235   -2.0876    0.3716 C   0  0  0  0  0  0  0  0  0  0  0  0
    6.5917   -1.5853   -0.3228 O   0  0  0  0  0  0  0  0  0  0  0  0
    5.6360   -0.9878    0.5028 C   0  0  0  0  0  0  0  0  0  0  0  0
    4.9871   -1.9319    1.2949 O   0  0  0  0  0  0  0  0  0  0  0  0
    3.7126   -1.5545    1.8226 C   0  0  2  0  0  0  0  0  0  0  0  0
    3.8330   -0.4777    2.9322 C   0  0  0  0  0  0  0  0  0  0  0  0
    2.4682   -0.1231    3.5476 C   0  0  1  0  0  0  0  0  0  0  0  0
    1.6212    0.4523    2.5537 O   0  0  0  0  0  0  0  0  0  0  0  0
    0.5908    1.2520    2.9129 C   0  0  0  0  0  0  0  0  0  0  0  0
   -0.2486    1.7021    1.7281 C   0  0  0  0  0  0  0  0  0  0  0  0
    0.3035    1.5853    4.0641 O   0  0  0  0  0  0  0  0  0  0  0  0
    1.8524   -1.3871    4.1505 C   0  0  0  0  0  0  0  0  0  0  0  0
    1.6850   -2.5119    3.1071 C   0  0  2  0  0  0  0  0  0  0  0  0
    1.3739   -3.7237    3.7842 O   0  0  0  0  0  0  0  0  0  0  0  0
    2.5628   -4.4025    4.1807 C   0  0  1  0  0  0  0  0  0  0  0  0
    2.2410   -5.9291    4.2773 C   0  0  2  0  0  0  0  0  0  0  0  0
    3.3953   -6.6879    4.7512 O   0  0  0  0  0  0  0  0  0  0  0  0
    3.7346   -7.6994    3.7525 C   0  0  2  0  0  0  0  0  0  0  0  0
    5.2877   -7.7769    3.6439 C   0  0  0  0  0  0  0  0  0  0  0  0
    5.8768   -7.6750    2.2153 C   0  0  0  0  0  0  0  0  0  0  0  0
    7.4018   -7.4422    2.3134 C   0  0  0  0  0  0  0  0  0  0  0  0
    5.6713   -9.0362    1.5000 C   0  0  0  0  0  0  0  0  0  0  0  0
    5.1834   -6.5549    1.3800 C   0  0  1  0  0  0  0  0  0  0  0  0
    3.6960   -6.6433    1.4570 C   0  0  0  0  0  0  0  0  0  0  0  0
    3.0997   -7.1166    2.5501 C   0  0  0  0  0  0  0  0  0  0  0  0
    1.8791   -6.5889    2.9687 C   0  0  0  0  0  0  0  0  0  0  0  0
    0.7858   -7.3784    2.8934 C   0  0  0  0  0  0  0  0  0  0  0  0
    0.8399   -8.8068    2.4813 C   0  0  1  0  0  0  0  0  0  0  0  0
    2.0066   -9.3239    1.7573 O   0  0  0  0  0  0  0  0  0  0  0  0
    1.8980   -9.6741    3.1667 C   0  0  2  0  0  0  0  0  0  0  0  0
    1.5474  -11.1298    3.4102 C   0  0  0  0  0  0  0  0  0  0  0  0
    2.9374   -9.0448    4.1652 C   0  0  1  0  0  0  0  0  0  0  0  0
    3.8085  -10.0884    4.8965 C   0  0  0  0  0  0  0  0  0  0  0  0
    5.5553   -5.0774    1.6899 C   0  0  0  0  0  0  0  0  0  0  0  0
    5.0973   -4.4115    3.0311 C   0  0  0  0  0  0  0  0  0  0  0  0
    3.6820   -3.7690    3.2760 C   0  0  1  0  0  0  0  0  0  0  0  0
    2.9481   -2.8417    2.2704 C   0  0  2  0  0  0  0  0  0  0  0  0
    2.4728   -3.5750    1.0015 C   0  0  0  0  0  0  0  0  0  0  0  0
    8.4126   -2.5568   -0.3344 H   0  0  0  0  0  0  0  0  0  0  0  0
    7.4439   -2.8374    1.1095 H   0  0  0  0  0  0  0  0  0  0  0  0
    8.2621   -1.2806    0.8668 H   0  0  0  0  0  0  0  0  0  0  0  0
    6.0975   -0.2291    1.1281 H   0  0  0  0  0  0  0  0  0  0  0  0
    4.9350   -0.5099   -0.1818 H   0  0  0  0  0  0  0  0  0  0  0  0
    3.1250   -1.1001    1.0211 H   0  0  0  0  0  0  0  0  0  0  0  0
    4.5008   -0.8378    3.7189 H   0  0  0  0  0  0  0  0  0  0  0  0
    4.3041    0.4256    2.5358 H   0  0  0  0  0  0  0  0  0  0  0  0
    2.6413    0.6092    4.3366 H   0  0  0  0  0  0  0  0  0  0  0  0
    0.3851    2.1387    0.9566 H   0  0  0  0  0  0  0  0  0  0  0  0
   -0.9770    2.4536    2.0376 H   0  0  0  0  0  0  0  0  0  0  0  0
   -0.7834    0.8601    1.2897 H   0  0  0  0  0  0  0  0  0  0  0  0
    2.4717   -1.7110    4.9860 H   0  0  0  0  0  0  0  0  0  0  0  0
    0.8790   -1.1700    4.6015 H   0  0  0  0  0  0  0  0  0  0  0  0
    0.8565   -2.2348    2.4589 H   0  0  0  0  0  0  0  0  0  0  0  0
    2.7735   -4.0808    5.2028 H   0  0  0  0  0  0  0  0  0  0  0  0
    1.4514   -6.0717    5.0098 H   0  0  0  0  0  0  0  0  0  0  0  0
    5.7189   -7.0077    4.2686 H   0  0  0  0  0  0  0  0  0  0  0  0
    5.6912   -8.6779    4.1028 H   0  0  0  0  0  0  0  0  0  0  0  0
    7.8578   -7.2895    1.3353 H   0  0  0  0  0  0  0  0  0  0  0  0
    7.9076   -8.2804    2.7885 H   0  0  0  0  0  0  0  0  0  0  0  0
    7.6268   -6.5604    2.9212 H   0  0  0  0  0  0  0  0  0  0  0  0
    6.0939   -9.0443    0.5000 H   0  0  0  0  0  0  0  0  0  0  0  0
    4.6102   -9.2848    1.3986 H   0  0  0  0  0  0  0  0  0  0  0  0
    6.1333   -9.8561    2.0490 H   0  0  0  0  0  0  0  0  0  0  0  0
    5.4409   -6.7141    0.3327 H   0  0  0  0  0  0  0  0  0  0  0  0
    3.1454   -6.1168    0.6927 H   0  0  0  0  0  0  0  0  0  0  0  0
   -0.0528   -7.1617    3.5496 H   0  0  0  0  0  0  0  0  0  0  0  0
   -0.1125   -9.2317    2.1553 H   0  0  0  0  0  0  0  0  0  0  0  0
    1.1007  -11.2538    4.4000 H   0  0  0  0  0  0  0  0  0  0  0  0
    2.4184  -11.7770    3.3101 H   0  0  0  0  0  0  0  0  0  0  0  0
    0.8073  -11.4613    2.6715 H   0  0  0  0  0  0  0  0  0  0  0  0
    2.2782   -8.7216    4.9717 H   0  0  0  0  0  0  0  0  0  0  0  0
    4.4784  -10.6078    4.2087 H   0  0  0  0  0  0  0  0  0  0  0  0
    3.2061  -10.8398    5.4121 H   0  0  0  0  0  0  0  0  0  0  0  0
    4.4076   -9.6113    5.6762 H   0  0  0  0  0  0  0  0  0  0  0  0
    6.6366   -4.9972    1.6422 H   0  0  0  0  0  0  0  0  0  0  0  0
    5.2460   -4.4505    0.8580 H   0  0  0  0  0  0  0  0  0  0  0  0
    5.3537   -5.0261    3.8833 H   0  0  0  0  0  0  0  0  0  0  0  0
    5.7953   -3.5771    3.1336 H   0  0  0  0  0  0  0  0  0  0  0  0
    4.0329   -3.0242    3.9871 H   0  0  0  0  0  0  0  0  0  0  0  0
    1.8824   -4.4529    1.2569 H   0  0  0  0  0  0  0  0  0  0  0  0
    3.2886   -3.8758    0.3496 H   0  0  0  0  0  0  0  0  0  0  0  0
    1.8355   -2.9274    0.3998 H   0  0  0  0  0  0  0  0  0  0  0  0
  1  2  1  0
  1 39  1  0
  1 40  1  0
  1 41  1  0
  2  3  1  0
  3  4  1  0
  3 42  1  0
  3 43  1  0
  4  5  1  0
  5 37  1  0
  5  6  1  0
  5 44  1  6
  6  7  1  0
  6 45  1  0
  6 46  1  0
  7  8  1  0
  7 12  1  0
  7 47  1  1
  8  9  1  0
  9 10  1  0
  9 11  2  0
 10 48  1  0
 10 49  1  0
 10 50  1  0
 12 13  1  0
 12 51  1  0
 12 52  1  0
 13 37  1  0
 13 14  1  0
 13 53  1  6
 14 15  1  0
 15 36  1  0
 15 16  1  0
 15 54  1  1
 16 26  1  0
 16 17  1  0
 16 55  1  1
 18 17  1  1
 18 25  1  0
 18 32  1  0
 18 19  1  0
 19 20  1  0
 19 56  1  0
 19 57  1  0
 20 21  1  0
 20 22  1  0
 20 23  1  0
 21 58  1  0
 21 59  1  0
 21 60  1  0
 22 61  1  0
 22 62  1  0
 22 63  1  0
 23 24  1  0
 23 34  1  0
 23 64  1  6
 24 25  2  0
 24 65  1  0
 25 26  1  0
 26 27  2  0
 27 28  1  0
 27 66  1  0
 28 30  1  0
 28 29  1  0
 28 67  1  6
 29 30  1  0
 30 31  1  6
 30 32  1  0
 31 68  1  0
 31 69  1  0
 31 70  1  0
 32 33  1  0
 32 71  1  1
 33 72  1  0
 33 73  1  0
 33 74  1  0
 34 35  1  0
 34 75  1  0
 34 76  1  0
 35 36  1  0
 35 77  1  0
 35 78  1  0
 36 37  1  0
 36 79  1  1
 37 38  1  6
 38 80  1  0
 38 81  1  0
 38 82  1  0
M  END
>  <i_m_ct_stereo_status>  (36) 
1

>  <s_m_source_file>  (36) 
/var/tmp/pbs.5076255.sched01/tmp8nmo4hef/06hb_edth.sdf

>  <i_m_source_file_index>  (36) 
14

>  <i_lp_mmshare_version>  (36) 
48012

>  <i_f3d_flags>  (36) 
0

>  <s_epik_input>  (36) 
W0NIM11PW0NIMl1PW0NAQEhdMVtDSDJdW0NAQEhdKE9DKD1PKVtDSDNdKVtDSDJdW0NASF0oTzIpW0NAXTEoW0NIM10pW0NASF0oW0NIMl1bQ0gyXVtDQEhdKFtDSF09MylDKFtDSDJdNCkoW0NIM10pW0NIM10pW0NAQEhdMltDQEhdKE81KUMoQzNbQ0BAXTQ1Nik9W0NIXVtDQEBIXTdbQ0BdKE83KShbQ0gzXSlbQ0BIXTZbQ0gzXQ==

>  <s_epik_cmdline>  (36) 
J2VwaWtfcHl0aG9uJywgJy1waHQnLCAnMi4wJywgJy1waCcsICc3LjAnLCAnLXRuJywgJzgnLCAnLW1hJywgJzIwMCcsICctaW1hZScsICc8aW5maWxlLm1hZT4nLCAnLW9tYWUnLCAnPG91dGZpbGUubWFlPic=

>  <r_lp_tautomer_probability>  (36) 
1

>  <r_epik_Ionization_Penalty>  (36) 
2.75404e-12

>  <r_epik_Ionization_Penalty_Charging>  (36) 
0

>  <r_epik_Ionization_Penalty_Neutral>  (36) 
2.75404e-12

>  <r_epik_State_Penalty>  (36) 
-0

>  <r_epik_Charging_Adjusted_Penalty>  (36) 
0

>  <i_epik_Tot_Q>  (36) 
0

>  <i_epik_Tot_abs_Q>  (36) 
0

>  <s_epik_Chemistry_Notes>  (36) 
This compound has an ester and may undergo hydrolysis at high or low pH. This compound contains an acetal/aminal-like group ( X-CH(R)-Y where X, Y are N, S, or O) that may be acid/base labile, releasing an aldehyde.

>  <s_lp_Force_Field>  (36) 
OPLS3e

>  <r_lp_Energy>  (36) 
128.632

>  <b_lp_Chiralities_Consistent>  (36) 
1

>  <s_lp_Variant>  (36) 
11:0-1

>  <s_i_glide_gridfile>  (36) 
pfpi4k_grid

>  <i_i_glide_lignum>  (36) 
14

>  <i_i_glide_rotatable_bonds>  (36) 
5

>  <r_i_docking_score>  (36) 
-2.48195

>  <r_i_glide_ligand_efficiency>  (36) 
-0.0653145

>  <r_i_glide_ligand_efficiency_sa>  (36) 
-0.219586

>  <r_i_glide_ligand_efficiency_ln>  (36) 
-0.535182

>  <r_i_glide_gscore>  (36) 
-2.48195

>  <r_i_glide_lipo>  (36) 
-0.59384

>  <r_i_glide_hbond>  (36) 
-0.122815

>  <r_i_glide_metal>  (36) 
-0

>  <r_i_glide_rewards>  (36) 
-0.157802

>  <r_i_glide_evdw>  (36) 
-29.6893

>  <r_i_glide_ecoul>  (36) 
-2.04278

>  <r_i_glide_erotb>  (36) 
0.221141

>  <r_i_glide_esite>  (36) 
-0.0377574

>  <r_i_glide_emodel>  (36) 
-35.5281

>  <r_i_glide_energy>  (36) 
-31.732

>  <r_i_glide_einternal>  (36) 
2.54536

>  <r_i_glide_intrahb_reward>  (36) 
-0

>  <i_i_glide_confnum>  (36) 
2

>  <i_i_glide_posenum>  (36) 
26

>  <r_i_glide_eff_state_penalty>  (36) 
0

>  <ligand_id>  (36) 
11

>  <original_smiles>  (36) 
COCOC1CC(OC(C)=O)CC2OC3C4OC56CC(C)(C)C(C=C5C4=CC4OC4(C)C6C)CCC3C12C

>  <smiles>  (36) 
[H]C1=C2C3=C([H])C4([H])C([H])([H])C([H])([H])C5([H])C([H])(OC6([H])C([H])([H])C([H])(OC(=O)C([H])([H])[H])C([H])([H])C([H])(OC([H])([H])OC([H])([H])[H])C65C([H])([H])[H])C2([H])OC3(C([H])([H])C4(C([H])([H])[H])C([H])([H])[H])C([H])(C([H])([H])[H])C2(C([H])([H])[H])OC12[H]

$$$$
11:0:2
     RDKit          3D

 82 88  0  0  1  0  0  0  0  0999 V2000
    5.7346   -2.1365   -1.4577 C   0  0  0  0  0  0  0  0  0  0  0  0
    5.7594   -1.0645   -0.5267 O   0  0  0  0  0  0  0  0  0  0  0  0
    6.2400   -1.4043    0.7339 C   0  0  0  0  0  0  0  0  0  0  0  0
    5.4279   -2.3002    1.4279 O   0  0  0  0  0  0  0  0  0  0  0  0
    4.1656   -1.8322    1.9040 C   0  0  2  0  0  0  0  0  0  0  0  0
    4.3282   -0.7927    3.0505 C   0  0  0  0  0  0  0  0  0  0  0  0
    2.9795   -0.3456    3.6330 C   0  0  1  0  0  0  0  0  0  0  0  0
    2.2336    0.3404    2.6266 O   0  0  0  0  0  0  0  0  0  0  0  0
    1.1145    1.0317    2.9501 C   0  0  0  0  0  0  0  0  0  0  0  0
    0.4909    1.7319    1.7578 C   0  0  0  0  0  0  0  0  0  0  0  0
    0.6093    1.1099    4.0720 O   0  0  0  0  0  0  0  0  0  0  0  0
    2.2663   -1.5766    4.1942 C   0  0  0  0  0  0  0  0  0  0  0  0
    2.0348   -2.6547    3.1183 C   0  0  2  0  0  0  0  0  0  0  0  0
    1.6090   -3.8471    3.7654 O   0  0  0  0  0  0  0  0  0  0  0  0
    2.7293   -4.6176    4.1901 C   0  0  1  0  0  0  0  0  0  0  0  0
    2.2809   -6.1132    4.2586 C   0  0  2  0  0  0  0  0  0  0  0  0
    3.3556   -6.9694    4.7539 O   0  0  0  0  0  0  0  0  0  0  0  0
    3.6367   -7.9937    3.7500 C   0  0  2  0  0  0  0  0  0  0  0  0
    5.1802   -8.2008    3.6798 C   0  0  0  0  0  0  0  0  0  0  0  0
    5.8156   -8.1252    2.2687 C   0  0  0  0  0  0  0  0  0  0  0  0
    7.3512   -8.0214    2.4103 C   0  0  0  0  0  0  0  0  0  0  0  0
    5.5216   -9.4506    1.5183 C   0  0  0  0  0  0  0  0  0  0  0  0
    5.2390   -6.9380    1.4387 C   0  0  1  0  0  0  0  0  0  0  0  0
    3.7497   -6.9044    1.4717 C   0  0  0  0  0  0  0  0  0  0  0  0
    3.0858   -7.3432    2.5413 C   0  0  0  0  0  0  0  0  0  0  0  0
    1.9028   -6.7234    2.9333 C   0  0  0  0  0  0  0  0  0  0  0  0
    0.7501   -7.4194    2.8153 C   0  0  0  0  0  0  0  0  0  0  0  0
    0.7039   -8.8415    2.3866 C   0  0  1  0  0  0  0  0  0  0  0  0
    1.8447   -9.4431    1.6820 O   0  0  0  0  0  0  0  0  0  0  0  0
    1.6680   -9.8034    3.0833 C   0  0  2  0  0  0  0  0  0  0  0  0
    1.1873  -11.2262    3.2967 C   0  0  0  0  0  0  0  0  0  0  0  0
    2.7204   -9.2731    4.1229 C   0  0  1  0  0  0  0  0  0  0  0  0
    3.4825  -10.3963    4.8589 C   0  0  0  0  0  0  0  0  0  0  0  0
    5.7252   -5.5012    1.7732 C   0  0  0  0  0  0  0  0  0  0  0  0
    5.2825   -4.8223    3.1099 C   0  0  0  0  0  0  0  0  0  0  0  0
    3.9196   -4.0661    3.3224 C   0  0  1  0  0  0  0  0  0  0  0  0
    3.2898   -3.0682    2.3084 C   0  0  2  0  0  0  0  0  0  0  0  0
    2.7820   -3.7442    1.0191 C   0  0  0  0  0  0  0  0  0  0  0  0
    5.3626   -1.7706   -2.4178 H   0  0  0  0  0  0  0  0  0  0  0  0
    5.0676   -2.9315   -1.1265 H   0  0  0  0  0  0  0  0  0  0  0  0
    6.7283   -2.5548   -1.6259 H   0  0  0  0  0  0  0  0  0  0  0  0
    7.2220   -1.8765    0.6351 H   0  0  0  0  0  0  0  0  0  0  0  0
    6.3965   -0.4879    1.2898 H   0  0  0  0  0  0  0  0  0  0  0  0
    3.6615   -1.3194    1.0828 H   0  0  0  0  0  0  0  0  0  0  0  0
    4.9486   -1.2234    3.8415 H   0  0  0  0  0  0  0  0  0  0  0  0
    4.8635    0.0962    2.7089 H   0  0  0  0  0  0  0  0  0  0  0  0
    3.1868    0.3629    4.4360 H   0  0  0  0  0  0  0  0  0  0  0  0
    1.2416    2.3562    1.2759 H   0  0  0  0  0  0  0  0  0  0  0  0
   -0.3262    2.3812    2.0794 H   0  0  0  0  0  0  0  0  0  0  0  0
    0.1051    1.0163    1.0334 H   0  0  0  0  0  0  0  0  0  0  0  0
    2.8498   -1.9577    5.0303 H   0  0  0  0  0  0  0  0  0  0  0  0
    1.3031   -1.3155    4.6433 H   0  0  0  0  0  0  0  0  0  0  0  0
    1.2509   -2.2980    2.4509 H   0  0  0  0  0  0  0  0  0  0  0  0
    2.9354   -4.3269    5.2226 H   0  0  0  0  0  0  0  0  0  0  0  0
    1.4609   -6.1990    4.9661 H   0  0  0  0  0  0  0  0  0  0  0  0
    5.6557   -7.4771    4.3267 H   0  0  0  0  0  0  0  0  0  0  0  0
    5.4964   -9.1388    4.1348 H   0  0  0  0  0  0  0  0  0  0  0  0
    7.8450   -7.8931    1.4470 H   0  0  0  0  0  0  0  0  0  0  0  0
    7.7704   -8.9055    2.8854 H   0  0  0  0  0  0  0  0  0  0  0  0
    7.6315   -7.1693    3.0373 H   0  0  0  0  0  0  0  0  0  0  0  0
    5.9679   -9.4654    0.5254 H   0  0  0  0  0  0  0  0  0  0  0  0
    4.4467   -9.6145    1.3877 H   0  0  0  0  0  0  0  0  0  0  0  0
    5.9002  -10.3166    2.0618 H   0  0  0  0  0  0  0  0  0  0  0  0
    5.5008   -7.1006    0.3993 H   0  0  0  0  0  0  0  0  0  0  0  0
    3.2654   -6.3279    0.6997 H   0  0  0  0  0  0  0  0  0  0  0  0
   -0.0853   -7.1414    3.4511 H   0  0  0  0  0  0  0  0  0  0  0  0
   -0.2759   -9.1883    2.0515 H   0  0  0  0  0  0  0  0  0  0  0  0
    0.6987  -11.3296    4.2695 H   0  0  0  0  0  0  0  0  0  0  0  0
    2.0055  -11.9391    3.2122 H   0  0  0  0  0  0  0  0  0  0  0  0
    0.4511  -11.4837    2.5256 H   0  0  0  0  0  0  0  0  0  0  0  0
    2.0683   -8.9072    4.9179 H   0  0  0  0  0  0  0  0  0  0  0  0
    4.1250  -10.9604    4.1795 H   0  0  0  0  0  0  0  0  0  0  0  0
    2.8068  -11.1033    5.3470 H   0  0  0  0  0  0  0  0  0  0  0  0
    4.0982   -9.9819    5.6615 H   0  0  0  0  0  0  0  0  0  0  0  0
    6.8112   -5.5032    1.7520 H   0  0  0  0  0  0  0  0  0  0  0  0
    5.4858   -4.8428    0.9435 H   0  0  0  0  0  0  0  0  0  0  0  0
    5.4635   -5.4674    3.9594 H   0  0  0  0  0  0  0  0  0  0  0  0
    6.0450   -4.0540    3.2422 H   0  0  0  0  0  0  0  0  0  0  0  0
    4.3131   -3.3634    4.0539 H   0  0  0  0  0  0  0  0  0  0  0  0
    2.1167   -4.5741    1.2473 H   0  0  0  0  0  0  0  0  0  0  0  0
    3.5899   -4.1079    0.3895 H   0  0  0  0  0  0  0  0  0  0  0  0
    2.2151   -3.0414    0.4099 H   0  0  0  0  0  0  0  0  0  0  0  0
  1  2  1  0
  1 39  1  0
  1 40  1  0
  1 41  1  0
  2  3  1  0
  3  4  1  0
  3 42  1  0
  3 43  1  0
  4  5  1  0
  5 37  1  0
  5  6  1  0
  5 44  1  6
  6  7  1  0
  6 45  1  0
  6 46  1  0
  7  8  1  0
  7 12  1  0
  7 47  1  1
  8  9  1  0
  9 10  1  0
  9 11  2  0
 10 48  1  0
 10 49  1  0
 10 50  1  0
 12 13  1  0
 12 51  1  0
 12 52  1  0
 13 37  1  0
 13 14  1  0
 13 53  1  6
 14 15  1  0
 15 36  1  0
 15 16  1  0
 15 54  1  1
 16 26  1  0
 16 17  1  0
 16 55  1  1
 18 17  1  1
 18 25  1  0
 18 32  1  0
 18 19  1  0
 19 20  1  0
 19 56  1  0
 19 57  1  0
 20 21  1  0
 20 22  1  0
 20 23  1  0
 21 58  1  0
 21 59  1  0
 21 60  1  0
 22 61  1  0
 22 62  1  0
 22 63  1  0
 23 24  1  0
 23 34  1  0
 23 64  1  6
 24 25  2  0
 24 65  1  0
 25 26  1  0
 26 27  2  0
 27 28  1  0
 27 66  1  0
 28 30  1  0
 28 29  1  0
 28 67  1  6
 29 30  1  0
 30 31  1  6
 30 32  1  0
 31 68  1  0
 31 69  1  0
 31 70  1  0
 32 33  1  0
 32 71  1  1
 33 72  1  0
 33 73  1  0
 33 74  1  0
 34 35  1  0
 34 75  1  0
 34 76  1  0
 35 36  1  0
 35 77  1  0
 35 78  1  0
 36 37  1  0
 36 79  1  1
 37 38  1  6
 38 80  1  0
 38 81  1  0
 38 82  1  0
M  END
>  <i_m_ct_stereo_status>  (37) 
1

>  <s_m_source_file>  (37) 
/var/tmp/pbs.5076255.sched01/tmp8nmo4hef/06hb_edth.sdf

>  <i_m_source_file_index>  (37) 
14

>  <i_lp_mmshare_version>  (37) 
48012

>  <i_f3d_flags>  (37) 
0

>  <s_epik_input>  (37) 
W0NIM11PW0NIMl1PW0NAQEhdMVtDSDJdW0NAQEhdKE9DKD1PKVtDSDNdKVtDSDJdW0NASF0oTzIpW0NAXTEoW0NIM10pW0NASF0oW0NIMl1bQ0gyXVtDQEhdKFtDSF09MylDKFtDSDJdNCkoW0NIM10pW0NIM10pW0NAQEhdMltDQEhdKE81KUMoQzNbQ0BAXTQ1Nik9W0NIXVtDQEBIXTdbQ0BdKE83KShbQ0gzXSlbQ0BIXTZbQ0gzXQ==

>  <s_epik_cmdline>  (37) 
J2VwaWtfcHl0aG9uJywgJy1waHQnLCAnMi4wJywgJy1waCcsICc3LjAnLCAnLXRuJywgJzgnLCAnLW1hJywgJzIwMCcsICctaW1hZScsICc8aW5maWxlLm1hZT4nLCAnLW9tYWUnLCAnPG91dGZpbGUubWFlPic=

>  <r_lp_tautomer_probability>  (37) 
1

>  <r_epik_Ionization_Penalty>  (37) 
2.75404e-12

>  <r_epik_Ionization_Penalty_Charging>  (37) 
0

>  <r_epik_Ionization_Penalty_Neutral>  (37) 
2.75404e-12

>  <r_epik_State_Penalty>  (37) 
-0

>  <r_epik_Charging_Adjusted_Penalty>  (37) 
0

>  <i_epik_Tot_Q>  (37) 
0

>  <i_epik_Tot_abs_Q>  (37) 
0

>  <s_epik_Chemistry_Notes>  (37) 
This compound has an ester and may undergo hydrolysis at high or low pH. This compound contains an acetal/aminal-like group ( X-CH(R)-Y where X, Y are N, S, or O) that may be acid/base labile, releasing an aldehyde.

>  <s_lp_Force_Field>  (37) 
OPLS3e

>  <r_lp_Energy>  (37) 
128.632

>  <b_lp_Chiralities_Consistent>  (37) 
1

>  <s_lp_Variant>  (37) 
11:0-1

>  <s_i_glide_gridfile>  (37) 
pfpi4k_grid

>  <i_i_glide_lignum>  (37) 
14

>  <i_i_glide_rotatable_bonds>  (37) 
5

>  <r_i_docking_score>  (37) 
-2.11123

>  <r_i_glide_ligand_efficiency>  (37) 
-0.0555586

>  <r_i_glide_ligand_efficiency_sa>  (37) 
-0.186787

>  <r_i_glide_ligand_efficiency_ln>  (37) 
-0.455243

>  <r_i_glide_gscore>  (37) 
-2.11123

>  <r_i_glide_lipo>  (37) 
-0.576783

>  <r_i_glide_hbond>  (37) 
-0.0159239

>  <r_i_glide_metal>  (37) 
-0

>  <r_i_glide_rewards>  (37) 
-0.151566

>  <r_i_glide_evdw>  (37) 
-29.6257

>  <r_i_glide_ecoul>  (37) 
-0.533281

>  <r_i_glide_erotb>  (37) 
0.221141

>  <r_i_glide_esite>  (37) 
-0.0268195

>  <r_i_glide_emodel>  (37) 
-33.654

>  <r_i_glide_energy>  (37) 
-30.159

>  <r_i_glide_einternal>  (37) 
1.2747

>  <r_i_glide_intrahb_reward>  (37) 
-0

>  <i_i_glide_confnum>  (37) 
2

>  <i_i_glide_posenum>  (37) 
1

>  <r_i_glide_eff_state_penalty>  (37) 
0

>  <ligand_id>  (37) 
11

>  <original_smiles>  (37) 
COCOC1CC(OC(C)=O)CC2OC3C4OC56CC(C)(C)C(C=C5C4=CC4OC4(C)C6C)CCC3C12C

>  <smiles>  (37) 
[H]C1=C2C3=C([H])C4([H])C([H])([H])C([H])([H])C5([H])C([H])(OC6([H])C([H])([H])C([H])(OC(=O)C([H])([H])[H])C([H])([H])C([H])(OC([H])([H])OC([H])([H])[H])C65C([H])([H])[H])C2([H])OC3(C([H])([H])C4(C([H])([H])[H])C([H])([H])[H])C([H])(C([H])([H])[H])C2(C([H])([H])[H])OC12[H]

$$$$
12:0:0
     RDKit          3D

 39 42  0  0  1  0  0  0  0  0999 V2000
    1.9622   -1.4953    2.2629 C   0  0  0  0  0  0  0  0  0  0  0  0
    2.2651   -0.4097    3.3154 C   0  0  0  0  0  0  0  0  0  0  0  0
    3.4891    0.3362    2.7212 C   0  0  0  0  0  0  0  0  0  0  0  0
    1.0557    0.3775    3.9019 C   0  0  2  0  0  0  0  0  0  0  0  0
    1.9909    0.6761    5.0845 C   0  0  0  0  0  0  0  0  0  0  0  0
    2.2277   -0.8213    4.8147 C   0  0  1  0  0  0  0  0  0  0  0  0
    0.9262   -1.5853    5.1025 C   0  0  1  0  0  0  0  0  0  0  0  0
    0.6804   -1.8872    6.5150 N   0  0  0  0  0  0  0  0  0  0  0  0
   -0.1602   -2.7724    7.0452 C   0  0  0  0  0  0  0  0  0  0  0  0
   -0.1827   -2.7745    8.3713 N   0  0  0  0  0  0  0  0  0  0  0  0
    0.7741   -1.8275    8.6148 C   0  0  0  0  0  0  0  0  0  0  0  0
    1.2999   -1.2484    7.5385 N   0  0  0  0  0  0  0  0  0  0  0  0
   -0.0386   -0.5905    4.3945 C   0  0  1  0  0  0  0  0  0  0  0  0
   -1.1649    0.0574    5.2238 C   0  0  0  0  0  0  0  0  0  0  0  0
   -1.9609   -0.6510    5.8446 O   0  0  0  0  0  0  0  0  0  0  0  0
   -1.2572    1.3969    5.2094 N   0  0  0  0  0  0  0  0  0  0  0  0
   -2.1960    2.1614    5.9620 C   0  0  0  0  0  0  0  0  0  0  0  0
   -2.9733    3.2147    5.2154 C   0  0  0  0  0  0  0  0  0  0  0  0
   -1.9109    3.6269    6.1962 C   0  0  0  0  0  0  0  0  0  0  0  0
    1.7577   -1.0574    1.2821 H   0  0  0  0  0  0  0  0  0  0  0  0
    1.0909   -2.1070    2.4940 H   0  0  0  0  0  0  0  0  0  0  0  0
    2.7967   -2.1905    2.1527 H   0  0  0  0  0  0  0  0  0  0  0  0
    3.9078    1.1383    3.3164 H   0  0  0  0  0  0  0  0  0  0  0  0
    3.2367    0.7844    1.7601 H   0  0  0  0  0  0  0  0  0  0  0  0
    4.3110   -0.3561    2.5472 H   0  0  0  0  0  0  0  0  0  0  0  0
    0.7542    1.2439    3.3163 H   0  0  0  0  0  0  0  0  0  0  0  0
    2.8117    1.3770    4.9489 H   0  0  0  0  0  0  0  0  0  0  0  0
    1.4772    0.9044    6.0200 H   0  0  0  0  0  0  0  0  0  0  0  0
    3.1533   -1.2279    5.2101 H   0  0  0  0  0  0  0  0  0  0  0  0
    0.9388   -2.5425    4.5815 H   0  0  0  0  0  0  0  0  0  0  0  0
   -0.7947   -3.3920    6.4281 H   0  0  0  0  0  0  0  0  0  0  0  0
    1.0631   -1.5378    9.6133 H   0  0  0  0  0  0  0  0  0  0  0  0
   -0.5291   -1.0654    3.5509 H   0  0  0  0  0  0  0  0  0  0  0  0
   -0.5943    1.9147    4.6505 H   0  0  0  0  0  0  0  0  0  0  0  0
   -2.7121    1.6560    6.7768 H   0  0  0  0  0  0  0  0  0  0  0  0
   -2.7634    3.3232    4.1520 H   0  0  0  0  0  0  0  0  0  0  0  0
   -4.0160    3.3312    5.5060 H   0  0  0  0  0  0  0  0  0  0  0  0
   -2.2525    4.0595    7.1345 H   0  0  0  0  0  0  0  0  0  0  0  0
   -0.9896    4.0434    5.7944 H   0  0  0  0  0  0  0  0  0  0  0  0
  1  2  1  0
  1 20  1  0
  1 21  1  0
  1 22  1  0
  2  6  1  0
  2  3  1  0
  2  4  1  0
  3 23  1  0
  3 24  1  0
  3 25  1  0
  4 13  1  0
  4  5  1  0
  4 26  1  6
  5  6  1  0
  5 27  1  0
  5 28  1  0
  6  7  1  0
  6 29  1  1
  7  8  1  0
  7 13  1  0
  7 30  1  6
  8 12  1  0
  8  9  1  0
  9 10  2  0
  9 31  1  0
 10 11  1  0
 11 12  2  0
 11 32  1  0
 13 14  1  0
 13 33  1  6
 14 15  2  0
 14 16  1  0
 16 17  1  0
 16 34  1  0
 17 19  1  0
 17 18  1  0
 17 35  1  0
 18 19  1  0
 18 36  1  0
 18 37  1  0
 19 38  1  0
 19 39  1  0
M  END
>  <i_m_ct_stereo_status>  (38) 
1

>  <s_m_source_file>  (38) 
/var/tmp/pbs.5076255.sched01/tmp8nmo4hef/06hb_edth.sdf

>  <i_m_source_file_index>  (38) 
15

>  <i_lp_mmshare_version>  (38) 
48012

>  <i_f3d_flags>  (38) 
0

>  <s_epik_input>  (38) 
bjFbY0hdbltjSF1uMVtDQEhdKFtDQEhdKFtDSDJdMilDKFtDSDNdKShbQ0gzXSlbQ0BIXTIzKVtDQEhdM0MoPU8pW05IXVtDSF00W0NIMl1bQ0gyXTQ=

>  <s_epik_cmdline>  (38) 
J2VwaWtfcHl0aG9uJywgJy1waHQnLCAnMi4wJywgJy1waCcsICc3LjAnLCAnLXRuJywgJzgnLCAnLW1hJywgJzIwMCcsICctaW1hZScsICc8aW5maWxlLm1hZT4nLCAnLW9tYWUnLCAnPG91dGZpbGUubWFlPic=

>  <r_lp_tautomer_probability>  (38) 
1

>  <r_epik_Ionization_Penalty>  (38) 
4.2328e-05

>  <r_epik_Ionization_Penalty_Charging>  (38) 
0

>  <r_epik_Ionization_Penalty_Neutral>  (38) 
4.2328e-05

>  <r_epik_State_Penalty>  (38) 
-0

>  <r_epik_Charging_Adjusted_Penalty>  (38) 
0

>  <i_epik_Tot_Q>  (38) 
0

>  <i_epik_Tot_abs_Q>  (38) 
0

>  <s_lp_Force_Field>  (38) 
OPLS3e

>  <r_lp_Energy>  (38) 
43.6903

>  <b_lp_Chiralities_Consistent>  (38) 
1

>  <s_lp_Variant>  (38) 
12:0-1

>  <s_i_glide_gridfile>  (38) 
pfpi4k_grid

>  <i_i_glide_lignum>  (38) 
15

>  <i_i_glide_rotatable_bonds>  (38) 
4

>  <r_i_docking_score>  (38) 
-2.69729

>  <r_i_glide_ligand_efficiency>  (38) 
-0.141962

>  <r_i_glide_ligand_efficiency_sa>  (38) 
-0.378813

>  <r_i_glide_ligand_efficiency_ln>  (38) 
-0.68382

>  <r_i_glide_gscore>  (38) 
-2.69729

>  <r_i_glide_lipo>  (38) 
-0.0773118

>  <r_i_glide_hbond>  (38) 
-0.256035

>  <r_i_glide_metal>  (38) 
-0

>  <r_i_glide_rewards>  (38) 
-1.63408

>  <r_i_glide_evdw>  (38) 
-13.4179

>  <r_i_glide_ecoul>  (38) 
-6.42093

>  <r_i_glide_erotb>  (38) 
1.04469

>  <r_i_glide_esite>  (38) 
-0.140515

>  <r_i_glide_emodel>  (38) 
-22.7995

>  <r_i_glide_energy>  (38) 
-19.8388

>  <r_i_glide_einternal>  (38) 
2.32979

>  <r_i_glide_intrahb_reward>  (38) 
-0

>  <i_i_glide_confnum>  (38) 
4

>  <i_i_glide_posenum>  (38) 
15

>  <r_i_glide_eff_state_penalty>  (38) 
0

>  <ligand_id>  (38) 
12

>  <original_smiles>  (38) 
CC1(C)C2CC1C(n1cncn1)C2C(=O)NC1CC1

>  <smiles>  (38) 
[H]c1nc([H])n(C2([H])C([H])(C(=O)N([H])C3([H])C([H])([H])C3([H])[H])C3([H])C([H])([H])C2([H])C3(C([H])([H])[H])C([H])([H])[H])n1

$$$$
12:0:1
     RDKit          3D

 39 42  0  0  1  0  0  0  0  0999 V2000
    2.2757   -2.2685    2.2309 C   0  0  0  0  0  0  0  0  0  0  0  0
    2.5851   -0.9115    2.9026 C   0  0  0  0  0  0  0  0  0  0  0  0
    3.8100   -0.3909    2.1090 C   0  0  0  0  0  0  0  0  0  0  0  0
    1.3748    0.0190    3.2201 C   0  0  2  0  0  0  0  0  0  0  0  0
    2.3127    0.6620    4.2521 C   0  0  0  0  0  0  0  0  0  0  0  0
    2.5493   -0.8473    4.4547 C   0  0  1  0  0  0  0  0  0  0  0  0
    1.2489   -1.4816    4.9660 C   0  0  1  0  0  0  0  0  0  0  0  0
    1.0149   -1.3477    6.4017 N   0  0  0  0  0  0  0  0  0  0  0  0
    0.2570   -2.1037    7.1977 C   0  0  0  0  0  0  0  0  0  0  0  0
    0.2179   -1.6997    8.4575 N   0  0  0  0  0  0  0  0  0  0  0  0
    1.0391   -0.6050    8.3671 C   0  0  0  0  0  0  0  0  0  0  0  0
    1.5370   -0.3515    7.1591 N   0  0  0  0  0  0  0  0  0  0  0  0
    0.2816   -0.7493    3.9913 C   0  0  1  0  0  0  0  0  0  0  0  0
   -0.8508    0.1223    4.5803 C   0  0  0  0  0  0  0  0  0  0  0  0
   -1.5618   -0.3040    5.4966 O   0  0  0  0  0  0  0  0  0  0  0  0
   -1.0590    1.3210    4.0167 N   0  0  0  0  0  0  0  0  0  0  0  0
   -2.0505    2.2614    4.4318 C   0  0  0  0  0  0  0  0  0  0  0  0
   -2.8401    2.9572    3.3503 C   0  0  0  0  0  0  0  0  0  0  0  0
   -1.8173    3.7261    4.1458 C   0  0  0  0  0  0  0  0  0  0  0  0
    2.0698   -2.1504    1.1626 H   0  0  0  0  0  0  0  0  0  0  0  0
    1.4073   -2.7812    2.6376 H   0  0  0  0  0  0  0  0  0  0  0  0
    3.1119   -2.9658    2.3367 H   0  0  0  0  0  0  0  0  0  0  0  0
    4.2345    0.5489    2.4375 H   0  0  0  0  0  0  0  0  0  0  0  0
    3.5581   -0.2518    1.0567 H   0  0  0  0  0  0  0  0  0  0  0  0
    4.6305   -1.1064    2.1551 H   0  0  0  0  0  0  0  0  0  0  0  0
    1.0716    0.6663    2.3961 H   0  0  0  0  0  0  0  0  0  0  0  0
    3.1329    1.2875    3.9108 H   0  0  0  0  0  0  0  0  0  0  0  0
    1.7934    1.1756    5.0654 H   0  0  0  0  0  0  0  0  0  0  0  0
    3.4751   -1.1163    4.9591 H   0  0  0  0  0  0  0  0  0  0  0  0
    1.2573   -2.5506    4.7572 H   0  0  0  0  0  0  0  0  0  0  0  0
   -0.2962   -2.9462    6.8150 H   0  0  0  0  0  0  0  0  0  0  0  0
    1.2554    0.0282    9.2180 H   0  0  0  0  0  0  0  0  0  0  0  0
   -0.1863   -1.4659    3.3254 H   0  0  0  0  0  0  0  0  0  0  0  0
   -0.4778    1.5960    3.2341 H   0  0  0  0  0  0  0  0  0  0  0  0
   -2.5739    2.0507    5.3633 H   0  0  0  0  0  0  0  0  0  0  0  0
   -2.5961    2.7077    2.3185 H   0  0  0  0  0  0  0  0  0  0  0  0
   -3.8930    3.1304    3.5566 H   0  0  0  0  0  0  0  0  0  0  0  0
   -2.1867    4.4343    4.8811 H   0  0  0  0  0  0  0  0  0  0  0  0
   -0.8997    4.0140    3.6360 H   0  0  0  0  0  0  0  0  0  0  0  0
  1  2  1  0
  1 20  1  0
  1 21  1  0
  1 22  1  0
  2  6  1  0
  2  3  1  0
  2  4  1  0
  3 23  1  0
  3 24  1  0
  3 25  1  0
  4 13  1  0
  4  5  1  0
  4 26  1  6
  5  6  1  0
  5 27  1  0
  5 28  1  0
  6  7  1  0
  6 29  1  1
  7  8  1  0
  7 13  1  0
  7 30  1  6
  8 12  1  0
  8  9  1  0
  9 10  2  0
  9 31  1  0
 10 11  1  0
 11 12  2  0
 11 32  1  0
 13 14  1  0
 13 33  1  6
 14 15  2  0
 14 16  1  0
 16 17  1  0
 16 34  1  0
 17 19  1  0
 17 18  1  0
 17 35  1  0
 18 19  1  0
 18 36  1  0
 18 37  1  0
 19 38  1  0
 19 39  1  0
M  END
>  <i_m_ct_stereo_status>  (39) 
1

>  <s_m_source_file>  (39) 
/var/tmp/pbs.5076255.sched01/tmp8nmo4hef/06hb_edth.sdf

>  <i_m_source_file_index>  (39) 
15

>  <i_lp_mmshare_version>  (39) 
48012

>  <i_f3d_flags>  (39) 
0

>  <s_epik_input>  (39) 
bjFbY0hdbltjSF1uMVtDQEhdKFtDQEhdKFtDSDJdMilDKFtDSDNdKShbQ0gzXSlbQ0BIXTIzKVtDQEhdM0MoPU8pW05IXVtDSF00W0NIMl1bQ0gyXTQ=

>  <s_epik_cmdline>  (39) 
J2VwaWtfcHl0aG9uJywgJy1waHQnLCAnMi4wJywgJy1waCcsICc3LjAnLCAnLXRuJywgJzgnLCAnLW1hJywgJzIwMCcsICctaW1hZScsICc8aW5maWxlLm1hZT4nLCAnLW9tYWUnLCAnPG91dGZpbGUubWFlPic=

>  <r_lp_tautomer_probability>  (39) 
1

>  <r_epik_Ionization_Penalty>  (39) 
4.2328e-05

>  <r_epik_Ionization_Penalty_Charging>  (39) 
0

>  <r_epik_Ionization_Penalty_Neutral>  (39) 
4.2328e-05

>  <r_epik_State_Penalty>  (39) 
-0

>  <r_epik_Charging_Adjusted_Penalty>  (39) 
0

>  <i_epik_Tot_Q>  (39) 
0

>  <i_epik_Tot_abs_Q>  (39) 
0

>  <s_lp_Force_Field>  (39) 
OPLS3e

>  <r_lp_Energy>  (39) 
43.6903

>  <b_lp_Chiralities_Consistent>  (39) 
1

>  <s_lp_Variant>  (39) 
12:0-1

>  <s_i_glide_gridfile>  (39) 
pfpi4k_grid

>  <i_i_glide_lignum>  (39) 
15

>  <i_i_glide_rotatable_bonds>  (39) 
4

>  <r_i_docking_score>  (39) 
-2.33321

>  <r_i_glide_ligand_efficiency>  (39) 
-0.1228

>  <r_i_glide_ligand_efficiency_sa>  (39) 
-0.327681

>  <r_i_glide_ligand_efficiency_ln>  (39) 
-0.591518

>  <r_i_glide_gscore>  (39) 
-2.33321

>  <r_i_glide_lipo>  (39) 
-0.0335722

>  <r_i_glide_hbond>  (39) 
-0.0919854

>  <r_i_glide_metal>  (39) 
-0

>  <r_i_glide_rewards>  (39) 
-1.63408

>  <r_i_glide_evdw>  (39) 
-15.3484

>  <r_i_glide_ecoul>  (39) 
-4.99542

>  <r_i_glide_erotb>  (39) 
1.04469

>  <r_i_glide_esite>  (39) 
-0.101523

>  <r_i_glide_emodel>  (39) 
-22.8371

>  <r_i_glide_energy>  (39) 
-20.3439

>  <r_i_glide_einternal>  (39) 
2.12447

>  <r_i_glide_intrahb_reward>  (39) 
-0

>  <i_i_glide_confnum>  (39) 
4

>  <i_i_glide_posenum>  (39) 
9

>  <r_i_glide_eff_state_penalty>  (39) 
0

>  <ligand_id>  (39) 
12

>  <original_smiles>  (39) 
CC1(C)C2CC1C(n1cncn1)C2C(=O)NC1CC1

>  <smiles>  (39) 
[H]c1nc([H])n(C2([H])C([H])(C(=O)N([H])C3([H])C([H])([H])C3([H])[H])C3([H])C([H])([H])C2([H])C3(C([H])([H])[H])C([H])([H])[H])n1

$$$$
12:0:2
     RDKit          3D

 39 42  0  0  1  0  0  0  0  0999 V2000
    3.1275   -1.5592    0.9694 C   0  0  0  0  0  0  0  0  0  0  0  0
    3.4340   -0.6698    2.1838 C   0  0  0  0  0  0  0  0  0  0  0  0
    4.9567   -0.3779    2.0237 C   0  0  0  0  0  0  0  0  0  0  0  0
    2.4197    0.4746    2.4918 C   0  0  2  0  0  0  0  0  0  0  0  0
    3.0143    0.4270    3.9102 C   0  0  0  0  0  0  0  0  0  0  0  0
    2.8366   -1.0792    3.5698 C   0  0  1  0  0  0  0  0  0  0  0  0
    1.3443   -1.3557    3.4274 C   0  0  1  0  0  0  0  0  0  0  0  0
    0.6733   -1.5681    4.7191 N   0  0  0  0  0  0  0  0  0  0  0  0
    0.5833   -0.8606    5.8632 C   0  0  0  0  0  0  0  0  0  0  0  0
   -0.1831   -1.4110    6.8006 N   0  0  0  0  0  0  0  0  0  0  0  0
   -0.5918   -2.5277    6.1320 C   0  0  0  0  0  0  0  0  0  0  0  0
   -0.1018   -2.6795    4.9051 N   0  0  0  0  0  0  0  0  0  0  0  0
    0.9871   -0.1019    2.5671 C   0  0  1  0  0  0  0  0  0  0  0  0
   -0.0983    0.8366    3.1014 C   0  0  0  0  0  0  0  0  0  0  0  0
   -1.0647    0.3476    3.7035 O   0  0  0  0  0  0  0  0  0  0  0  0
    0.0113    2.1571    2.8726 N   0  0  0  0  0  0  0  0  0  0  0  0
   -0.8593    3.2127    3.3161 C   0  0  0  0  0  0  0  0  0  0  0  0
   -1.5133    3.1683    4.6857 C   0  0  0  0  0  0  0  0  0  0  0  0
   -2.3517    2.9731    3.4388 C   0  0  0  0  0  0  0  0  0  0  0  0
    3.3504   -1.0439    0.0256 H   0  0  0  0  0  0  0  0  0  0  0  0
    2.0631   -1.8558    0.8857 H   0  0  0  0  0  0  0  0  0  0  0  0
    3.6923   -2.4962    1.0003 H   0  0  0  0  0  0  0  0  0  0  0  0
    5.4350    0.2061    2.8019 H   0  0  0  0  0  0  0  0  0  0  0  0
    5.1323    0.1590    1.0890 H   0  0  0  0  0  0  0  0  0  0  0  0
    5.5151   -1.3146    1.9994 H   0  0  0  0  0  0  0  0  0  0  0  0
    2.5880    1.4182    1.9561 H   0  0  0  0  0  0  0  0  0  0  0  0
    4.0349    0.7858    4.0656 H   0  0  0  0  0  0  0  0  0  0  0  0
    2.3777    0.8900    4.6611 H   0  0  0  0  0  0  0  0  0  0  0  0
    3.4302   -1.7913    4.1497 H   0  0  0  0  0  0  0  0  0  0  0  0
    1.1721   -2.2482    2.8328 H   0  0  0  0  0  0  0  0  0  0  0  0
    1.0610    0.1013    6.0307 H   0  0  0  0  0  0  0  0  0  0  0  0
   -1.2969   -3.2351    6.5583 H   0  0  0  0  0  0  0  0  0  0  0  0
    0.6469   -0.3805    1.5699 H   0  0  0  0  0  0  0  0  0  0  0  0
    0.7564    2.4687    2.2592 H   0  0  0  0  0  0  0  0  0  0  0  0
   -0.5804    4.2074    2.9590 H   0  0  0  0  0  0  0  0  0  0  0  0
   -1.2852    2.3076    5.3164 H   0  0  0  0  0  0  0  0  0  0  0  0
   -1.6568    4.1052    5.2154 H   0  0  0  0  0  0  0  0  0  0  0  0
   -3.0198    3.7754    3.1456 H   0  0  0  0  0  0  0  0  0  0  0  0
   -2.6945    1.9793    3.1664 H   0  0  0  0  0  0  0  0  0  0  0  0
  1  2  1  0
  1 20  1  0
  1 21  1  0
  1 22  1  0
  2  6  1  0
  2  3  1  0
  2  4  1  0
  3 23  1  0
  3 24  1  0
  3 25  1  0
  4 13  1  0
  4  5  1  0
  4 26  1  6
  5  6  1  0
  5 27  1  0
  5 28  1  0
  6  7  1  0
  6 29  1  1
  7  8  1  0
  7 13  1  0
  7 30  1  6
  8 12  1  0
  8  9  1  0
  9 10  2  0
  9 31  1  0
 10 11  1  0
 11 12  2  0
 11 32  1  0
 13 14  1  0
 13 33  1  6
 14 15  2  0
 14 16  1  0
 16 17  1  0
 16 34  1  0
 17 19  1  0
 17 18  1  0
 17 35  1  0
 18 19  1  0
 18 36  1  0
 18 37  1  0
 19 38  1  0
 19 39  1  0
M  END
>  <i_m_ct_stereo_status>  (40) 
1

>  <s_m_source_file>  (40) 
/var/tmp/pbs.5076255.sched01/tmp8nmo4hef/06hb_edth.sdf

>  <i_m_source_file_index>  (40) 
15

>  <i_lp_mmshare_version>  (40) 
48012

>  <i_f3d_flags>  (40) 
0

>  <s_epik_input>  (40) 
bjFbY0hdbltjSF1uMVtDQEhdKFtDQEhdKFtDSDJdMilDKFtDSDNdKShbQ0gzXSlbQ0BIXTIzKVtDQEhdM0MoPU8pW05IXVtDSF00W0NIMl1bQ0gyXTQ=

>  <s_epik_cmdline>  (40) 
J2VwaWtfcHl0aG9uJywgJy1waHQnLCAnMi4wJywgJy1waCcsICc3LjAnLCAnLXRuJywgJzgnLCAnLW1hJywgJzIwMCcsICctaW1hZScsICc8aW5maWxlLm1hZT4nLCAnLW9tYWUnLCAnPG91dGZpbGUubWFlPic=

>  <r_lp_tautomer_probability>  (40) 
1

>  <r_epik_Ionization_Penalty>  (40) 
4.2328e-05

>  <r_epik_Ionization_Penalty_Charging>  (40) 
0

>  <r_epik_Ionization_Penalty_Neutral>  (40) 
4.2328e-05

>  <r_epik_State_Penalty>  (40) 
-0

>  <r_epik_Charging_Adjusted_Penalty>  (40) 
0

>  <i_epik_Tot_Q>  (40) 
0

>  <i_epik_Tot_abs_Q>  (40) 
0

>  <s_lp_Force_Field>  (40) 
OPLS3e

>  <r_lp_Energy>  (40) 
43.6903

>  <b_lp_Chiralities_Consistent>  (40) 
1

>  <s_lp_Variant>  (40) 
12:0-1

>  <s_i_glide_gridfile>  (40) 
pfpi4k_grid

>  <i_i_glide_lignum>  (40) 
15

>  <i_i_glide_rotatable_bonds>  (40) 
4

>  <r_i_docking_score>  (40) 
-2.00983

>  <r_i_glide_ligand_efficiency>  (40) 
-0.10578

>  <r_i_glide_ligand_efficiency_sa>  (40) 
-0.282265

>  <r_i_glide_ligand_efficiency_ln>  (40) 
-0.509535

>  <r_i_glide_gscore>  (40) 
-2.00983

>  <r_i_glide_lipo>  (40) 
-0.146086

>  <r_i_glide_hbond>  (40) 
0

>  <r_i_glide_metal>  (40) 
-0

>  <r_i_glide_rewards>  (40) 
-1.63408

>  <r_i_glide_evdw>  (40) 
-17.6517

>  <r_i_glide_ecoul>  (40) 
-1.49234

>  <r_i_glide_erotb>  (40) 
1.04469

>  <r_i_glide_esite>  (40) 
-0.167914

>  <r_i_glide_emodel>  (40) 
-14.7561

>  <r_i_glide_energy>  (40) 
-19.1441

>  <r_i_glide_einternal>  (40) 
13.7313

>  <r_i_glide_intrahb_reward>  (40) 
-0

>  <i_i_glide_confnum>  (40) 
4

>  <i_i_glide_posenum>  (40) 
14

>  <r_i_glide_eff_state_penalty>  (40) 
0

>  <ligand_id>  (40) 
12

>  <original_smiles>  (40) 
CC1(C)C2CC1C(n1cncn1)C2C(=O)NC1CC1

>  <smiles>  (40) 
[H]c1nc([H])n(C2([H])C([H])(C(=O)N([H])C3([H])C([H])([H])C3([H])[H])C3([H])C([H])([H])C2([H])C3(C([H])([H])[H])C([H])([H])[H])n1

$$$$
13:0:0
     RDKit          3D

 85 92  0  0  1  0  0  0  0  0999 V2000
    5.7652   -7.1720    3.3265 C   0  0  0  0  0  0  0  0  0  0  0  0
    4.2407   -6.9935    3.5890 C   0  0  2  0  0  0  0  0  0  0  0  0
    3.4991   -8.3439    3.1702 C   0  0  0  0  0  0  0  0  0  0  0  0
    2.0154   -8.3259    2.6337 C   0  0  2  0  0  0  0  0  0  0  0  0
    2.0238   -7.1623    1.6673 C   0  0  0  0  0  0  0  0  0  0  0  0
    2.2303   -5.8978    2.4852 C   0  0  1  0  0  0  0  0  0  0  0  0
    1.2652   -5.9899    3.4666 O   0  0  0  0  0  0  0  0  0  0  0  0
    1.3905   -6.7114    4.7390 C   0  0  1  0  0  0  0  0  0  0  0  0
    2.3751   -7.0231    5.8565 C   0  0  0  0  0  0  0  0  0  0  0  0
    0.1581   -5.9798    5.0150 C   0  0  2  0  0  0  0  0  0  0  0  0
    0.9309   -4.7439    5.5873 C   0  0  0  0  0  0  0  0  0  0  0  0
    0.7040   -4.3939    6.7484 O   0  0  0  0  0  0  0  0  0  0  0  0
    1.8856   -3.8399    4.6825 C   0  0  2  0  0  0  0  0  0  0  0  0
    1.8210   -2.5089    5.2361 O   0  0  0  0  0  0  0  0  0  0  0  0
    1.0491   -2.7486    4.0392 C   0  0  1  0  0  0  0  0  0  0  0  0
    1.4488   -1.9328    2.8464 C   0  0  0  0  0  0  0  0  0  0  0  0
    2.5959   -0.9348    3.1035 C   0  0  1  0  0  0  0  0  0  0  0  0
    2.1704    0.0430    4.0569 O   0  0  0  0  0  0  0  0  0  0  0  0
    1.6462    1.2093    3.5255 C   0  0  2  0  0  0  0  0  0  0  0  0
    2.6306    2.1670    3.4203 O   0  0  0  0  0  0  0  0  0  0  0  0
    2.2339    3.4258    2.8857 C   0  0  0  0  0  0  0  0  0  0  0  0
    1.1931    4.0675    3.8169 C   0  0  1  0  0  0  0  0  0  0  0  0
    0.7044    5.2839    3.2857 O   0  0  0  0  0  0  0  0  0  0  0  0
    0.0274    3.0830    4.0610 C   0  0  1  0  0  0  0  0  0  0  0  0
   -0.7355    2.8893    2.8836 O   0  0  0  0  0  0  0  0  0  0  0  0
    0.5857    1.7078    4.5530 C   0  0  1  0  0  0  0  0  0  0  0  0
   -0.5365    0.8384    4.6438 O   0  0  0  0  0  0  0  0  0  0  0  0
    3.9741   -1.5783    3.4769 C   0  0  0  0  0  0  0  0  0  0  0  0
    5.0197   -0.8514    2.5764 C   0  0  0  0  0  0  0  0  0  0  0  0
    4.4581   -1.2010    4.8989 C   0  0  0  0  0  0  0  0  0  0  0  0
    3.9734   -3.1158    3.1958 C   0  0  0  0  0  0  0  0  0  0  0  0
    4.5355   -3.5707    2.0650 C   0  0  0  0  0  0  0  0  0  0  0  0
    4.4008   -4.9861    1.9656 C   0  0  0  0  0  0  0  0  0  0  0  0
    4.7956   -5.6790    1.0371 O   0  0  0  0  0  0  0  0  0  0  0  0
    3.5876   -5.5862    3.1193 C   0  0  2  0  0  0  0  0  0  0  0  0
    3.3928   -4.2550    4.1358 C   0  0  2  0  0  0  0  0  0  0  0  0
    4.4178   -4.2741    5.3115 C   0  0  0  0  0  0  0  0  0  0  0  0
    0.3659   -7.5955    4.7227 C   0  0  1  0  0  0  0  0  0  0  0  0
    0.6488   -8.5382    3.5077 C   0  0  0  0  0  0  0  0  0  0  0  0
   -0.5816   -8.4552    2.5854 C   0  0  0  0  0  0  0  0  0  0  0  0
    0.7232   -9.9886    4.0215 C   0  0  0  0  0  0  0  0  0  0  0  0
    6.0206   -7.4193    2.2953 H   0  0  0  0  0  0  0  0  0  0  0  0
    6.1290   -8.0160    3.9200 H   0  0  0  0  0  0  0  0  0  0  0  0
    6.3548   -6.3084    3.6370 H   0  0  0  0  0  0  0  0  0  0  0  0
    4.3634   -6.9769    4.6446 H   0  0  0  0  0  0  0  0  0  0  0  0
    4.1007   -8.8046    2.3922 H   0  0  0  0  0  0  0  0  0  0  0  0
    3.5808   -9.0689    3.9788 H   0  0  0  0  0  0  0  0  0  0  0  0
    1.9970   -9.2035    1.9765 H   0  0  0  0  0  0  0  0  0  0  0  0
    2.8282   -7.2747    0.9470 H   0  0  0  0  0  0  0  0  0  0  0  0
    1.1079   -7.1223    1.0755 H   0  0  0  0  0  0  0  0  0  0  0  0
    1.9189   -5.0735    1.8381 H   0  0  0  0  0  0  0  0  0  0  0  0
    1.8356   -7.2150    6.7776 H   0  0  0  0  0  0  0  0  0  0  0  0
    3.0458   -6.2307    6.0956 H   0  0  0  0  0  0  0  0  0  0  0  0
    2.8808   -7.9604    5.6687 H   0  0  0  0  0  0  0  0  0  0  0  0
   -0.6836   -5.7074    4.3901 H   0  0  0  0  0  0  0  0  0  0  0  0
   -0.0299   -2.7597    4.2376 H   0  0  0  0  0  0  0  0  0  0  0  0
    1.6899   -2.6252    2.0418 H   0  0  0  0  0  0  0  0  0  0  0  0
    0.5747   -1.3805    2.5186 H   0  0  0  0  0  0  0  0  0  0  0  0
    2.7275   -0.4474    2.1369 H   0  0  0  0  0  0  0  0  0  0  0  0
    1.1772    1.0659    2.5513 H   0  0  0  0  0  0  0  0  0  0  0  0
    3.1013    4.0779    2.7863 H   0  0  0  0  0  0  0  0  0  0  0  0
    1.8470    3.2779    1.8786 H   0  0  0  0  0  0  0  0  0  0  0  0
    1.6671    4.2894    4.7773 H   0  0  0  0  0  0  0  0  0  0  0  0
    0.5020    5.1557    2.3534 H   0  0  0  0  0  0  0  0  0  0  0  0
   -0.6339    3.5015    4.8310 H   0  0  0  0  0  0  0  0  0  0  0  0
   -0.3518    3.4219    2.1712 H   0  0  0  0  0  0  0  0  0  0  0  0
    1.0668    1.8201    5.5281 H   0  0  0  0  0  0  0  0  0  0  0  0
   -0.9192    0.8239    3.7865 H   0  0  0  0  0  0  0  0  0  0  0  0
    5.0566    0.2134    2.8082 H   0  0  0  0  0  0  0  0  0  0  0  0
    4.7959   -0.9106    1.5096 H   0  0  0  0  0  0  0  0  0  0  0  0
    6.0273   -1.2437    2.7262 H   0  0  0  0  0  0  0  0  0  0  0  0
    4.4994   -0.1188    5.0223 H   0  0  0  0  0  0  0  0  0  0  0  0
    5.4673   -1.5668    5.0771 H   0  0  0  0  0  0  0  0  0  0  0  0
    3.8366   -1.5670    5.7067 H   0  0  0  0  0  0  0  0  0  0  0  0
    5.0031   -3.0148    1.2865 H   0  0  0  0  0  0  0  0  0  0  0  0
    4.7494   -5.2431    5.6612 H   0  0  0  0  0  0  0  0  0  0  0  0
    4.0353   -3.7526    6.1882 H   0  0  0  0  0  0  0  0  0  0  0  0
    5.3609   -3.8087    5.0296 H   0  0  0  0  0  0  0  0  0  0  0  0
    0.1719   -8.1740    5.6328 H   0  0  0  0  0  0  0  0  0  0  0  0
   -1.4769   -8.8056    3.0961 H   0  0  0  0  0  0  0  0  0  0  0  0
   -0.4597   -9.0666    1.6950 H   0  0  0  0  0  0  0  0  0  0  0  0
   -0.7759   -7.4369    2.2607 H   0  0  0  0  0  0  0  0  0  0  0  0
   -0.1823  -10.2713    4.5503 H   0  0  0  0  0  0  0  0  0  0  0  0
    1.5547  -10.1345    4.7139 H   0  0  0  0  0  0  0  0  0  0  0  0
    0.8487  -10.7074    3.2079 H   0  0  0  0  0  0  0  0  0  0  0  0
  1  2  1  0
  1 42  1  0
  1 43  1  0
  1 44  1  0
  2 35  1  0
  2  3  1  0
  2 45  1  1
  3  4  1  0
  3 46  1  0
  3 47  1  0
  4 39  1  0
  4  5  1  0
  4 48  1  6
  5  6  1  0
  5 49  1  0
  5 50  1  0
  6 35  1  0
  6  7  1  0
  6 51  1  6
  7  8  1  0
  8 38  1  0
  8  9  1  1
  8 10  1  0
  9 52  1  0
  9 53  1  0
  9 54  1  0
 10 11  1  0
 10 38  1  0
 10 55  1  6
 11 12  2  0
 11 13  1  0
 13 15  1  0
 13 36  1  0
 13 14  1  1
 14 15  1  0
 15 16  1  0
 15 56  1  1
 16 17  1  0
 16 57  1  0
 16 58  1  0
 17 18  1  0
 17 28  1  0
 17 59  1  6
 18 19  1  0
 19 26  1  0
 19 20  1  0
 19 60  1  6
 20 21  1  0
 21 22  1  0
 21 61  1  0
 21 62  1  0
 22 23  1  0
 22 24  1  0
 22 63  1  1
 23 64  1  0
 24 25  1  0
 24 26  1  0
 24 65  1  1
 25 66  1  0
 26 27  1  0
 26 67  1  1
 27 68  1  0
 28 29  1  0
 28 30  1  0
 28 31  1  0
 29 69  1  0
 29 70  1  0
 29 71  1  0
 30 72  1  0
 30 73  1  0
 30 74  1  0
 31 36  1  0
 31 32  2  0
 32 33  1  0
 32 75  1  0
 33 34  2  0
 35 33  1  6
 35 36  1  0
 36 37  1  1
 37 76  1  0
 37 77  1  0
 37 78  1  0
 38 39  1  0
 38 79  1  1
 39 40  1  0
 39 41  1  0
 40 80  1  0
 40 81  1  0
 40 82  1  0
 41 83  1  0
 41 84  1  0
 41 85  1  0
M  END
>  <i_m_ct_stereo_status>  (41) 
1

>  <s_m_source_file>  (41) 
/var/tmp/pbs.5076255.sched01/tmp8nmo4hef/06hb_edth.sdf

>  <i_m_source_file_index>  (41) 
16

>  <i_lp_mmshare_version>  (41) 
48012

>  <i_f3d_flags>  (41) 
0

>  <s_epik_input>  (41) 
Tz1DMVtDSF0yW0NAQF0oTzMpKFtDSDNdKVtDQEBIXTJDKFtDSDNdKShbQ0gzXSlbQ0BIXShbQ0gyXVtDQEhdNFtDSDNdKVtDSDJdW0NAQEhdM1tDQEBdNChDKD1PKVtDSF01KVtDQEBdNihbQ0gzXSlDPTVDKFtDSDNdKShbQ0gzXSlbQ0BASF0oW0NIMl1bQ0BASF0oW0NAQF0xNjcpTzcpT1tDQEBIXThPW0NIMl1bQ0BASF0oW09IXSlbQ0BASF0oW09IXSlbQ0BIXThbT0hd

>  <s_epik_cmdline>  (41) 
J2VwaWtfcHl0aG9uJywgJy1waHQnLCAnMi4wJywgJy1waCcsICc3LjAnLCAnLXRuJywgJzgnLCAnLW1hJywgJzIwMCcsICctaW1hZScsICc8aW5maWxlLm1hZT4nLCAnLW9tYWUnLCAnPG91dGZpbGUubWFlPic=

>  <r_lp_tautomer_probability>  (41) 
1

>  <r_epik_Ionization_Penalty>  (41) 
1.67385e-06

>  <r_epik_Ionization_Penalty_Charging>  (41) 
0

>  <r_epik_Ionization_Penalty_Neutral>  (41) 
1.67385e-06

>  <r_epik_State_Penalty>  (41) 
-0

>  <r_epik_Charging_Adjusted_Penalty>  (41) 
0

>  <i_epik_Tot_Q>  (41) 
0

>  <i_epik_Tot_abs_Q>  (41) 
0

>  <s_epik_Chemistry_Notes>  (41) 
This compound contains an acetal/aminal-like group ( X-CH(R)-Y where X, Y are N, S, or O) that may be acid/base labile, releasing an aldehyde.

>  <s_lp_Force_Field>  (41) 
OPLS3e

>  <r_lp_Energy>  (41) 
263.546

>  <b_lp_Chiralities_Consistent>  (41) 
1

>  <s_lp_Variant>  (41) 
13:0-1

>  <s_i_glide_gridfile>  (41) 
pfpi4k_grid

>  <i_i_glide_lignum>  (41) 
16

>  <i_i_glide_rotatable_bonds>  (41) 
5

>  <r_i_docking_score>  (41) 
-3.43417

>  <r_i_glide_ligand_efficiency>  (41) 
-0.0837602

>  <r_i_glide_ligand_efficiency_sa>  (41) 
-0.288824

>  <r_i_glide_ligand_efficiency_ln>  (41) 
-0.728571

>  <r_i_glide_gscore>  (41) 
-3.43417

>  <r_i_glide_lipo>  (41) 
-0.185452

>  <r_i_glide_hbond>  (41) 
0

>  <r_i_glide_metal>  (41) 
-0

>  <r_i_glide_rewards>  (41) 
-0.0180976

>  <r_i_glide_evdw>  (41) 
-34.3892

>  <r_i_glide_ecoul>  (41) 
-10.2215

>  <r_i_glide_erotb>  (41) 
0.0347413

>  <r_i_glide_esite>  (41) 
-0.0126758

>  <r_i_glide_emodel>  (41) 
-53.2246

>  <r_i_glide_energy>  (41) 
-44.6107

>  <r_i_glide_einternal>  (41) 
3.10445

>  <r_i_glide_intrahb_reward>  (41) 
-0

>  <i_i_glide_confnum>  (41) 
4

>  <i_i_glide_posenum>  (41) 
31

>  <r_i_glide_eff_state_penalty>  (41) 
0

>  <ligand_id>  (41) 
13

>  <original_smiles>  (41) 
CC1CC2CC3OC4(C)C(C(=O)C56OC5CC(OC5OCC(O)C(O)C5O)C(C)(C)C5=CC(=O)C13C56C)C4C2(C)C

>  <smiles>  (41) 
[H]OC1([H])C([H])([H])OC([H])(OC2([H])C([H])([H])C3([H])OC34C(=O)C3([H])C5([H])C3(C([H])([H])[H])OC3([H])C([H])([H])C([H])(C([H])([H])C([H])(C([H])([H])[H])C36C(=O)C([H])=C(C2(C([H])([H])[H])C([H])([H])[H])C46C([H])([H])[H])C5(C([H])([H])[H])C([H])([H])[H])C([H])(O[H])C1([H])O[H]

$$$$
13:0:1
     RDKit          3D

 85 92  0  0  1  0  0  0  0  0999 V2000
    0.8248   -1.0574    9.0549 C   0  0  0  0  0  0  0  0  0  0  0  0
    0.7075    0.0099    7.9397 C   0  0  2  0  0  0  0  0  0  0  0  0
   -0.4959    1.0106    8.3063 C   0  0  0  0  0  0  0  0  0  0  0  0
   -1.3748    1.6920    7.1865 C   0  0  2  0  0  0  0  0  0  0  0  0
   -1.5620    0.5998    6.1467 C   0  0  0  0  0  0  0  0  0  0  0  0
   -0.2073    0.2465    5.5755 C   0  0  1  0  0  0  0  0  0  0  0  0
    0.2739    1.4586    5.2169 O   0  0  0  0  0  0  0  0  0  0  0  0
    0.9746    2.4362    6.0106 C   0  0  1  0  0  0  0  0  0  0  0  0
    2.0334    2.5284    7.1532 C   0  0  0  0  0  0  0  0  0  0  0  0
    1.2233    3.0682    4.7323 C   0  0  2  0  0  0  0  0  0  0  0  0
    2.5423    2.2134    4.5133 C   0  0  0  0  0  0  0  0  0  0  0  0
    3.6124    2.8095    4.4920 O   0  0  0  0  0  0  0  0  0  0  0  0
    2.5152    0.6361    4.3331 C   0  0  2  0  0  0  0  0  0  0  0  0
    3.6003    0.3012    3.4573 O   0  0  0  0  0  0  0  0  0  0  0  0
    2.3054    0.3305    2.8593 C   0  0  1  0  0  0  0  0  0  0  0  0
    1.8246   -0.9876    2.3302 C   0  0  0  0  0  0  0  0  0  0  0  0
    2.8474   -2.1427    2.4541 C   0  0  1  0  0  0  0  0  0  0  0  0
    4.0295   -1.9674    1.6645 O   0  0  0  0  0  0  0  0  0  0  0  0
    3.8769   -1.9742    0.2823 C   0  0  2  0  0  0  0  0  0  0  0  0
    3.2947   -3.1833   -0.1106 O   0  0  0  0  0  0  0  0  0  0  0  0
    3.0499   -3.3063   -1.5024 C   0  0  0  0  0  0  0  0  0  0  0  0
    4.4011   -3.3230   -2.2300 C   0  0  1  0  0  0  0  0  0  0  0  0
    4.2195   -3.4744   -3.6253 O   0  0  0  0  0  0  0  0  0  0  0  0
    5.1951   -2.0493   -1.8716 C   0  0  1  0  0  0  0  0  0  0  0  0
    4.5757   -0.8867   -2.4235 O   0  0  0  0  0  0  0  0  0  0  0  0
    5.2870   -1.9032   -0.3314 C   0  0  1  0  0  0  0  0  0  0  0  0
    5.9495   -0.6842   -0.0597 O   0  0  0  0  0  0  0  0  0  0  0  0
    3.2348   -2.5644    3.9102 C   0  0  0  0  0  0  0  0  0  0  0  0
    3.1548   -4.1203    3.9206 C   0  0  0  0  0  0  0  0  0  0  0  0
    4.7264   -2.3193    4.2586 C   0  0  0  0  0  0  0  0  0  0  0  0
    2.2454   -1.9438    4.9428 C   0  0  0  0  0  0  0  0  0  0  0  0
    1.2391   -2.6952    5.4204 C   0  0  0  0  0  0  0  0  0  0  0  0
    0.4176   -1.9387    6.3022 C   0  0  0  0  0  0  0  0  0  0  0  0
   -0.5935   -2.3728    6.8715 O   0  0  0  0  0  0  0  0  0  0  0  0
    0.8535   -0.4853    6.4022 C   0  0  2  0  0  0  0  0  0  0  0  0
    2.2754   -0.4850    5.5391 C   0  0  2  0  0  0  0  0  0  0  0  0
    3.5225   -0.5351    6.4816 C   0  0  0  0  0  0  0  0  0  0  0  0
    0.2633    3.5882    5.9648 C   0  0  1  0  0  0  0  0  0  0  0  0
   -1.1288    3.1870    6.5847 C   0  0  0  0  0  0  0  0  0  0  0  0
   -2.1839    3.4615    5.5014 C   0  0  0  0  0  0  0  0  0  0  0  0
   -1.4062    4.1521    7.7589 C   0  0  0  0  0  0  0  0  0  0  0  0
   -0.0732   -1.6603    9.1820 H   0  0  0  0  0  0  0  0  0  0  0  0
    0.9928   -0.5676   10.0080 H   0  0  0  0  0  0  0  0  0  0  0  0
    1.6725   -1.7269    8.8882 H   0  0  0  0  0  0  0  0  0  0  0  0
    1.6200    0.5054    8.2251 H   0  0  0  0  0  0  0  0  0  0  0  0
   -1.2005    0.4216    8.9035 H   0  0  0  0  0  0  0  0  0  0  0  0
   -0.1764    1.7473    9.0283 H   0  0  0  0  0  0  0  0  0  0  0  0
   -2.3445    1.7957    7.6577 H   0  0  0  0  0  0  0  0  0  0  0  0
   -2.0087   -0.2891    6.5659 H   0  0  0  0  0  0  0  0  0  0  0  0
   -2.2452    0.9005    5.3545 H   0  0  0  0  0  0  0  0  0  0  0  0
   -0.4044   -0.2879    4.6431 H   0  0  0  0  0  0  0  0  0  0  0  0
    2.5572    3.4840    7.1034 H   0  0  0  0  0  0  0  0  0  0  0  0
    2.8245    1.8088    7.0966 H   0  0  0  0  0  0  0  0  0  0  0  0
    1.5727    2.5547    8.1270 H   0  0  0  0  0  0  0  0  0  0  0  0
    0.5906    3.1169    3.8432 H   0  0  0  0  0  0  0  0  0  0  0  0
    2.1575    1.1627    2.1790 H   0  0  0  0  0  0  0  0  0  0  0  0
    0.8847   -1.2388    2.8329 H   0  0  0  0  0  0  0  0  0  0  0  0
    1.5402   -0.8273    1.2836 H   0  0  0  0  0  0  0  0  0  0  0  0
    2.2966   -2.9772    2.0381 H   0  0  0  0  0  0  0  0  0  0  0  0
    3.2439   -1.1484   -0.0368 H   0  0  0  0  0  0  0  0  0  0  0  0
    2.5138   -4.2425   -1.6265 H   0  0  0  0  0  0  0  0  0  0  0  0
    2.4035   -2.5084   -1.8634 H   0  0  0  0  0  0  0  0  0  0  0  0
    4.9706   -4.1900   -1.8864 H   0  0  0  0  0  0  0  0  0  0  0  0
    3.6659   -4.2336   -3.7448 H   0  0  0  0  0  0  0  0  0  0  0  0
    6.2033   -2.1345   -2.2972 H   0  0  0  0  0  0  0  0  0  0  0  0
    3.6549   -0.8944   -2.1949 H   0  0  0  0  0  0  0  0  0  0  0  0
    5.8756   -2.7190    0.0931 H   0  0  0  0  0  0  0  0  0  0  0  0
    5.3911    0.0324   -0.3460 H   0  0  0  0  0  0  0  0  0  0  0  0
    3.8835   -4.5572    3.2361 H   0  0  0  0  0  0  0  0  0  0  0  0
    2.1812   -4.5087    3.6000 H   0  0  0  0  0  0  0  0  0  0  0  0
    3.3592   -4.5230    4.9163 H   0  0  0  0  0  0  0  0  0  0  0  0
    5.3820   -2.8274    3.5495 H   0  0  0  0  0  0  0  0  0  0  0  0
    4.9722   -2.7338    5.2350 H   0  0  0  0  0  0  0  0  0  0  0  0
    5.0412   -1.2819    4.2549 H   0  0  0  0  0  0  0  0  0  0  0  0
    1.0054   -3.7159    5.1902 H   0  0  0  0  0  0  0  0  0  0  0  0
    3.4221   -0.0907    7.4603 H   0  0  0  0  0  0  0  0  0  0  0  0
    4.4002   -0.0686    6.0235 H   0  0  0  0  0  0  0  0  0  0  0  0
    3.7844   -1.5630    6.7321 H   0  0  0  0  0  0  0  0  0  0  0  0
    0.6683    4.4805    6.4154 H   0  0  0  0  0  0  0  0  0  0  0  0
   -2.1567    4.5041    5.2109 H   0  0  0  0  0  0  0  0  0  0  0  0
   -3.1876    3.2323    5.8446 H   0  0  0  0  0  0  0  0  0  0  0  0
   -1.9938    2.8973    4.5892 H   0  0  0  0  0  0  0  0  0  0  0  0
   -1.3645    5.1928    7.4471 H   0  0  0  0  0  0  0  0  0  0  0  0
   -0.6810    4.0270    8.5643 H   0  0  0  0  0  0  0  0  0  0  0  0
   -2.3959    3.9898    8.1895 H   0  0  0  0  0  0  0  0  0  0  0  0
  1  2  1  0
  1 42  1  0
  1 43  1  0
  1 44  1  0
  2 35  1  0
  2  3  1  0
  2 45  1  1
  3  4  1  0
  3 46  1  0
  3 47  1  0
  4 39  1  0
  4  5  1  0
  4 48  1  1
  5  6  1  0
  5 49  1  0
  5 50  1  0
  6 35  1  0
  6  7  1  0
  6 51  1  6
  7  8  1  0
  8 38  1  0
  8  9  1  1
  8 10  1  0
  9 52  1  0
  9 53  1  0
  9 54  1  0
 10 11  1  0
 10 38  1  0
 10 55  1  6
 11 12  2  0
 11 13  1  0
 13 15  1  0
 13 36  1  0
 13 14  1  6
 14 15  1  0
 15 16  1  0
 15 56  1  6
 16 17  1  0
 16 57  1  0
 16 58  1  0
 17 18  1  0
 17 28  1  0
 17 59  1  6
 18 19  1  0
 19 26  1  0
 19 20  1  0
 19 60  1  1
 20 21  1  0
 21 22  1  0
 21 61  1  0
 21 62  1  0
 22 23  1  0
 22 24  1  0
 22 63  1  1
 23 64  1  0
 24 25  1  0
 24 26  1  0
 24 65  1  6
 25 66  1  0
 26 27  1  0
 26 67  1  1
 27 68  1  0
 28 29  1  0
 28 30  1  0
 28 31  1  0
 29 69  1  0
 29 70  1  0
 29 71  1  0
 30 72  1  0
 30 73  1  0
 30 74  1  0
 31 36  1  0
 31 32  2  0
 32 33  1  0
 32 75  1  0
 33 34  2  0
 35 33  1  1
 35 36  1  0
 36 37  1  1
 37 76  1  0
 37 77  1  0
 37 78  1  0
 38 39  1  0
 38 79  1  1
 39 40  1  0
 39 41  1  0
 40 80  1  0
 40 81  1  0
 40 82  1  0
 41 83  1  0
 41 84  1  0
 41 85  1  0
M  END
>  <i_m_ct_stereo_status>  (42) 
1

>  <s_m_source_file>  (42) 
/var/tmp/pbs.5076255.sched01/tmp8nmo4hef/06hb_edth.sdf

>  <i_m_source_file_index>  (42) 
16

>  <i_lp_mmshare_version>  (42) 
48012

>  <i_f3d_flags>  (42) 
0

>  <s_epik_input>  (42) 
Tz1DMVtDSF0yW0NAQF0oTzMpKFtDSDNdKVtDQEBIXTJDKFtDSDNdKShbQ0gzXSlbQ0BIXShbQ0gyXVtDQEhdNFtDSDNdKVtDSDJdW0NAQEhdM1tDQEBdNChDKD1PKVtDSF01KVtDQEBdNihbQ0gzXSlDPTVDKFtDSDNdKShbQ0gzXSlbQ0BASF0oW0NIMl1bQ0BASF0oW0NAQF0xNjcpTzcpT1tDQEBIXThPW0NIMl1bQ0BASF0oW09IXSlbQ0BASF0oW09IXSlbQ0BIXThbT0hd

>  <s_epik_cmdline>  (42) 
J2VwaWtfcHl0aG9uJywgJy1waHQnLCAnMi4wJywgJy1waCcsICc3LjAnLCAnLXRuJywgJzgnLCAnLW1hJywgJzIwMCcsICctaW1hZScsICc8aW5maWxlLm1hZT4nLCAnLW9tYWUnLCAnPG91dGZpbGUubWFlPic=

>  <r_lp_tautomer_probability>  (42) 
1

>  <r_epik_Ionization_Penalty>  (42) 
1.67385e-06

>  <r_epik_Ionization_Penalty_Charging>  (42) 
0

>  <r_epik_Ionization_Penalty_Neutral>  (42) 
1.67385e-06

>  <r_epik_State_Penalty>  (42) 
-0

>  <r_epik_Charging_Adjusted_Penalty>  (42) 
0

>  <i_epik_Tot_Q>  (42) 
0

>  <i_epik_Tot_abs_Q>  (42) 
0

>  <s_epik_Chemistry_Notes>  (42) 
This compound contains an acetal/aminal-like group ( X-CH(R)-Y where X, Y are N, S, or O) that may be acid/base labile, releasing an aldehyde.

>  <s_lp_Force_Field>  (42) 
OPLS3e

>  <r_lp_Energy>  (42) 
263.546

>  <b_lp_Chiralities_Consistent>  (42) 
1

>  <s_lp_Variant>  (42) 
13:0-1

>  <s_i_glide_gridfile>  (42) 
pfpi4k_grid

>  <i_i_glide_lignum>  (42) 
16

>  <i_i_glide_rotatable_bonds>  (42) 
5

>  <r_i_docking_score>  (42) 
-3.14483

>  <r_i_glide_ligand_efficiency>  (42) 
-0.0767032

>  <r_i_glide_ligand_efficiency_sa>  (42) 
-0.264489

>  <r_i_glide_ligand_efficiency_ln>  (42) 
-0.667187

>  <r_i_glide_gscore>  (42) 
-3.14483

>  <r_i_glide_lipo>  (42) 
-0.153428

>  <r_i_glide_hbond>  (42) 
-0.00193301

>  <r_i_glide_metal>  (42) 
-0

>  <r_i_glide_rewards>  (42) 
0

>  <r_i_glide_evdw>  (42) 
-34.6002

>  <r_i_glide_ecoul>  (42) 
-8.28509

>  <r_i_glide_erotb>  (42) 
0.0347413

>  <r_i_glide_esite>  (42) 
-0.0514407

>  <r_i_glide_emodel>  (42) 
-51.514

>  <r_i_glide_energy>  (42) 
-42.8853

>  <r_i_glide_einternal>  (42) 
2.13527

>  <r_i_glide_intrahb_reward>  (42) 
-0

>  <i_i_glide_confnum>  (42) 
3

>  <i_i_glide_posenum>  (42) 
32

>  <r_i_glide_eff_state_penalty>  (42) 
0

>  <ligand_id>  (42) 
13

>  <original_smiles>  (42) 
CC1CC2CC3OC4(C)C(C(=O)C56OC5CC(OC5OCC(O)C(O)C5O)C(C)(C)C5=CC(=O)C13C56C)C4C2(C)C

>  <smiles>  (42) 
[H]OC1([H])C([H])([H])OC([H])(OC2([H])C([H])([H])C3([H])OC34C(=O)C3([H])C5([H])C3(C([H])([H])[H])OC3([H])C([H])([H])C([H])(C([H])([H])C([H])(C([H])([H])[H])C36C(=O)C([H])=C(C2(C([H])([H])[H])C([H])([H])[H])C46C([H])([H])[H])C5(C([H])([H])[H])C([H])([H])[H])C([H])(O[H])C1([H])O[H]

$$$$
13:0:2
     RDKit          3D

 85 92  0  0  1  0  0  0  0  0999 V2000
    0.5069   -1.9300    8.8626 C   0  0  0  0  0  0  0  0  0  0  0  0
    0.7554   -0.6593    8.0075 C   0  0  2  0  0  0  0  0  0  0  0  0
   -0.1060    0.5576    8.6085 C   0  0  0  0  0  0  0  0  0  0  0  0
   -0.7132    1.6951    7.6941 C   0  0  2  0  0  0  0  0  0  0  0  0
   -1.1745    0.9437    6.4522 C   0  0  0  0  0  0  0  0  0  0  0  0
    0.0492    0.3339    5.7839 C   0  0  1  0  0  0  0  0  0  0  0  0
    0.8898    1.3948    5.6864 O   0  0  0  0  0  0  0  0  0  0  0  0
    1.8094    1.9453    6.6621 C   0  0  1  0  0  0  0  0  0  0  0  0
    2.7880    1.4733    7.7809 C   0  0  0  0  0  0  0  0  0  0  0  0
    2.3206    2.7390    5.5618 C   0  0  2  0  0  0  0  0  0  0  0  0
    3.3262    1.5856    5.1432 C   0  0  0  0  0  0  0  0  0  0  0  0
    4.5447    1.8041    5.2186 O   0  0  0  0  0  0  0  0  0  0  0  0
    2.8461    0.1738    4.6051 C   0  0  2  0  0  0  0  0  0  0  0  0
    3.8231   -0.2727    3.6619 O   0  0  0  0  0  0  0  0  0  0  0  0
    2.6348    0.2714    3.0964 C   0  0  1  0  0  0  0  0  0  0  0  0
    1.8278   -0.6957    2.2893 C   0  0  0  0  0  0  0  0  0  0  0  0
    2.4659   -2.0996    2.1443 C   0  0  1  0  0  0  0  0  0  0  0  0
    3.7033   -2.0727    1.4275 O   0  0  0  0  0  0  0  0  0  0  0  0
    3.6093   -1.9549    0.0468 C   0  0  2  0  0  0  0  0  0  0  0  0
    2.9621   -3.0793   -0.4818 O   0  0  0  0  0  0  0  0  0  0  0  0
    2.7720   -3.0520   -1.8928 C   0  0  0  0  0  0  0  0  0  0  0  0
    4.1438   -3.0895   -2.5652 C   0  0  1  0  0  0  0  0  0  0  0  0
    4.0030   -3.0686   -3.9679 O   0  0  0  0  0  0  0  0  0  0  0  0
    5.0045   -1.9173   -2.0570 C   0  0  1  0  0  0  0  0  0  0  0  0
    4.4971   -0.6610   -2.5077 O   0  0  0  0  0  0  0  0  0  0  0  0
    5.0499   -1.9196   -0.5111 C   0  0  1  0  0  0  0  0  0  0  0  0
    5.7841   -0.7726   -0.1111 O   0  0  0  0  0  0  0  0  0  0  0  0
    2.6284   -2.9232    3.4673 C   0  0  0  0  0  0  0  0  0  0  0  0
    2.0952   -4.3485    3.1382 C   0  0  0  0  0  0  0  0  0  0  0  0
    4.1045   -3.2102    3.8455 C   0  0  0  0  0  0  0  0  0  0  0  0
    1.8058   -2.2770    4.6286 C   0  0  0  0  0  0  0  0  0  0  0  0
    0.6089   -2.7733    4.9412 C   0  0  0  0  0  0  0  0  0  0  0  0
   -0.0154   -2.0349    5.9866 C   0  0  0  0  0  0  0  0  0  0  0  0
   -1.1160   -2.2804    6.4595 O   0  0  0  0  0  0  0  0  0  0  0  0
    0.8243   -0.8294    6.3960 C   0  0  2  0  0  0  0  0  0  0  0  0
    2.2328   -1.0600    5.5328 C   0  0  2  0  0  0  0  0  0  0  0  0
    3.3549   -1.6753    6.4243 C   0  0  0  0  0  0  0  0  0  0  0  0
    1.4738    3.2466    6.8862 C   0  0  1  0  0  0  0  0  0  0  0  0
   -0.0051    3.1480    7.4263 C   0  0  0  0  0  0  0  0  0  0  0  0
   -0.8773    3.9765    6.4634 C   0  0  0  0  0  0  0  0  0  0  0  0
   -0.0496    3.8689    8.7880 C   0  0  0  0  0  0  0  0  0  0  0  0
   -0.5282   -2.2612    8.8664 H   0  0  0  0  0  0  0  0  0  0  0  0
    0.7585   -1.7210    9.9019 H   0  0  0  0  0  0  0  0  0  0  0  0
    1.1326   -2.7587    8.5339 H   0  0  0  0  0  0  0  0  0  0  0  0
    1.7502   -0.5234    8.3857 H   0  0  0  0  0  0  0  0  0  0  0  0
   -0.9653    0.0870    9.0833 H   0  0  0  0  0  0  0  0  0  0  0  0
    0.3684    1.0009    9.4787 H   0  0  0  0  0  0  0  0  0  0  0  0
   -1.6403    1.9767    8.1904 H   0  0  0  0  0  0  0  0  0  0  0  0
   -1.8682    0.1506    6.7025 H   0  0  0  0  0  0  0  0  0  0  0  0
   -1.7121    1.5972    5.7577 H   0  0  0  0  0  0  0  0  0  0  0  0
   -0.2301    0.1184    4.7489 H   0  0  0  0  0  0  0  0  0  0  0  0
    3.5779    2.2117    7.9465 H   0  0  0  0  0  0  0  0  0  0  0  0
    3.3452    0.5825    7.5668 H   0  0  0  0  0  0  0  0  0  0  0  0
    2.3197    1.4164    8.7534 H   0  0  0  0  0  0  0  0  0  0  0  0
    1.7634    3.1462    4.7152 H   0  0  0  0  0  0  0  0  0  0  0  0
    2.7690    1.2468    2.6272 H   0  0  0  0  0  0  0  0  0  0  0  0
    0.8306   -0.7617    2.7276 H   0  0  0  0  0  0  0  0  0  0  0  0
    1.6663   -0.2400    1.3124 H   0  0  0  0  0  0  0  0  0  0  0  0
    1.7419   -2.6269    1.5368 H   0  0  0  0  0  0  0  0  0  0  0  0
    3.0423   -1.0642   -0.2118 H   0  0  0  0  0  0  0  0  0  0  0  0
    2.1665   -3.9075   -2.1766 H   0  0  0  0  0  0  0  0  0  0  0  0
    2.2214   -2.1605   -2.2003 H   0  0  0  0  0  0  0  0  0  0  0  0
    4.6336   -4.0249   -2.3012 H   0  0  0  0  0  0  0  0  0  0  0  0
    3.3533   -3.7176   -4.1941 H   0  0  0  0  0  0  0  0  0  0  0  0
    6.0261   -2.0425   -2.4328 H   0  0  0  0  0  0  0  0  0  0  0  0
    3.5706   -0.6168   -2.3179 H   0  0  0  0  0  0  0  0  0  0  0  0
    5.5613   -2.8092   -0.1473 H   0  0  0  0  0  0  0  0  0  0  0  0
    5.2917    0.0007   -0.3547 H   0  0  0  0  0  0  0  0  0  0  0  0
    2.6986   -4.8196    2.3593 H   0  0  0  0  0  0  0  0  0  0  0  0
    1.0686   -4.3468    2.7622 H   0  0  0  0  0  0  0  0  0  0  0  0
    2.1258   -4.9949    4.0188 H   0  0  0  0  0  0  0  0  0  0  0  0
    4.6190   -3.7219    3.0327 H   0  0  0  0  0  0  0  0  0  0  0  0
    4.1656   -3.8794    4.7035 H   0  0  0  0  0  0  0  0  0  0  0  0
    4.7072   -2.3367    4.0682 H   0  0  0  0  0  0  0  0  0  0  0  0
    0.0967   -3.6033    4.4970 H   0  0  0  0  0  0  0  0  0  0  0  0
    3.3384   -1.4453    7.4796 H   0  0  0  0  0  0  0  0  0  0  0  0
    4.3540   -1.4017    6.0702 H   0  0  0  0  0  0  0  0  0  0  0  0
    3.2954   -2.7641    6.4387 H   0  0  0  0  0  0  0  0  0  0  0  0
    2.1028    3.8574    7.5302 H   0  0  0  0  0  0  0  0  0  0  0  0
   -0.5543    5.0133    6.4419 H   0  0  0  0  0  0  0  0  0  0  0  0
   -1.9255    3.9640    6.7560 H   0  0  0  0  0  0  0  0  0  0  0  0
   -0.8072    3.6084    5.4417 H   0  0  0  0  0  0  0  0  0  0  0  0
    0.3044    4.8948    8.7150 H   0  0  0  0  0  0  0  0  0  0  0  0
    0.5659    3.3640    9.5326 H   0  0  0  0  0  0  0  0  0  0  0  0
   -1.0631    3.9153    9.1880 H   0  0  0  0  0  0  0  0  0  0  0  0
  1  2  1  0
  1 42  1  0
  1 43  1  0
  1 44  1  0
  2 35  1  0
  2  3  1  0
  2 45  1  1
  3  4  1  0
  3 46  1  0
  3 47  1  0
  4 39  1  0
  4  5  1  0
  4 48  1  1
  5  6  1  0
  5 49  1  0
  5 50  1  0
  6 35  1  0
  6  7  1  0
  6 51  1  6
  7  8  1  0
  8 38  1  0
  8  9  1  1
  8 10  1  0
  9 52  1  0
  9 53  1  0
  9 54  1  0
 10 11  1  0
 10 38  1  0
 10 55  1  6
 11 12  2  0
 11 13  1  0
 13 15  1  0
 13 36  1  0
 13 14  1  6
 14 15  1  0
 15 16  1  0
 15 56  1  1
 16 17  1  0
 16 57  1  0
 16 58  1  0
 17 18  1  0
 17 28  1  0
 17 59  1  6
 18 19  1  0
 19 26  1  0
 19 20  1  0
 19 60  1  1
 20 21  1  0
 21 22  1  0
 21 61  1  0
 21 62  1  0
 22 23  1  0
 22 24  1  0
 22 63  1  6
 23 64  1  0
 24 25  1  0
 24 26  1  0
 24 65  1  6
 25 66  1  0
 26 27  1  0
 26 67  1  6
 27 68  1  0
 28 29  1  0
 28 30  1  0
 28 31  1  0
 29 69  1  0
 29 70  1  0
 29 71  1  0
 30 72  1  0
 30 73  1  0
 30 74  1  0
 31 36  1  0
 31 32  2  0
 32 33  1  0
 32 75  1  0
 33 34  2  0
 35 33  1  1
 35 36  1  0
 36 37  1  1
 37 76  1  0
 37 77  1  0
 37 78  1  0
 38 39  1  0
 38 79  1  1
 39 40  1  0
 39 41  1  0
 40 80  1  0
 40 81  1  0
 40 82  1  0
 41 83  1  0
 41 84  1  0
 41 85  1  0
M  END
>  <i_m_ct_stereo_status>  (43) 
1

>  <s_m_source_file>  (43) 
/var/tmp/pbs.5076255.sched01/tmp8nmo4hef/06hb_edth.sdf

>  <i_m_source_file_index>  (43) 
16

>  <i_lp_mmshare_version>  (43) 
48012

>  <i_f3d_flags>  (43) 
0

>  <s_epik_input>  (43) 
Tz1DMVtDSF0yW0NAQF0oTzMpKFtDSDNdKVtDQEBIXTJDKFtDSDNdKShbQ0gzXSlbQ0BIXShbQ0gyXVtDQEhdNFtDSDNdKVtDSDJdW0NAQEhdM1tDQEBdNChDKD1PKVtDSF01KVtDQEBdNihbQ0gzXSlDPTVDKFtDSDNdKShbQ0gzXSlbQ0BASF0oW0NIMl1bQ0BASF0oW0NAQF0xNjcpTzcpT1tDQEBIXThPW0NIMl1bQ0BASF0oW09IXSlbQ0BASF0oW09IXSlbQ0BIXThbT0hd

>  <s_epik_cmdline>  (43) 
J2VwaWtfcHl0aG9uJywgJy1waHQnLCAnMi4wJywgJy1waCcsICc3LjAnLCAnLXRuJywgJzgnLCAnLW1hJywgJzIwMCcsICctaW1hZScsICc8aW5maWxlLm1hZT4nLCAnLW9tYWUnLCAnPG91dGZpbGUubWFlPic=

>  <r_lp_tautomer_probability>  (43) 
1

>  <r_epik_Ionization_Penalty>  (43) 
1.67385e-06

>  <r_epik_Ionization_Penalty_Charging>  (43) 
0

>  <r_epik_Ionization_Penalty_Neutral>  (43) 
1.67385e-06

>  <r_epik_State_Penalty>  (43) 
-0

>  <r_epik_Charging_Adjusted_Penalty>  (43) 
0

>  <i_epik_Tot_Q>  (43) 
0

>  <i_epik_Tot_abs_Q>  (43) 
0

>  <s_epik_Chemistry_Notes>  (43) 
This compound contains an acetal/aminal-like group ( X-CH(R)-Y where X, Y are N, S, or O) that may be acid/base labile, releasing an aldehyde.

>  <s_lp_Force_Field>  (43) 
OPLS3e

>  <r_lp_Energy>  (43) 
263.546

>  <b_lp_Chiralities_Consistent>  (43) 
1

>  <s_lp_Variant>  (43) 
13:0-1

>  <s_i_glide_gridfile>  (43) 
pfpi4k_grid

>  <i_i_glide_lignum>  (43) 
16

>  <i_i_glide_rotatable_bonds>  (43) 
5

>  <r_i_docking_score>  (43) 
-3.10413

>  <r_i_glide_ligand_efficiency>  (43) 
-0.0757104

>  <r_i_glide_ligand_efficiency_sa>  (43) 
-0.261066

>  <r_i_glide_ligand_efficiency_ln>  (43) 
-0.658551

>  <r_i_glide_gscore>  (43) 
-3.10413

>  <r_i_glide_lipo>  (43) 
-0.01064

>  <r_i_glide_hbond>  (43) 
0

>  <r_i_glide_metal>  (43) 
-0

>  <r_i_glide_rewards>  (43) 
0

>  <r_i_glide_evdw>  (43) 
-34.0685

>  <r_i_glide_ecoul>  (43) 
-8.98628

>  <r_i_glide_erotb>  (43) 
0.0347413

>  <r_i_glide_esite>  (43) 
-0.0768607

>  <r_i_glide_emodel>  (43) 
-52.1543

>  <r_i_glide_energy>  (43) 
-43.0548

>  <r_i_glide_einternal>  (43) 
0.945043

>  <r_i_glide_intrahb_reward>  (43) 
-0

>  <i_i_glide_confnum>  (43) 
3

>  <i_i_glide_posenum>  (43) 
3

>  <r_i_glide_eff_state_penalty>  (43) 
0

>  <ligand_id>  (43) 
13

>  <original_smiles>  (43) 
CC1CC2CC3OC4(C)C(C(=O)C56OC5CC(OC5OCC(O)C(O)C5O)C(C)(C)C5=CC(=O)C13C56C)C4C2(C)C

>  <smiles>  (43) 
[H]OC1([H])C([H])([H])OC([H])(OC2([H])C([H])([H])C3([H])OC34C(=O)C3([H])C5([H])C3(C([H])([H])[H])OC3([H])C([H])([H])C([H])(C([H])([H])C([H])(C([H])([H])[H])C36C(=O)C([H])=C(C2(C([H])([H])[H])C([H])([H])[H])C46C([H])([H])[H])C5(C([H])([H])[H])C([H])([H])[H])C([H])(O[H])C1([H])O[H]

$$$$
13:1:0
     RDKit          3D

 85 92  0  0  1  0  0  0  0  0999 V2000
   -0.1478   -5.4175    5.2880 C   0  0  0  0  0  0  0  0  0  0  0  0
    1.0727   -6.3223    5.5552 C   0  0  2  0  0  0  0  0  0  0  0  0
    0.9119   -6.9435    7.0262 C   0  0  0  0  0  0  0  0  0  0  0  0
    2.1435   -7.1241    7.9797 C   0  0  2  0  0  0  0  0  0  0  0  0
    3.0029   -5.9171    7.6876 C   0  0  0  0  0  0  0  0  0  0  0  0
    3.4721   -6.0384    6.2490 C   0  0  1  0  0  0  0  0  0  0  0  0
    3.8966   -7.3217    6.1168 O   0  0  0  0  0  0  0  0  0  0  0  0
    3.2104   -8.5725    5.7707 C   0  0  1  0  0  0  0  0  0  0  0  0
    2.0567   -9.0565    4.8806 C   0  0  0  0  0  0  0  0  0  0  0  0
    4.4661   -9.2794    5.5975 C   0  0  1  0  0  0  0  0  0  0  0  0
    4.9786   -8.4452    4.3300 C   0  0  0  0  0  0  0  0  0  0  0  0
    6.1574   -8.6624    4.0269 O   0  0  0  0  0  0  0  0  0  0  0  0
    4.0926   -7.5473    3.3227 C   0  0  2  0  0  0  0  0  0  0  0  0
    3.4659   -8.3108    2.2670 O   0  0  0  0  0  0  0  0  0  0  0  0
    4.6839   -7.7024    1.8968 C   0  0  1  0  0  0  0  0  0  0  0  0
    4.6199   -6.7158    0.7486 C   0  0  0  0  0  0  0  0  0  0  0  0
    4.9501   -5.2260    1.0034 C   0  0  1  0  0  0  0  0  0  0  0  0
    3.8608   -4.4280    0.5430 O   0  0  0  0  0  0  0  0  0  0  0  0
    4.0056   -3.8845   -0.7222 C   0  0  2  0  0  0  0  0  0  0  0  0
    4.9576   -2.8608   -0.6913 O   0  0  0  0  0  0  0  0  0  0  0  0
    5.1977   -2.2269   -1.9422 C   0  0  0  0  0  0  0  0  0  0  0  0
    3.9129   -1.5247   -2.4063 C   0  0  1  0  0  0  0  0  0  0  0  0
    4.1214   -0.8710   -3.6511 O   0  0  0  0  0  0  0  0  0  0  0  0
    2.7674   -2.5614   -2.4750 C   0  0  1  0  0  0  0  0  0  0  0  0
    3.0372   -3.4693   -3.5400 O   0  0  0  0  0  0  0  0  0  0  0  0
    2.6465   -3.2815   -1.0998 C   0  0  1  0  0  0  0  0  0  0  0  0
    1.6329   -4.2596   -1.1676 O   0  0  0  0  0  0  0  0  0  0  0  0
    5.3133   -4.7823    2.4361 C   0  0  0  0  0  0  0  0  0  0  0  0
    6.5851   -5.4814    2.9877 C   0  0  0  0  0  0  0  0  0  0  0  0
    5.7504   -3.3000    2.2925 C   0  0  0  0  0  0  0  0  0  0  0  0
    4.1163   -4.8935    3.4211 C   0  0  0  0  0  0  0  0  0  0  0  0
    3.6674   -3.8522    4.1173 C   0  0  0  0  0  0  0  0  0  0  0  0
    2.6023   -4.2474    5.0081 C   0  0  0  0  0  0  0  0  0  0  0  0
    1.9075   -3.4881    5.6709 O   0  0  0  0  0  0  0  0  0  0  0  0
    2.5375   -5.7806    5.0951 C   0  0  2  0  0  0  0  0  0  0  0  0
    3.2622   -6.1694    3.6620 C   0  0  2  0  0  0  0  0  0  0  0  0
    2.0738   -6.0740    2.6454 C   0  0  0  0  0  0  0  0  0  0  0  0
    3.4229   -9.3220    6.8911 C   0  0  1  0  0  0  0  0  0  0  0  0
    2.9754   -8.5077    8.1582 C   0  0  0  0  0  0  0  0  0  0  0  0
    4.2385   -8.3085    9.0322 C   0  0  0  0  0  0  0  0  0  0  0  0
    2.0522   -9.4379    8.9745 C   0  0  0  0  0  0  0  0  0  0  0  0
   -0.2210   -4.6022    6.0041 H   0  0  0  0  0  0  0  0  0  0  0  0
   -1.0539   -6.0064    5.3840 H   0  0  0  0  0  0  0  0  0  0  0  0
   -0.1153   -5.0047    4.2842 H   0  0  0  0  0  0  0  0  0  0  0  0
    0.7544   -7.0880    4.8706 H   0  0  0  0  0  0  0  0  0  0  0  0
    0.2330   -6.2804    7.5689 H   0  0  0  0  0  0  0  0  0  0  0  0
    0.3605   -7.8737    6.9974 H   0  0  0  0  0  0  0  0  0  0  0  0
    1.7597   -6.9554    8.9798 H   0  0  0  0  0  0  0  0  0  0  0  0
    2.4336   -5.0015    7.8079 H   0  0  0  0  0  0  0  0  0  0  0  0
    3.8491   -5.8446    8.3784 H   0  0  0  0  0  0  0  0  0  0  0  0
    4.3837   -5.4390    6.1849 H   0  0  0  0  0  0  0  0  0  0  0  0
    2.2531  -10.0742    4.5379 H   0  0  0  0  0  0  0  0  0  0  0  0
    1.8943   -8.5082    3.9752 H   0  0  0  0  0  0  0  0  0  0  0  0
    1.1239   -9.1312    5.4294 H   0  0  0  0  0  0  0  0  0  0  0  0
    4.5578  -10.3353    5.3693 H   0  0  0  0  0  0  0  0  0  0  0  0
    5.4584   -8.4454    1.7306 H   0  0  0  0  0  0  0  0  0  0  0  0
    5.4010   -7.0533    0.0759 H   0  0  0  0  0  0  0  0  0  0  0  0
    3.6984   -6.8624    0.1829 H   0  0  0  0  0  0  0  0  0  0  0  0
    5.8285   -5.0239    0.3924 H   0  0  0  0  0  0  0  0  0  0  0  0
    4.3328   -4.6540   -1.4211 H   0  0  0  0  0  0  0  0  0  0  0  0
    5.9909   -1.4980   -1.8095 H   0  0  0  0  0  0  0  0  0  0  0  0
    5.5441   -2.9612   -2.6741 H   0  0  0  0  0  0  0  0  0  0  0  0
    3.6524   -0.7452   -1.6867 H   0  0  0  0  0  0  0  0  0  0  0  0
    3.3145   -0.4509   -3.9201 H   0  0  0  0  0  0  0  0  0  0  0  0
    1.8345   -2.0321   -2.6933 H   0  0  0  0  0  0  0  0  0  0  0  0
    2.7874   -4.3592   -3.2745 H   0  0  0  0  0  0  0  0  0  0  0  0
    2.3939   -2.5763   -0.3087 H   0  0  0  0  0  0  0  0  0  0  0  0
    1.9209   -4.9594   -1.7409 H   0  0  0  0  0  0  0  0  0  0  0  0
    7.4546   -5.2481    2.3742 H   0  0  0  0  0  0  0  0  0  0  0  0
    6.5686   -6.5585    3.0244 H   0  0  0  0  0  0  0  0  0  0  0  0
    6.7988   -5.1540    4.0049 H   0  0  0  0  0  0  0  0  0  0  0  0
    6.5906   -3.2030    1.5984 H   0  0  0  0  0  0  0  0  0  0  0  0
    6.0722   -2.8908    3.2488 H   0  0  0  0  0  0  0  0  0  0  0  0
    4.9415   -2.6640    1.9301 H   0  0  0  0  0  0  0  0  0  0  0  0
    4.0371   -2.8348    4.0996 H   0  0  0  0  0  0  0  0  0  0  0  0
    1.3477   -6.8818    2.7523 H   0  0  0  0  0  0  0  0  0  0  0  0
    2.3789   -6.1066    1.6090 H   0  0  0  0  0  0  0  0  0  0  0  0
    1.5279   -5.1357    2.7324 H   0  0  0  0  0  0  0  0  0  0  0  0
    2.9594  -10.3066    6.9323 H   0  0  0  0  0  0  0  0  0  0  0  0
    4.6678   -9.2710    9.3093 H   0  0  0  0  0  0  0  0  0  0  0  0
    4.0121   -7.7690    9.9536 H   0  0  0  0  0  0  0  0  0  0  0  0
    5.0161   -7.7675    8.4949 H   0  0  0  0  0  0  0  0  0  0  0  0
    2.5232  -10.3954    9.1888 H   0  0  0  0  0  0  0  0  0  0  0  0
    1.1279   -9.6595    8.4437 H   0  0  0  0  0  0  0  0  0  0  0  0
    1.7845   -9.0051    9.9343 H   0  0  0  0  0  0  0  0  0  0  0  0
  1  2  1  0
  1 42  1  0
  1 43  1  0
  1 44  1  0
  2 35  1  0
  2  3  1  0
  2 45  1  6
  3  4  1  0
  3 46  1  0
  3 47  1  0
  4 39  1  0
  4  5  1  0
  4 48  1  1
  5  6  1  0
  5 49  1  0
  5 50  1  0
  6 35  1  0
  6  7  1  0
  6 51  1  1
  7  8  1  0
  8 38  1  0
  8  9  1  6
  8 10  1  0
  9 52  1  0
  9 53  1  0
  9 54  1  0
 10 11  1  0
 10 38  1  0
 10 55  1  6
 11 12  2  0
 11 13  1  0
 13 15  1  0
 13 36  1  0
 13 14  1  6
 14 15  1  0
 15 16  1  0
 15 56  1  1
 16 17  1  0
 16 57  1  0
 16 58  1  0
 17 18  1  0
 17 28  1  0
 17 59  1  6
 18 19  1  0
 19 26  1  0
 19 20  1  0
 19 60  1  6
 20 21  1  0
 21 22  1  0
 21 61  1  0
 21 62  1  0
 22 23  1  0
 22 24  1  0
 22 63  1  1
 23 64  1  0
 24 25  1  0
 24 26  1  0
 24 65  1  6
 25 66  1  0
 26 27  1  0
 26 67  1  1
 27 68  1  0
 28 29  1  0
 28 30  1  0
 28 31  1  0
 29 69  1  0
 29 70  1  0
 29 71  1  0
 30 72  1  0
 30 73  1  0
 30 74  1  0
 31 36  1  0
 31 32  2  0
 32 33  1  0
 32 75  1  0
 33 34  2  0
 35 33  1  6
 35 36  1  0
 36 37  1  6
 37 76  1  0
 37 77  1  0
 37 78  1  0
 38 39  1  0
 38 79  1  6
 39 40  1  0
 39 41  1  0
 40 80  1  0
 40 81  1  0
 40 82  1  0
 41 83  1  0
 41 84  1  0
 41 85  1  0
M  END
>  <i_m_ct_stereo_status>  (44) 
1

>  <s_m_source_file>  (44) 
/var/tmp/pbs.5076255.sched01/tmp8nmo4hef/06hb_edth.sdf

>  <i_m_source_file_index>  (44) 
17

>  <i_lp_mmshare_version>  (44) 
48012

>  <i_f3d_flags>  (44) 
0

>  <s_epik_input>  (44) 
Tz1DMVtDSF0yW0NAQF0oTzMpKFtDSDNdKVtDQEBIXTJDKFtDSDNdKShbQ0gzXSlbQ0BIXShbQ0gyXVtDQEhdNFtDSDNdKVtDSDJdW0NAQEhdM1tDQEBdNChDKD1PKVtDSF01KVtDQEBdNihbQ0gzXSlDPTVDKFtDSDNdKShbQ0gzXSlbQ0BASF0oW0NIMl1bQ0BASF0oW0NAQF0xNjcpTzcpT1tDQEBIXThPW0NIMl1bQ0BASF0oW09IXSlbQ0BASF0oW09IXSlbQ0BIXThbT0hd

>  <s_epik_cmdline>  (44) 
J2VwaWtfcHl0aG9uJywgJy1waHQnLCAnMi4wJywgJy1waCcsICc3LjAnLCAnLXRuJywgJzgnLCAnLW1hJywgJzIwMCcsICctaW1hZScsICc8aW5maWxlLm1hZT4nLCAnLW9tYWUnLCAnPG91dGZpbGUubWFlPic=

>  <r_lp_tautomer_probability>  (44) 
1

>  <r_epik_Ionization_Penalty>  (44) 
1.67385e-06

>  <r_epik_Ionization_Penalty_Charging>  (44) 
0

>  <r_epik_Ionization_Penalty_Neutral>  (44) 
1.67385e-06

>  <r_epik_State_Penalty>  (44) 
-0

>  <r_epik_Charging_Adjusted_Penalty>  (44) 
0

>  <i_epik_Tot_Q>  (44) 
0

>  <i_epik_Tot_abs_Q>  (44) 
0

>  <s_epik_Chemistry_Notes>  (44) 
This compound contains an acetal/aminal-like group ( X-CH(R)-Y where X, Y are N, S, or O) that may be acid/base labile, releasing an aldehyde.

>  <s_lp_Force_Field>  (44) 
OPLS3e

>  <r_lp_Energy>  (44) 
264.576

>  <b_lp_Chiralities_Consistent>  (44) 
1

>  <s_lp_Variant>  (44) 
13:0-2

>  <s_i_glide_gridfile>  (44) 
pfpi4k_grid

>  <i_i_glide_lignum>  (44) 
17

>  <i_i_glide_rotatable_bonds>  (44) 
5

>  <r_i_docking_score>  (44) 
-3.51694

>  <r_i_glide_ligand_efficiency>  (44) 
-0.0857789

>  <r_i_glide_ligand_efficiency_sa>  (44) 
-0.295784

>  <r_i_glide_ligand_efficiency_ln>  (44) 
-0.74613

>  <r_i_glide_gscore>  (44) 
-3.51694

>  <r_i_glide_lipo>  (44) 
-0.273023

>  <r_i_glide_hbond>  (44) 
0

>  <r_i_glide_metal>  (44) 
-0

>  <r_i_glide_rewards>  (44) 
0

>  <r_i_glide_evdw>  (44) 
-28.7531

>  <r_i_glide_ecoul>  (44) 
-12.1836

>  <r_i_glide_erotb>  (44) 
0.0347413

>  <r_i_glide_esite>  (44) 
-0.0134536

>  <r_i_glide_emodel>  (44) 
-47.8378

>  <r_i_glide_energy>  (44) 
-40.9368

>  <r_i_glide_einternal>  (44) 
2.40612

>  <r_i_glide_intrahb_reward>  (44) 
-0

>  <i_i_glide_confnum>  (44) 
2

>  <i_i_glide_posenum>  (44) 
23

>  <r_i_glide_eff_state_penalty>  (44) 
0

>  <ligand_id>  (44) 
13

>  <original_smiles>  (44) 
CC1CC2CC3OC4(C)C(C(=O)C56OC5CC(OC5OCC(O)C(O)C5O)C(C)(C)C5=CC(=O)C13C56C)C4C2(C)C

>  <smiles>  (44) 
[H]OC1([H])C([H])([H])OC([H])(OC2([H])C([H])([H])C3([H])OC34C(=O)C3([H])C5([H])C3(C([H])([H])[H])OC3([H])C([H])([H])C([H])(C([H])([H])C([H])(C([H])([H])[H])C36C(=O)C([H])=C(C2(C([H])([H])[H])C([H])([H])[H])C46C([H])([H])[H])C5(C([H])([H])[H])C([H])([H])[H])C([H])(O[H])C1([H])O[H]

$$$$
13:1:1
     RDKit          3D

 85 92  0  0  1  0  0  0  0  0999 V2000
    1.8203   -2.9914    6.6656 C   0  0  0  0  0  0  0  0  0  0  0  0
    1.7150   -4.4952    6.3406 C   0  0  2  0  0  0  0  0  0  0  0  0
    1.4114   -5.2824    7.7033 C   0  0  0  0  0  0  0  0  0  0  0  0
    2.0660   -6.6780    8.0109 C   0  0  2  0  0  0  0  0  0  0  0  0
    3.4589   -6.5500    7.4391 C   0  0  0  0  0  0  0  0  0  0  0  0
    3.3003   -6.4145    5.9368 C   0  0  1  0  0  0  0  0  0  0  0  0
    2.4127   -7.3733    5.5669 O   0  0  0  0  0  0  0  0  0  0  0  0
    0.9442   -7.3920    5.4893 C   0  0  1  0  0  0  0  0  0  0  0  0
   -0.2200   -6.4498    5.1671 C   0  0  0  0  0  0  0  0  0  0  0  0
    0.9650   -8.6514    4.7666 C   0  0  1  0  0  0  0  0  0  0  0  0
    1.6843   -8.0988    3.4551 C   0  0  0  0  0  0  0  0  0  0  0  0
    2.0273   -8.9762    2.6563 O   0  0  0  0  0  0  0  0  0  0  0  0
    1.7776   -6.5694    2.9747 C   0  0  2  0  0  0  0  0  0  0  0  0
    0.6019   -6.1128    2.2498 O   0  0  0  0  0  0  0  0  0  0  0  0
    1.6636   -6.5729    1.4318 C   0  0  1  0  0  0  0  0  0  0  0  0
    2.2148   -5.5592    0.4749 C   0  0  0  0  0  0  0  0  0  0  0  0
    3.6895   -5.0970    0.6194 C   0  0  1  0  0  0  0  0  0  0  0  0
    3.7122   -3.6695    0.7085 O   0  0  0  0  0  0  0  0  0  0  0  0
    3.6647   -2.9365   -0.4698 C   0  0  2  0  0  0  0  0  0  0  0  0
    2.7038   -3.4387   -1.3468 O   0  0  0  0  0  0  0  0  0  0  0  0
    2.5206   -2.7017   -2.5431 C   0  0  0  0  0  0  0  0  0  0  0  0
    3.8162   -2.7233   -3.3394 C   0  0  1  0  0  0  0  0  0  0  0  0
    3.6684   -1.9299   -4.4949 O   0  0  0  0  0  0  0  0  0  0  0  0
    4.9725   -2.1773   -2.4860 C   0  0  1  0  0  0  0  0  0  0  0  0
    4.8062   -0.7830   -2.2243 O   0  0  0  0  0  0  0  0  0  0  0  0
    5.0677   -2.9459   -1.1547 C   0  0  1  0  0  0  0  0  0  0  0  0
    6.0713   -2.2916   -0.3942 O   0  0  0  0  0  0  0  0  0  0  0  0
    4.5438   -5.6534    1.7810 C   0  0  0  0  0  0  0  0  0  0  0  0
    4.7278   -7.1864    1.6977 C   0  0  0  0  0  0  0  0  0  0  0  0
    5.9921   -5.1384    1.5417 C   0  0  0  0  0  0  0  0  0  0  0  0
    4.0403   -5.1888    3.1753 C   0  0  0  0  0  0  0  0  0  0  0  0
    4.8272   -4.5583    4.0408 C   0  0  0  0  0  0  0  0  0  0  0  0
    4.1328   -4.3114    5.2829 C   0  0  0  0  0  0  0  0  0  0  0  0
    4.5484   -3.6515    6.2240 O   0  0  0  0  0  0  0  0  0  0  0  0
    2.8237   -5.1187    5.3242 C   0  0  2  0  0  0  0  0  0  0  0  0
    2.5847   -5.3308    3.7001 C   0  0  2  0  0  0  0  0  0  0  0  0
    1.8679   -3.9956    3.2994 C   0  0  0  0  0  0  0  0  0  0  0  0
    0.6684   -8.3998    6.3766 C   0  0  1  0  0  0  0  0  0  0  0  0
    1.3665   -8.1146    7.7479 C   0  0  0  0  0  0  0  0  0  0  0  0
    2.3403   -9.2846    8.0048 C   0  0  0  0  0  0  0  0  0  0  0  0
    0.2804   -8.2356    8.8306 C   0  0  0  0  0  0  0  0  0  0  0  0
    2.6039   -2.7702    7.3875 H   0  0  0  0  0  0  0  0  0  0  0  0
    0.8903   -2.6683    7.1209 H   0  0  0  0  0  0  0  0  0  0  0  0
    1.9703   -2.3858    5.7768 H   0  0  0  0  0  0  0  0  0  0  0  0
    0.7807   -4.4059    5.8153 H   0  0  0  0  0  0  0  0  0  0  0  0
    1.7274   -4.6228    8.5171 H   0  0  0  0  0  0  0  0  0  0  0  0
    0.3457   -5.3638    7.8663 H   0  0  0  0  0  0  0  0  0  0  0  0
    2.2130   -6.6801    9.0873 H   0  0  0  0  0  0  0  0  0  0  0  0
    3.9667   -5.6737    7.8464 H   0  0  0  0  0  0  0  0  0  0  0  0
    4.0825   -7.4112    7.6978 H   0  0  0  0  0  0  0  0  0  0  0  0
    4.2546   -6.7421    5.5195 H   0  0  0  0  0  0  0  0  0  0  0  0
   -1.0338   -7.0159    4.7243 H   0  0  0  0  0  0  0  0  0  0  0  0
   -0.0098   -5.6848    4.4554 H   0  0  0  0  0  0  0  0  0  0  0  0
   -0.6329   -6.0114    6.0635 H   0  0  0  0  0  0  0  0  0  0  0  0
    0.0846   -9.2071    4.4659 H   0  0  0  0  0  0  0  0  0  0  0  0
    1.3866   -7.4921    0.9200 H   0  0  0  0  0  0  0  0  0  0  0  0
    2.1136   -6.0026   -0.5108 H   0  0  0  0  0  0  0  0  0  0  0  0
    1.5219   -4.7271    0.4143 H   0  0  0  0  0  0  0  0  0  0  0  0
    4.1748   -5.4313   -0.2935 H   0  0  0  0  0  0  0  0  0  0  0  0
    3.3573   -1.9288   -0.1857 H   0  0  0  0  0  0  0  0  0  0  0  0
    1.7273   -3.1748   -3.1141 H   0  0  0  0  0  0  0  0  0  0  0  0
    2.2176   -1.6731   -2.3493 H   0  0  0  0  0  0  0  0  0  0  0  0
    4.0405   -3.7549   -3.6235 H   0  0  0  0  0  0  0  0  0  0  0  0
    2.8084   -2.0948   -4.8640 H   0  0  0  0  0  0  0  0  0  0  0  0
    5.9097   -2.3388   -3.0278 H   0  0  0  0  0  0  0  0  0  0  0  0
    3.9098   -0.6204   -1.9648 H   0  0  0  0  0  0  0  0  0  0  0  0
    5.3916   -3.9633   -1.3798 H   0  0  0  0  0  0  0  0  0  0  0  0
    5.6953   -1.5105   -0.0173 H   0  0  0  0  0  0  0  0  0  0  0  0
    5.2335   -7.4587    0.7702 H   0  0  0  0  0  0  0  0  0  0  0  0
    3.8219   -7.7687    1.6868 H   0  0  0  0  0  0  0  0  0  0  0  0
    5.3302   -7.5633    2.5254 H   0  0  0  0  0  0  0  0  0  0  0  0
    6.3578   -5.4142    0.5480 H   0  0  0  0  0  0  0  0  0  0  0  0
    6.6976   -5.5659    2.2605 H   0  0  0  0  0  0  0  0  0  0  0  0
    6.0550   -4.0510    1.6224 H   0  0  0  0  0  0  0  0  0  0  0  0
    5.8601   -4.2792    3.9173 H   0  0  0  0  0  0  0  0  0  0  0  0
    0.8400   -3.9229    3.6647 H   0  0  0  0  0  0  0  0  0  0  0  0
    1.8102   -3.8291    2.2320 H   0  0  0  0  0  0  0  0  0  0  0  0
    2.3948   -3.1120    3.6653 H   0  0  0  0  0  0  0  0  0  0  0  0
   -0.3754   -8.6444    6.5558 H   0  0  0  0  0  0  0  0  0  0  0  0
    1.8094  -10.2413    8.0244 H   0  0  0  0  0  0  0  0  0  0  0  0
    2.8611   -9.1729    8.9549 H   0  0  0  0  0  0  0  0  0  0  0  0
    3.0815   -9.3664    7.2129 H   0  0  0  0  0  0  0  0  0  0  0  0
   -0.2266   -9.1904    8.7602 H   0  0  0  0  0  0  0  0  0  0  0  0
   -0.4778   -7.4613    8.7369 H   0  0  0  0  0  0  0  0  0  0  0  0
    0.6962   -8.1753    9.8326 H   0  0  0  0  0  0  0  0  0  0  0  0
  1  2  1  0
  1 42  1  0
  1 43  1  0
  1 44  1  0
  2 35  1  0
  2  3  1  0
  2 45  1  6
  3  4  1  0
  3 46  1  0
  3 47  1  0
  4 39  1  0
  4  5  1  0
  4 48  1  1
  5  6  1  0
  5 49  1  0
  5 50  1  0
  6 35  1  0
  6  7  1  0
  6 51  1  6
  7  8  1  0
  8 38  1  0
  8  9  1  6
  8 10  1  0
  9 52  1  0
  9 53  1  0
  9 54  1  0
 10 11  1  0
 10 38  1  0
 10 55  1  6
 11 12  2  0
 11 13  1  0
 13 15  1  0
 13 36  1  0
 13 14  1  1
 14 15  1  0
 15 16  1  0
 15 56  1  6
 16 17  1  0
 16 57  1  0
 16 58  1  0
 17 18  1  0
 17 28  1  0
 17 59  1  6
 18 19  1  0
 19 26  1  0
 19 20  1  0
 19 60  1  1
 20 21  1  0
 21 22  1  0
 21 61  1  0
 21 62  1  0
 22 23  1  0
 22 24  1  0
 22 63  1  6
 23 64  1  0
 24 25  1  0
 24 26  1  0
 24 65  1  6
 25 66  1  0
 26 27  1  0
 26 67  1  6
 27 68  1  0
 28 29  1  0
 28 30  1  0
 28 31  1  0
 29 69  1  0
 29 70  1  0
 29 71  1  0
 30 72  1  0
 30 73  1  0
 30 74  1  0
 31 36  1  0
 31 32  2  0
 32 33  1  0
 32 75  1  0
 33 34  2  0
 35 33  1  6
 35 36  1  0
 36 37  1  6
 37 76  1  0
 37 77  1  0
 37 78  1  0
 38 39  1  0
 38 79  1  1
 39 40  1  0
 39 41  1  0
 40 80  1  0
 40 81  1  0
 40 82  1  0
 41 83  1  0
 41 84  1  0
 41 85  1  0
M  END
>  <i_m_ct_stereo_status>  (45) 
1

>  <s_m_source_file>  (45) 
/var/tmp/pbs.5076255.sched01/tmp8nmo4hef/06hb_edth.sdf

>  <i_m_source_file_index>  (45) 
17

>  <i_lp_mmshare_version>  (45) 
48012

>  <i_f3d_flags>  (45) 
0

>  <s_epik_input>  (45) 
Tz1DMVtDSF0yW0NAQF0oTzMpKFtDSDNdKVtDQEBIXTJDKFtDSDNdKShbQ0gzXSlbQ0BIXShbQ0gyXVtDQEhdNFtDSDNdKVtDSDJdW0NAQEhdM1tDQEBdNChDKD1PKVtDSF01KVtDQEBdNihbQ0gzXSlDPTVDKFtDSDNdKShbQ0gzXSlbQ0BASF0oW0NIMl1bQ0BASF0oW0NAQF0xNjcpTzcpT1tDQEBIXThPW0NIMl1bQ0BASF0oW09IXSlbQ0BASF0oW09IXSlbQ0BIXThbT0hd

>  <s_epik_cmdline>  (45) 
J2VwaWtfcHl0aG9uJywgJy1waHQnLCAnMi4wJywgJy1waCcsICc3LjAnLCAnLXRuJywgJzgnLCAnLW1hJywgJzIwMCcsICctaW1hZScsICc8aW5maWxlLm1hZT4nLCAnLW9tYWUnLCAnPG91dGZpbGUubWFlPic=

>  <r_lp_tautomer_probability>  (45) 
1

>  <r_epik_Ionization_Penalty>  (45) 
1.67385e-06

>  <r_epik_Ionization_Penalty_Charging>  (45) 
0

>  <r_epik_Ionization_Penalty_Neutral>  (45) 
1.67385e-06

>  <r_epik_State_Penalty>  (45) 
-0

>  <r_epik_Charging_Adjusted_Penalty>  (45) 
0

>  <i_epik_Tot_Q>  (45) 
0

>  <i_epik_Tot_abs_Q>  (45) 
0

>  <s_epik_Chemistry_Notes>  (45) 
This compound contains an acetal/aminal-like group ( X-CH(R)-Y where X, Y are N, S, or O) that may be acid/base labile, releasing an aldehyde.

>  <s_lp_Force_Field>  (45) 
OPLS3e

>  <r_lp_Energy>  (45) 
264.576

>  <b_lp_Chiralities_Consistent>  (45) 
1

>  <s_lp_Variant>  (45) 
13:0-2

>  <s_i_glide_gridfile>  (45) 
pfpi4k_grid

>  <i_i_glide_lignum>  (45) 
17

>  <i_i_glide_rotatable_bonds>  (45) 
5

>  <r_i_docking_score>  (45) 
-3.36714

>  <r_i_glide_ligand_efficiency>  (45) 
-0.0821254

>  <r_i_glide_ligand_efficiency_sa>  (45) 
-0.283186

>  <r_i_glide_ligand_efficiency_ln>  (45) 
-0.71435

>  <r_i_glide_gscore>  (45) 
-3.36714

>  <r_i_glide_lipo>  (45) 
-0.420943

>  <r_i_glide_hbond>  (45) 
-0.10941

>  <r_i_glide_metal>  (45) 
-0

>  <r_i_glide_rewards>  (45) 
-2.1103e-05

>  <r_i_glide_evdw>  (45) 
-35.0847

>  <r_i_glide_ecoul>  (45) 
-7.31968

>  <r_i_glide_erotb>  (45) 
0.0347413

>  <r_i_glide_esite>  (45) 
-0.0193236

>  <r_i_glide_emodel>  (45) 
-48.2049

>  <r_i_glide_energy>  (45) 
-42.4043

>  <r_i_glide_einternal>  (45) 
3.58759

>  <r_i_glide_intrahb_reward>  (45) 
-0

>  <i_i_glide_confnum>  (45) 
5

>  <i_i_glide_posenum>  (45) 
4

>  <r_i_glide_eff_state_penalty>  (45) 
0

>  <ligand_id>  (45) 
13

>  <original_smiles>  (45) 
CC1CC2CC3OC4(C)C(C(=O)C56OC5CC(OC5OCC(O)C(O)C5O)C(C)(C)C5=CC(=O)C13C56C)C4C2(C)C

>  <smiles>  (45) 
[H]OC1([H])C([H])([H])OC([H])(OC2([H])C([H])([H])C3([H])OC34C(=O)C3([H])C5([H])C3(C([H])([H])[H])OC3([H])C([H])([H])C([H])(C([H])([H])C([H])(C([H])([H])[H])C36C(=O)C([H])=C(C2(C([H])([H])[H])C([H])([H])[H])C46C([H])([H])[H])C5(C([H])([H])[H])C([H])([H])[H])C([H])(O[H])C1([H])O[H]

$$$$
13:1:2
     RDKit          3D

 85 92  0  0  1  0  0  0  0  0999 V2000
    2.4466   -3.0312    6.8952 C   0  0  0  0  0  0  0  0  0  0  0  0
    2.2021   -4.5257    6.5852 C   0  0  2  0  0  0  0  0  0  0  0  0
    1.8611   -5.2719    7.9681 C   0  0  0  0  0  0  0  0  0  0  0  0
    2.3984   -6.7152    8.2782 C   0  0  2  0  0  0  0  0  0  0  0  0
    3.7739   -6.7241    7.6618 C   0  0  0  0  0  0  0  0  0  0  0  0
    3.5879   -6.5816    6.1638 C   0  0  1  0  0  0  0  0  0  0  0  0
    2.6048   -7.4535    5.8351 O   0  0  0  0  0  0  0  0  0  0  0  0
    1.1428   -7.3559    5.8046 C   0  0  1  0  0  0  0  0  0  0  0  0
    0.0611   -6.3076    5.5028 C   0  0  0  0  0  0  0  0  0  0  0  0
    1.0143   -8.6110    5.0884 C   0  0  1  0  0  0  0  0  0  0  0  0
    1.7255   -8.1463    3.7386 C   0  0  0  0  0  0  0  0  0  0  0  0
    1.9641   -9.0545    2.9510 O   0  0  0  0  0  0  0  0  0  0  0  0
    1.9502   -6.6303    3.2404 C   0  0  2  0  0  0  0  0  0  0  0  0
    0.8089   -6.0858    2.5431 O   0  0  0  0  0  0  0  0  0  0  0  0
    1.7903   -6.6544    1.6995 C   0  0  1  0  0  0  0  0  0  0  0  0
    2.4032   -5.7078    0.7092 C   0  0  0  0  0  0  0  0  0  0  0  0
    3.9122   -5.3573    0.8094 C   0  0  1  0  0  0  0  0  0  0  0  0
    4.0637   -3.9302    0.8794 O   0  0  0  0  0  0  0  0  0  0  0  0
    3.9568   -3.1798   -0.2906 C   0  0  2  0  0  0  0  0  0  0  0  0
    2.8479   -3.5967   -1.0321 O   0  0  0  0  0  0  0  0  0  0  0  0
    2.6023   -2.8679   -2.2238 C   0  0  0  0  0  0  0  0  0  0  0  0
    3.7925   -3.0079   -3.1780 C   0  0  1  0  0  0  0  0  0  0  0  0
    3.5585   -2.2447   -4.3326 O   0  0  0  0  0  0  0  0  0  0  0  0
    5.0781   -2.5416   -2.4671 C   0  0  1  0  0  0  0  0  0  0  0  0
    5.0145   -1.1362   -2.2308 O   0  0  0  0  0  0  0  0  0  0  0  0
    5.2607   -3.3107   -1.1407 C   0  0  1  0  0  0  0  0  0  0  0  0
    6.4075   -2.7776   -0.4892 O   0  0  0  0  0  0  0  0  0  0  0  0
    4.7552   -5.9772    1.9531 C   0  0  0  0  0  0  0  0  0  0  0  0
    4.7967   -7.5241    1.8834 C   0  0  0  0  0  0  0  0  0  0  0  0
    6.2328   -5.5941    1.6579 C   0  0  0  0  0  0  0  0  0  0  0  0
    4.3349   -5.4624    3.3551 C   0  0  0  0  0  0  0  0  0  0  0  0
    5.2087   -4.8936    4.1953 C   0  0  0  0  0  0  0  0  0  0  0  0
    4.5787   -4.5763    5.4570 C   0  0  0  0  0  0  0  0  0  0  0  0
    5.0919   -3.9444    6.3680 O   0  0  0  0  0  0  0  0  0  0  0  0
    3.2041   -5.2655    5.5386 C   0  0  2  0  0  0  0  0  0  0  0  0
    2.8902   -5.4606    3.9257 C   0  0  2  0  0  0  0  0  0  0  0  0
    2.2882   -4.0664    3.5364 C   0  0  0  0  0  0  0  0  0  0  0  0
    0.7943   -8.3194    6.7039 C   0  0  1  0  0  0  0  0  0  0  0  0
    1.5606   -8.0841    8.0510 C   0  0  0  0  0  0  0  0  0  0  0  0
    2.4279   -9.3408    8.2923 C   0  0  0  0  0  0  0  0  0  0  0  0
    0.5009   -8.1017    9.1703 C   0  0  0  0  0  0  0  0  0  0  0  0
    3.2700   -2.8744    7.5864 H   0  0  0  0  0  0  0  0  0  0  0  0
    1.5657   -2.6197    7.3777 H   0  0  0  0  0  0  0  0  0  0  0  0
    2.6229   -2.4520    5.9942 H   0  0  0  0  0  0  0  0  0  0  0  0
    1.2583   -4.3538    6.0944 H   0  0  0  0  0  0  0  0  0  0  0  0
    2.2679   -4.6414    8.7657 H   0  0  0  0  0  0  0  0  0  0  0  0
    0.7980   -5.2478    8.1682 H   0  0  0  0  0  0  0  0  0  0  0  0
    2.5711   -6.7258    9.3474 H   0  0  0  0  0  0  0  0  0  0  0  0
    4.3703   -5.8987    8.0390 H   0  0  0  0  0  0  0  0  0  0  0  0
    4.3215   -7.6370    7.9131 H   0  0  0  0  0  0  0  0  0  0  0  0
    4.4923   -7.0011    5.7185 H   0  0  0  0  0  0  0  0  0  0  0  0
   -0.8248   -6.7969    5.0867 H   0  0  0  0  0  0  0  0  0  0  0  0
    0.3121   -5.5630    4.7704 H   0  0  0  0  0  0  0  0  0  0  0  0
   -0.2896   -5.8162    6.4061 H   0  0  0  0  0  0  0  0  0  0  0  0
    0.0749   -9.0848    4.8273 H   0  0  0  0  0  0  0  0  0  0  0  0
    1.4067   -7.5473    1.2102 H   0  0  0  0  0  0  0  0  0  0  0  0
    2.2335   -6.1380   -0.2780 H   0  0  0  0  0  0  0  0  0  0  0  0
    1.7885   -4.8172    0.7136 H   0  0  0  0  0  0  0  0  0  0  0  0
    4.3423   -5.7394   -0.1131 H   0  0  0  0  0  0  0  0  0  0  0  0
    3.8004   -2.1472    0.0284 H   0  0  0  0  0  0  0  0  0  0  0  0
    1.7105   -3.2772   -2.6839 H   0  0  0  0  0  0  0  0  0  0  0  0
    2.4149   -1.8119   -2.0308 H   0  0  0  0  0  0  0  0  0  0  0  0
    3.8978   -4.0619   -3.4598 H   0  0  0  0  0  0  0  0  0  0  0  0
    2.6527   -2.3768   -4.5921 H   0  0  0  0  0  0  0  0  0  0  0  0
    5.9395   -2.7491   -3.1164 H   0  0  0  0  0  0  0  0  0  0  0  0
    4.2084   -0.9241   -1.7770 H   0  0  0  0  0  0  0  0  0  0  0  0
    5.4412   -4.3555   -1.3730 H   0  0  0  0  0  0  0  0  0  0  0  0
    7.1972   -3.0593   -0.9298 H   0  0  0  0  0  0  0  0  0  0  0  0
    5.2461   -7.8537    0.9460 H   0  0  0  0  0  0  0  0  0  0  0  0
    3.8416   -8.0223    1.9099 H   0  0  0  0  0  0  0  0  0  0  0  0
    5.3875   -7.9458    2.6973 H   0  0  0  0  0  0  0  0  0  0  0  0
    6.5411   -5.9201    0.6628 H   0  0  0  0  0  0  0  0  0  0  0  0
    6.9165   -6.0695    2.3635 H   0  0  0  0  0  0  0  0  0  0  0  0
    6.3969   -4.5173    1.7110 H   0  0  0  0  0  0  0  0  0  0  0  0
    6.2600   -4.7169    4.0309 H   0  0  0  0  0  0  0  0  0  0  0  0
    1.2889   -3.8955    3.9367 H   0  0  0  0  0  0  0  0  0  0  0  0
    2.2007   -3.9070    2.4739 H   0  0  0  0  0  0  0  0  0  0  0  0
    2.9107   -3.2373    3.8722 H   0  0  0  0  0  0  0  0  0  0  0  0
   -0.2581   -8.4490    6.9279 H   0  0  0  0  0  0  0  0  0  0  0  0
    1.8081  -10.2399    8.3403 H   0  0  0  0  0  0  0  0  0  0  0  0
    2.9865   -9.2770    9.2292 H   0  0  0  0  0  0  0  0  0  0  0  0
    3.1291   -9.5021    7.4738 H   0  0  0  0  0  0  0  0  0  0  0  0
   -0.1156   -8.9998    9.1399 H   0  0  0  0  0  0  0  0  0  0  0  0
   -0.1673   -7.2453    9.0947 H   0  0  0  0  0  0  0  0  0  0  0  0
    0.9500   -8.0753   10.1599 H   0  0  0  0  0  0  0  0  0  0  0  0
  1  2  1  0
  1 42  1  0
  1 43  1  0
  1 44  1  0
  2 35  1  0
  2  3  1  0
  2 45  1  6
  3  4  1  0
  3 46  1  0
  3 47  1  0
  4 39  1  0
  4  5  1  0
  4 48  1  1
  5  6  1  0
  5 49  1  0
  5 50  1  0
  6 35  1  0
  6  7  1  0
  6 51  1  6
  7  8  1  0
  8 38  1  0
  8  9  1  6
  8 10  1  0
  9 52  1  0
  9 53  1  0
  9 54  1  0
 10 11  1  0
 10 38  1  0
 10 55  1  6
 11 12  2  0
 11 13  1  0
 13 15  1  0
 13 36  1  0
 13 14  1  1
 14 15  1  0
 15 16  1  0
 15 56  1  6
 16 17  1  0
 16 57  1  0
 16 58  1  0
 17 18  1  0
 17 28  1  0
 17 59  1  6
 18 19  1  0
 19 26  1  0
 19 20  1  0
 19 60  1  1
 20 21  1  0
 21 22  1  0
 21 61  1  0
 21 62  1  0
 22 23  1  0
 22 24  1  0
 22 63  1  6
 23 64  1  0
 24 25  1  0
 24 26  1  0
 24 65  1  6
 25 66  1  0
 26 27  1  0
 26 67  1  6
 27 68  1  0
 28 29  1  0
 28 30  1  0
 28 31  1  0
 29 69  1  0
 29 70  1  0
 29 71  1  0
 30 72  1  0
 30 73  1  0
 30 74  1  0
 31 36  1  0
 31 32  2  0
 32 33  1  0
 32 75  1  0
 33 34  2  0
 35 33  1  6
 35 36  1  0
 36 37  1  6
 37 76  1  0
 37 77  1  0
 37 78  1  0
 38 39  1  0
 38 79  1  1
 39 40  1  0
 39 41  1  0
 40 80  1  0
 40 81  1  0
 40 82  1  0
 41 83  1  0
 41 84  1  0
 41 85  1  0
M  END
>  <i_m_ct_stereo_status>  (46) 
1

>  <s_m_source_file>  (46) 
/var/tmp/pbs.5076255.sched01/tmp8nmo4hef/06hb_edth.sdf

>  <i_m_source_file_index>  (46) 
17

>  <i_lp_mmshare_version>  (46) 
48012

>  <i_f3d_flags>  (46) 
0

>  <s_epik_input>  (46) 
Tz1DMVtDSF0yW0NAQF0oTzMpKFtDSDNdKVtDQEBIXTJDKFtDSDNdKShbQ0gzXSlbQ0BIXShbQ0gyXVtDQEhdNFtDSDNdKVtDSDJdW0NAQEhdM1tDQEBdNChDKD1PKVtDSF01KVtDQEBdNihbQ0gzXSlDPTVDKFtDSDNdKShbQ0gzXSlbQ0BASF0oW0NIMl1bQ0BASF0oW0NAQF0xNjcpTzcpT1tDQEBIXThPW0NIMl1bQ0BASF0oW09IXSlbQ0BASF0oW09IXSlbQ0BIXThbT0hd

>  <s_epik_cmdline>  (46) 
J2VwaWtfcHl0aG9uJywgJy1waHQnLCAnMi4wJywgJy1waCcsICc3LjAnLCAnLXRuJywgJzgnLCAnLW1hJywgJzIwMCcsICctaW1hZScsICc8aW5maWxlLm1hZT4nLCAnLW9tYWUnLCAnPG91dGZpbGUubWFlPic=

>  <r_lp_tautomer_probability>  (46) 
1

>  <r_epik_Ionization_Penalty>  (46) 
1.67385e-06

>  <r_epik_Ionization_Penalty_Charging>  (46) 
0

>  <r_epik_Ionization_Penalty_Neutral>  (46) 
1.67385e-06

>  <r_epik_State_Penalty>  (46) 
-0

>  <r_epik_Charging_Adjusted_Penalty>  (46) 
0

>  <i_epik_Tot_Q>  (46) 
0

>  <i_epik_Tot_abs_Q>  (46) 
0

>  <s_epik_Chemistry_Notes>  (46) 
This compound contains an acetal/aminal-like group ( X-CH(R)-Y where X, Y are N, S, or O) that may be acid/base labile, releasing an aldehyde.

>  <s_lp_Force_Field>  (46) 
OPLS3e

>  <r_lp_Energy>  (46) 
264.576

>  <b_lp_Chiralities_Consistent>  (46) 
1

>  <s_lp_Variant>  (46) 
13:0-2

>  <s_i_glide_gridfile>  (46) 
pfpi4k_grid

>  <i_i_glide_lignum>  (46) 
17

>  <i_i_glide_rotatable_bonds>  (46) 
5

>  <r_i_docking_score>  (46) 
-3.2292

>  <r_i_glide_ligand_efficiency>  (46) 
-0.078761

>  <r_i_glide_ligand_efficiency_sa>  (46) 
-0.271585

>  <r_i_glide_ligand_efficiency_ln>  (46) 
-0.685086

>  <r_i_glide_gscore>  (46) 
-3.2292

>  <r_i_glide_lipo>  (46) 
-0.474358

>  <r_i_glide_hbond>  (46) 
0

>  <r_i_glide_metal>  (46) 
-0

>  <r_i_glide_rewards>  (46) 
-0.0254076

>  <r_i_glide_evdw>  (46) 
-36.2021

>  <r_i_glide_ecoul>  (46) 
-6.30205

>  <r_i_glide_erotb>  (46) 
0.0347413

>  <r_i_glide_esite>  (46) 
-0.00876496

>  <r_i_glide_emodel>  (46) 
-47.8997

>  <r_i_glide_energy>  (46) 
-42.5041

>  <r_i_glide_einternal>  (46) 
3.54397

>  <r_i_glide_intrahb_reward>  (46) 
-0

>  <i_i_glide_confnum>  (46) 
3

>  <i_i_glide_posenum>  (46) 
7

>  <r_i_glide_eff_state_penalty>  (46) 
0

>  <ligand_id>  (46) 
13

>  <original_smiles>  (46) 
CC1CC2CC3OC4(C)C(C(=O)C56OC5CC(OC5OCC(O)C(O)C5O)C(C)(C)C5=CC(=O)C13C56C)C4C2(C)C

>  <smiles>  (46) 
[H]OC1([H])C([H])([H])OC([H])(OC2([H])C([H])([H])C3([H])OC34C(=O)C3([H])C5([H])C3(C([H])([H])[H])OC3([H])C([H])([H])C([H])(C([H])([H])C([H])(C([H])([H])[H])C36C(=O)C([H])=C(C2(C([H])([H])[H])C([H])([H])[H])C46C([H])([H])[H])C5(C([H])([H])[H])C([H])([H])[H])C([H])(O[H])C1([H])O[H]

$$$$
14:0:0
     RDKit          3D

 94101  0  0  1  0  0  0  0  0999 V2000
    5.0387   -8.5816    4.1453 C   0  0  0  0  0  0  0  0  0  0  0  0
    3.7565   -7.8380    4.6403 C   0  0  2  0  0  0  0  0  0  0  0  0
    2.5661   -8.6734    4.0108 C   0  0  0  0  0  0  0  0  0  0  0  0
    1.1546   -8.2754    4.3956 C   0  0  1  0  0  0  0  0  0  0  0  0
    0.8880   -6.8501    4.0018 C   0  0  2  0  0  0  0  0  0  0  0  0
    1.0072   -5.9163    5.1952 C   0  0  1  0  0  0  0  0  0  0  0  0
   -0.2506   -5.7150    6.0529 C   0  0  0  0  0  0  0  0  0  0  0  0
   -0.0803   -4.5013    6.9658 C   0  0  0  0  0  0  0  0  0  0  0  0
   -1.0619   -3.8259    7.2634 O   0  0  0  0  0  0  0  0  0  0  0  0
    1.2744   -4.2252    7.4753 C   0  0  0  0  0  0  0  0  0  0  0  0
    2.3447   -4.9473    7.0605 C   0  0  0  0  0  0  0  0  0  0  0  0
    2.3481   -6.0744    6.0116 C   0  0  1  0  0  0  0  0  0  0  0  0
    2.2787   -7.2234    7.0848 C   0  0  0  0  0  0  0  0  0  0  0  0
    3.6147   -6.2059    4.9332 C   0  0  2  0  0  0  0  0  0  0  0  0
    3.4370   -5.3576    3.7112 O   0  0  0  0  0  0  0  0  0  0  0  0
    4.6193   -4.8099    2.9739 C   0  0  2  0  0  0  0  0  0  0  0  0
    5.6516   -5.4897    3.8949 C   0  0  0  0  0  0  0  0  0  0  0  0
    4.9718   -5.4907    5.2966 C   0  0  2  0  0  0  0  0  0  0  0  0
    5.8058   -6.2053    6.3928 C   0  0  0  0  0  0  0  0  0  0  0  0
    4.8754   -3.9797    5.7816 C   0  0  0  0  0  0  0  0  0  0  0  0
    3.7400   -3.0534    5.2198 C   0  0  0  0  0  0  0  0  0  0  0  0
    4.0752   -2.4260    3.8756 C   0  0  1  0  0  0  0  0  0  0  0  0
    5.0429   -3.2489    3.0414 C   0  0  2  0  0  0  0  0  0  0  0  0
    5.1981   -2.3344    1.7826 C   0  0  1  0  0  0  0  0  0  0  0  0
    5.8571   -0.9432    2.1221 C   0  0  0  0  0  0  0  0  0  0  0  0
    6.1918   -2.7389    0.6491 C   0  0  0  0  0  0  0  0  0  0  0  0
    5.9540   -3.9494   -0.2099 C   0  0  0  0  0  0  0  0  0  0  0  0
    5.7672   -5.2003    0.6150 C   0  0  0  0  0  0  0  0  0  0  0  0
    4.4662   -5.2819    1.4595 C   0  0  1  0  0  0  0  0  0  0  0  0
    4.1344   -6.7851    1.3529 C   0  0  0  0  0  0  0  0  0  0  0  0
    3.2462   -4.5830    0.7124 C   0  0  1  0  0  0  0  0  0  0  0  0
    2.0074   -5.0574    1.1739 O   0  0  0  0  0  0  0  0  0  0  0  0
    3.2618   -3.1727    0.5546 O   0  0  0  0  0  0  0  0  0  0  0  0
    3.7085   -2.1496    1.4659 C   0  0  1  0  0  0  0  0  0  0  0  0
    2.9892   -1.9412    2.8598 C   0  0  0  0  0  0  0  0  0  0  0  0
    1.6443   -2.6591    2.9796 C   0  0  0  0  0  0  0  0  0  0  0  0
    2.6252   -0.4499    3.0876 C   0  0  0  0  0  0  0  0  0  0  0  0
   -0.0575   -7.9437    3.5624 C   0  0  0  0  0  0  0  0  0  0  0  0
   -0.0979   -8.3459    2.1073 C   0  0  0  0  0  0  0  0  0  0  0  0
   -1.4428   -8.0708    4.1564 C   0  0  0  0  0  0  0  0  0  0  0  0
    5.0951   -8.7029    3.0728 H   0  0  0  0  0  0  0  0  0  0  0  0
    5.0104   -9.6099    4.5109 H   0  0  0  0  0  0  0  0  0  0  0  0
    5.9980   -8.2168    4.4995 H   0  0  0  0  0  0  0  0  0  0  0  0
    3.8724   -8.2313    5.6396 H   0  0  0  0  0  0  0  0  0  0  0  0
    2.6445   -8.7456    2.9302 H   0  0  0  0  0  0  0  0  0  0  0  0
    2.6762   -9.7110    4.3294 H   0  0  0  0  0  0  0  0  0  0  0  0
    0.8230   -8.6847    5.3455 H   0  0  0  0  0  0  0  0  0  0  0  0
    1.4309   -6.4663    3.1486 H   0  0  0  0  0  0  0  0  0  0  0  0
    1.0971   -4.9530    4.7024 H   0  0  0  0  0  0  0  0  0  0  0  0
   -1.0992   -5.5295    5.4014 H   0  0  0  0  0  0  0  0  0  0  0  0
   -0.4777   -6.5929    6.6544 H   0  0  0  0  0  0  0  0  0  0  0  0
    1.3768   -3.4916    8.2618 H   0  0  0  0  0  0  0  0  0  0  0  0
    3.2534   -4.8097    7.6153 H   0  0  0  0  0  0  0  0  0  0  0  0
    2.1730   -8.2441    6.7507 H   0  0  0  0  0  0  0  0  0  0  0  0
    1.4406   -7.0941    7.7720 H   0  0  0  0  0  0  0  0  0  0  0  0
    3.1778   -7.2269    7.6999 H   0  0  0  0  0  0  0  0  0  0  0  0
    5.8815   -6.4515    3.4827 H   0  0  0  0  0  0  0  0  0  0  0  0
    6.6350   -5.0351    3.9268 H   0  0  0  0  0  0  0  0  0  0  0  0
    6.8298   -5.8290    6.4080 H   0  0  0  0  0  0  0  0  0  0  0  0
    5.8703   -7.2831    6.3099 H   0  0  0  0  0  0  0  0  0  0  0  0
    5.3911   -6.0313    7.3859 H   0  0  0  0  0  0  0  0  0  0  0  0
    4.8386   -3.9248    6.8646 H   0  0  0  0  0  0  0  0  0  0  0  0
    5.8404   -3.4974    5.6265 H   0  0  0  0  0  0  0  0  0  0  0  0
    2.7885   -3.5502    5.1303 H   0  0  0  0  0  0  0  0  0  0  0  0
    3.5573   -2.2504    5.9358 H   0  0  0  0  0  0  0  0  0  0  0  0
    4.6093   -1.5539    4.2339 H   0  0  0  0  0  0  0  0  0  0  0  0
    6.0120   -3.1463    3.5054 H   0  0  0  0  0  0  0  0  0  0  0  0
    5.8978   -0.2893    1.2489 H   0  0  0  0  0  0  0  0  0  0  0  0
    6.8890   -1.0560    2.4545 H   0  0  0  0  0  0  0  0  0  0  0  0
    5.4017   -0.3251    2.8822 H   0  0  0  0  0  0  0  0  0  0  0  0
    6.2804   -1.9228   -0.0688 H   0  0  0  0  0  0  0  0  0  0  0  0
    7.1879   -2.8479    1.0820 H   0  0  0  0  0  0  0  0  0  0  0  0
    5.1502   -3.7924   -0.9236 H   0  0  0  0  0  0  0  0  0  0  0  0
    6.8417   -4.0821   -0.8225 H   0  0  0  0  0  0  0  0  0  0  0  0
    5.7903   -6.0082   -0.1197 H   0  0  0  0  0  0  0  0  0  0  0  0
    6.6443   -5.3762    1.2446 H   0  0  0  0  0  0  0  0  0  0  0  0
    3.8176   -7.0471    0.3418 H   0  0  0  0  0  0  0  0  0  0  0  0
    3.3176   -7.0565    2.0049 H   0  0  0  0  0  0  0  0  0  0  0  0
    5.0054   -7.3994    1.5574 H   0  0  0  0  0  0  0  0  0  0  0  0
    3.2647   -4.9150   -0.3260 H   0  0  0  0  0  0  0  0  0  0  0  0
    1.9902   -4.8804    2.1003 H   0  0  0  0  0  0  0  0  0  0  0  0
    3.5982   -1.2321    0.8884 H   0  0  0  0  0  0  0  0  0  0  0  0
    1.0398   -2.4754    2.0914 H   0  0  0  0  0  0  0  0  0  0  0  0
    1.0746   -2.3172    3.8434 H   0  0  0  0  0  0  0  0  0  0  0  0
    1.7723   -3.7195    3.1071 H   0  0  0  0  0  0  0  0  0  0  0  0
    1.8077   -0.1445    2.4329 H   0  0  0  0  0  0  0  0  0  0  0  0
    3.4306    0.2508    2.8949 H   0  0  0  0  0  0  0  0  0  0  0  0
    2.2952   -0.2789    4.1124 H   0  0  0  0  0  0  0  0  0  0  0  0
   -0.8190   -7.7471    1.5518 H   0  0  0  0  0  0  0  0  0  0  0  0
   -0.3824   -9.3976    2.0360 H   0  0  0  0  0  0  0  0  0  0  0  0
    0.8802   -8.2274    1.6391 H   0  0  0  0  0  0  0  0  0  0  0  0
   -2.1098   -7.3123    3.7456 H   0  0  0  0  0  0  0  0  0  0  0  0
   -1.3908   -7.9691    5.2374 H   0  0  0  0  0  0  0  0  0  0  0  0
   -1.8633   -9.0544    3.9487 H   0  0  0  0  0  0  0  0  0  0  0  0
  1  2  1  0
  1 41  1  0
  1 42  1  0
  1 43  1  0
  2 14  1  0
  2  3  1  0
  2 44  1  1
  3  4  1  0
  3 45  1  0
  3 46  1  0
  4 38  1  0
  4  5  1  0
  4 47  1  1
  5  6  1  0
  5 38  1  0
  5 48  1  6
  6 12  1  0
  6  7  1  0
  6 49  1  6
  7  8  1  0
  7 50  1  0
  7 51  1  0
  8  9  2  0
  8 10  1  0
 10 11  2  0
 10 52  1  0
 11 12  1  0
 11 53  1  0
 12 13  1  1
 12 14  1  0
 13 54  1  0
 13 55  1  0
 13 56  1  0
 14 18  1  0
 14 15  1  6
 16 15  1  1
 16 23  1  0
 16 29  1  0
 16 17  1  0
 17 18  1  0
 17 57  1  0
 17 58  1  0
 18 19  1  1
 18 20  1  0
 19 59  1  0
 19 60  1  0
 19 61  1  0
 20 21  1  0
 20 62  1  0
 20 63  1  0
 21 22  1  0
 21 64  1  0
 21 65  1  0
 22 35  1  0
 22 23  1  0
 22 66  1  1
 23 24  1  0
 23 67  1  1
 24 34  1  0
 24 25  1  1
 24 26  1  0
 25 68  1  0
 25 69  1  0
 25 70  1  0
 26 27  1  0
 26 71  1  0
 26 72  1  0
 27 28  1  0
 27 73  1  0
 27 74  1  0
 28 29  1  0
 28 75  1  0
 28 76  1  0
 29 30  1  1
 29 31  1  0
 30 77  1  0
 30 78  1  0
 30 79  1  0
 31 32  1  0
 31 33  1  0
 31 80  1  6
 32 81  1  0
 33 34  1  0
 34 35  1  0
 34 82  1  6
 35 36  1  0
 35 37  1  0
 36 83  1  0
 36 84  1  0
 36 85  1  0
 37 86  1  0
 37 87  1  0
 37 88  1  0
 38 39  1  0
 38 40  1  0
 39 89  1  0
 39 90  1  0
 39 91  1  0
 40 92  1  0
 40 93  1  0
 40 94  1  0
M  END
>  <i_m_ct_stereo_status>  (47) 
1

>  <s_m_source_file>  (47) 
/var/tmp/pbs.5076255.sched01/tmp8nmo4hef/06hb_edth.sdf

>  <i_m_source_file_index>  (47) 
18

>  <i_lp_mmshare_version>  (47) 
48012

>  <i_f3d_flags>  (47) 
0

>  <s_epik_input>  (47) 
W0NIM11bQ0BASF0xW0NIMl1bQ0BIXShDMihbQ0gzXSlbQ0gzXSlbQ0BASF0yW0NAQEhdKFtDSDJdQyg9TylbQ0hdPVtDSF0zKVtDQEBdMyhbQ0gzXSlbQ0BAXTE0W0NAQF01KFtDSDNdKVtDSDJdW0NAQF02KE80KVtDQEBIXTdbQ0BIXShbQ0gyXVtDSDJdNSlDKFtDSDNdKShbQ0gzXSlbQ0BIXThbQ0BdNyhbQ0gzXSlbQ0gyXVtDSDJdW0NIMl1bQ0BdNihbQ0gzXSlbQ0BIXShPOClbT0hd

>  <s_epik_cmdline>  (47) 
J2VwaWtfcHl0aG9uJywgJy1waHQnLCAnMi4wJywgJy1waCcsICc3LjAnLCAnLXRuJywgJzgnLCAnLW1hJywgJzIwMCcsICctaW1hZScsICc8aW5maWxlLm1hZT4nLCAnLW9tYWUnLCAnPG91dGZpbGUubWFlPic=

>  <r_lp_tautomer_probability>  (47) 
1

>  <r_epik_Ionization_Penalty>  (47) 
6.03008e-08

>  <r_epik_Ionization_Penalty_Charging>  (47) 
0

>  <r_epik_Ionization_Penalty_Neutral>  (47) 
6.03008e-08

>  <r_epik_State_Penalty>  (47) 
-0

>  <r_epik_Charging_Adjusted_Penalty>  (47) 
0

>  <i_epik_Tot_Q>  (47) 
0

>  <i_epik_Tot_abs_Q>  (47) 
0

>  <s_epik_Chemistry_Notes>  (47) 
This compound contains an acetal/aminal-like group ( X-CH(R)-Y where X, Y are N, S, or O) that may be acid/base labile, releasing an aldehyde.

>  <s_lp_Force_Field>  (47) 
OPLS3e

>  <r_lp_Energy>  (47) 
224.146

>  <b_lp_Chiralities_Consistent>  (47) 
1

>  <s_lp_Variant>  (47) 
14:0-1

>  <s_i_glide_gridfile>  (47) 
pfpi4k_grid

>  <i_i_glide_lignum>  (47) 
18

>  <i_i_glide_rotatable_bonds>  (47) 
1

>  <r_i_docking_score>  (47) 
-2.81546

>  <r_i_glide_ligand_efficiency>  (47) 
-0.0703866

>  <r_i_glide_ligand_efficiency_sa>  (47) 
-0.240719

>  <r_i_glide_ligand_efficiency_ln>  (47) 
-0.600456

>  <r_i_glide_gscore>  (47) 
-2.81546

>  <r_i_glide_lipo>  (47) 
-0.567269

>  <r_i_glide_hbond>  (47) 
0

>  <r_i_glide_metal>  (47) 
-0

>  <r_i_glide_rewards>  (47) 
-0.5

>  <r_i_glide_evdw>  (47) 
-28.2244

>  <r_i_glide_ecoul>  (47) 
-2.14977

>  <r_i_glide_erotb>  (47) 
0

>  <r_i_glide_esite>  (47) 
-0.01451

>  <r_i_glide_emodel>  (47) 
-40.8682

>  <r_i_glide_energy>  (47) 
-30.3742

>  <r_i_glide_einternal>  (47) 
0.0374609

>  <r_i_glide_intrahb_reward>  (47) 
-0.5

>  <i_i_glide_confnum>  (47) 
1

>  <i_i_glide_posenum>  (47) 
20

>  <r_i_glide_eff_state_penalty>  (47) 
0

>  <ligand_id>  (47) 
14

>  <original_smiles>  (47) 
CC1CC2C(C3CC(=O)C=CC3(C)C13OC14CC3(C)CCC3C1C1(C)CCCC4(C)C(O)OC1C3(C)C)C2(C)C

>  <smiles>  (47) 
[H]OC1([H])OC2([H])C(C([H])([H])[H])(C([H])([H])[H])C3([H])C([H])([H])C([H])([H])C4(C([H])([H])[H])C([H])([H])C5(OC46C([H])(C([H])([H])[H])C([H])([H])C4([H])C([H])(C7([H])C([H])([H])C(=O)C([H])=C([H])C76C([H])([H])[H])C4(C([H])([H])[H])C([H])([H])[H])C3([H])C2(C([H])([H])[H])C([H])([H])C([H])([H])C([H])([H])C15C([H])([H])[H]

$$$$
14:0:1
     RDKit          3D

 94101  0  0  1  0  0  0  0  0999 V2000
    6.6191   -8.6983    3.1564 C   0  0  0  0  0  0  0  0  0  0  0  0
    5.3893   -8.4182    4.0782 C   0  0  2  0  0  0  0  0  0  0  0  0
    4.3794   -9.5896    3.7319 C   0  0  0  0  0  0  0  0  0  0  0  0
    3.1091   -9.6769    4.5508 C   0  0  1  0  0  0  0  0  0  0  0  0
    2.3033   -8.4161    4.4115 C   0  0  2  0  0  0  0  0  0  0  0  0
    2.4931   -7.5072    5.6155 C   0  0  1  0  0  0  0  0  0  0  0  0
    1.5541   -7.7342    6.8128 C   0  0  0  0  0  0  0  0  0  0  0  0
    1.6281   -6.5440    7.7693 C   0  0  0  0  0  0  0  0  0  0  0  0
    0.6302   -6.2334    8.4167 O   0  0  0  0  0  0  0  0  0  0  0  0
    2.9182   -5.8478    7.8915 C   0  0  0  0  0  0  0  0  0  0  0  0
    3.9756   -6.1750    7.1108 C   0  0  0  0  0  0  0  0  0  0  0  0
    4.0008   -7.2277    5.9875 C   0  0  1  0  0  0  0  0  0  0  0  0
    4.6246   -8.3466    6.9016 C   0  0  0  0  0  0  0  0  0  0  0  0
    4.8503   -6.9238    4.5814 C   0  0  2  0  0  0  0  0  0  0  0  0
    4.0549   -6.1617    3.5670 O   0  0  0  0  0  0  0  0  0  0  0  0
    4.7223   -5.2472    2.5863 C   0  0  2  0  0  0  0  0  0  0  0  0
    6.1431   -5.5678    3.0820 C   0  0  0  0  0  0  0  0  0  0  0  0
    5.9650   -5.8081    4.6136 C   0  0  2  0  0  0  0  0  0  0  0  0
    7.2765   -6.2247    5.3348 C   0  0  0  0  0  0  0  0  0  0  0  0
    5.5583   -4.4220    5.2778 C   0  0  0  0  0  0  0  0  0  0  0  0
    4.0807   -3.9086    5.1706 C   0  0  0  0  0  0  0  0  0  0  0  0
    3.7867   -3.1847    3.8637 C   0  0  1  0  0  0  0  0  0  0  0  0
    4.6654   -3.6306    2.7014 C   0  0  2  0  0  0  0  0  0  0  0  0
    4.1323   -2.7023    1.5594 C   0  0  1  0  0  0  0  0  0  0  0  0
    4.4193   -1.1773    1.8474 C   0  0  0  0  0  0  0  0  0  0  0  0
    4.7904   -2.7522    0.1437 C   0  0  0  0  0  0  0  0  0  0  0  0
    4.6801   -3.9709   -0.7352 C   0  0  0  0  0  0  0  0  0  0  0  0
    5.1376   -5.2207   -0.0246 C   0  0  0  0  0  0  0  0  0  0  0  0
    4.2532   -5.7288    1.1435 C   0  0  1  0  0  0  0  0  0  0  0  0
    4.3774   -7.2558    0.9782 C   0  0  0  0  0  0  0  0  0  0  0  0
    2.7124   -5.4432    0.8579 C   0  0  1  0  0  0  0  0  0  0  0  0
    1.8505   -6.2759    1.5885 O   0  0  0  0  0  0  0  0  0  0  0  0
    2.2739   -4.0999    0.8418 O   0  0  0  0  0  0  0  0  0  0  0  0
    2.6339   -3.0067    1.7071 C   0  0  1  0  0  0  0  0  0  0  0  0
    2.3478   -3.0732    3.2631 C   0  0  0  0  0  0  0  0  0  0  0  0
    1.4000   -4.2009    3.6881 C   0  0  0  0  0  0  0  0  0  0  0  0
    1.6259   -1.7876    3.7512 C   0  0  0  0  0  0  0  0  0  0  0  0
    1.6613   -9.7640    4.1483 C   0  0  0  0  0  0  0  0  0  0  0  0
    1.2919  -10.1389    2.7261 C   0  0  0  0  0  0  0  0  0  0  0  0
    0.6405  -10.3349    5.1115 C   0  0  0  0  0  0  0  0  0  0  0  0
    6.3765   -8.7822    2.1056 H   0  0  0  0  0  0  0  0  0  0  0  0
    7.0220   -9.6845    3.3961 H   0  0  0  0  0  0  0  0  0  0  0  0
    7.4805   -8.0448    3.2555 H   0  0  0  0  0  0  0  0  0  0  0  0
    5.9191   -8.7639    4.9532 H   0  0  0  0  0  0  0  0  0  0  0  0
    4.1340   -9.6227    2.6743 H   0  0  0  0  0  0  0  0  0  0  0  0
    4.8932  -10.5400    3.8868 H   0  0  0  0  0  0  0  0  0  0  0  0
    3.2258  -10.1836    5.5035 H   0  0  0  0  0  0  0  0  0  0  0  0
    2.4059   -7.8664    3.4849 H   0  0  0  0  0  0  0  0  0  0  0  0
    2.1283   -6.5613    5.2280 H   0  0  0  0  0  0  0  0  0  0  0  0
    0.5273   -7.8222    6.4638 H   0  0  0  0  0  0  0  0  0  0  0  0
    1.8009   -8.6446    7.3546 H   0  0  0  0  0  0  0  0  0  0  0  0
    3.0262   -5.1295    8.6926 H   0  0  0  0  0  0  0  0  0  0  0  0
    4.9208   -5.7528    7.3963 H   0  0  0  0  0  0  0  0  0  0  0  0
    4.7376   -9.3421    6.5026 H   0  0  0  0  0  0  0  0  0  0  0  0
    4.0423   -8.5050    7.8107 H   0  0  0  0  0  0  0  0  0  0  0  0
    5.6251   -8.0644    7.2275 H   0  0  0  0  0  0  0  0  0  0  0  0
    6.5195   -6.3992    2.5177 H   0  0  0  0  0  0  0  0  0  0  0  0
    6.8917   -4.8130    2.8627 H   0  0  0  0  0  0  0  0  0  0  0  0
    8.0875   -5.5351    5.0952 H   0  0  0  0  0  0  0  0  0  0  0  0
    7.6391   -7.2212    5.1168 H   0  0  0  0  0  0  0  0  0  0  0  0
    7.1564   -6.2085    6.4177 H   0  0  0  0  0  0  0  0  0  0  0  0
    5.8474   -4.3933    6.3218 H   0  0  0  0  0  0  0  0  0  0  0  0
    6.2175   -3.6392    4.9042 H   0  0  0  0  0  0  0  0  0  0  0  0
    3.3447   -4.6855    5.3038 H   0  0  0  0  0  0  0  0  0  0  0  0
    3.8917   -3.2174    5.9935 H   0  0  0  0  0  0  0  0  0  0  0  0
    4.1058   -2.1891    4.1503 H   0  0  0  0  0  0  0  0  0  0  0  0
    5.6588   -3.2181    2.8681 H   0  0  0  0  0  0  0  0  0  0  0  0
    3.9836   -0.5353    1.0799 H   0  0  0  0  0  0  0  0  0  0  0  0
    5.4909   -0.9726    1.8567 H   0  0  0  0  0  0  0  0  0  0  0  0
    4.0440   -0.7523    2.7665 H   0  0  0  0  0  0  0  0  0  0  0  0
    4.3899   -1.9465   -0.4723 H   0  0  0  0  0  0  0  0  0  0  0  0
    5.8548   -2.5362    0.2517 H   0  0  0  0  0  0  0  0  0  0  0  0
    3.6867   -4.0737   -1.1620 H   0  0  0  0  0  0  0  0  0  0  0  0
    5.3241   -3.8210   -1.6015 H   0  0  0  0  0  0  0  0  0  0  0  0
    5.1631   -5.9689   -0.8182 H   0  0  0  0  0  0  0  0  0  0  0  0
    6.1767   -5.1158    0.2962 H   0  0  0  0  0  0  0  0  0  0  0  0
    3.8640   -7.6028    0.0821 H   0  0  0  0  0  0  0  0  0  0  0  0
    3.9295   -7.7870    1.8040 H   0  0  0  0  0  0  0  0  0  0  0  0
    5.4109   -7.5564    0.8519 H   0  0  0  0  0  0  0  0  0  0  0  0
    2.5131   -5.7400   -0.1723 H   0  0  0  0  0  0  0  0  0  0  0  0
    2.1504   -6.2612    2.4864 H   0  0  0  0  0  0  0  0  0  0  0  0
    2.0712   -2.1688    1.2936 H   0  0  0  0  0  0  0  0  0  0  0  0
    0.5380   -4.2423    3.0298 H   0  0  0  0  0  0  0  0  0  0  0  0
    1.0340   -4.0686    4.7082 H   0  0  0  0  0  0  0  0  0  0  0  0
    1.8849   -5.1601    3.6698 H   0  0  0  0  0  0  0  0  0  0  0  0
    0.5946   -1.7579    3.3985 H   0  0  0  0  0  0  0  0  0  0  0  0
    2.0787   -0.8607    3.4123 H   0  0  0  0  0  0  0  0  0  0  0  0
    1.5929   -1.7423    4.8403 H   0  0  0  0  0  0  0  0  0  0  0  0
    0.2882   -9.7907    2.4798 H   0  0  0  0  0  0  0  0  0  0  0  0
    1.3258  -11.2211    2.6029 H   0  0  0  0  0  0  0  0  0  0  0  0
    1.9837   -9.6935    2.0105 H   0  0  0  0  0  0  0  0  0  0  0  0
   -0.3084   -9.8153    4.9863 H   0  0  0  0  0  0  0  0  0  0  0  0
    0.9626  -10.2307    6.1444 H   0  0  0  0  0  0  0  0  0  0  0  0
    0.4891  -11.4008    4.9300 H   0  0  0  0  0  0  0  0  0  0  0  0
  1  2  1  0
  1 41  1  0
  1 42  1  0
  1 43  1  0
  2 14  1  0
  2  3  1  0
  2 44  1  1
  3  4  1  0
  3 45  1  0
  3 46  1  0
  4 38  1  0
  4  5  1  0
  4 47  1  1
  5  6  1  0
  5 38  1  0
  5 48  1  6
  6 12  1  0
  6  7  1  0
  6 49  1  6
  7  8  1  0
  7 50  1  0
  7 51  1  0
  8  9  2  0
  8 10  1  0
 10 11  2  0
 10 52  1  0
 11 12  1  0
 11 53  1  0
 12 13  1  1
 12 14  1  0
 13 54  1  0
 13 55  1  0
 13 56  1  0
 14 18  1  0
 14 15  1  6
 16 15  1  1
 16 23  1  0
 16 29  1  0
 16 17  1  0
 17 18  1  0
 17 57  1  0
 17 58  1  0
 18 19  1  1
 18 20  1  0
 19 59  1  0
 19 60  1  0
 19 61  1  0
 20 21  1  0
 20 62  1  0
 20 63  1  0
 21 22  1  0
 21 64  1  0
 21 65  1  0
 22 35  1  0
 22 23  1  0
 22 66  1  1
 23 24  1  0
 23 67  1  1
 24 34  1  0
 24 25  1  1
 24 26  1  0
 25 68  1  0
 25 69  1  0
 25 70  1  0
 26 27  1  0
 26 71  1  0
 26 72  1  0
 27 28  1  0
 27 73  1  0
 27 74  1  0
 28 29  1  0
 28 75  1  0
 28 76  1  0
 29 30  1  1
 29 31  1  0
 30 77  1  0
 30 78  1  0
 30 79  1  0
 31 32  1  0
 31 33  1  0
 31 80  1  6
 32 81  1  0
 33 34  1  0
 34 35  1  0
 34 82  1  6
 35 36  1  0
 35 37  1  0
 36 83  1  0
 36 84  1  0
 36 85  1  0
 37 86  1  0
 37 87  1  0
 37 88  1  0
 38 39  1  0
 38 40  1  0
 39 89  1  0
 39 90  1  0
 39 91  1  0
 40 92  1  0
 40 93  1  0
 40 94  1  0
M  END
>  <i_m_ct_stereo_status>  (48) 
1

>  <s_m_source_file>  (48) 
/var/tmp/pbs.5076255.sched01/tmp8nmo4hef/06hb_edth.sdf

>  <i_m_source_file_index>  (48) 
18

>  <i_lp_mmshare_version>  (48) 
48012

>  <i_f3d_flags>  (48) 
0

>  <s_epik_input>  (48) 
W0NIM11bQ0BASF0xW0NIMl1bQ0BIXShDMihbQ0gzXSlbQ0gzXSlbQ0BASF0yW0NAQEhdKFtDSDJdQyg9TylbQ0hdPVtDSF0zKVtDQEBdMyhbQ0gzXSlbQ0BAXTE0W0NAQF01KFtDSDNdKVtDSDJdW0NAQF02KE80KVtDQEBIXTdbQ0BIXShbQ0gyXVtDSDJdNSlDKFtDSDNdKShbQ0gzXSlbQ0BIXThbQ0BdNyhbQ0gzXSlbQ0gyXVtDSDJdW0NIMl1bQ0BdNihbQ0gzXSlbQ0BIXShPOClbT0hd

>  <s_epik_cmdline>  (48) 
J2VwaWtfcHl0aG9uJywgJy1waHQnLCAnMi4wJywgJy1waCcsICc3LjAnLCAnLXRuJywgJzgnLCAnLW1hJywgJzIwMCcsICctaW1hZScsICc8aW5maWxlLm1hZT4nLCAnLW9tYWUnLCAnPG91dGZpbGUubWFlPic=

>  <r_lp_tautomer_probability>  (48) 
1

>  <r_epik_Ionization_Penalty>  (48) 
6.03008e-08

>  <r_epik_Ionization_Penalty_Charging>  (48) 
0

>  <r_epik_Ionization_Penalty_Neutral>  (48) 
6.03008e-08

>  <r_epik_State_Penalty>  (48) 
-0

>  <r_epik_Charging_Adjusted_Penalty>  (48) 
0

>  <i_epik_Tot_Q>  (48) 
0

>  <i_epik_Tot_abs_Q>  (48) 
0

>  <s_epik_Chemistry_Notes>  (48) 
This compound contains an acetal/aminal-like group ( X-CH(R)-Y where X, Y are N, S, or O) that may be acid/base labile, releasing an aldehyde.

>  <s_lp_Force_Field>  (48) 
OPLS3e

>  <r_lp_Energy>  (48) 
224.146

>  <b_lp_Chiralities_Consistent>  (48) 
1

>  <s_lp_Variant>  (48) 
14:0-1

>  <s_i_glide_gridfile>  (48) 
pfpi4k_grid

>  <i_i_glide_lignum>  (48) 
18

>  <i_i_glide_rotatable_bonds>  (48) 
1

>  <r_i_docking_score>  (48) 
-2.7356

>  <r_i_glide_ligand_efficiency>  (48) 
-0.0683901

>  <r_i_glide_ligand_efficiency_sa>  (48) 
-0.233891

>  <r_i_glide_ligand_efficiency_ln>  (48) 
-0.583424

>  <r_i_glide_gscore>  (48) 
-2.7356

>  <r_i_glide_lipo>  (48) 
-0.461561

>  <r_i_glide_hbond>  (48) 
0

>  <r_i_glide_metal>  (48) 
-0

>  <r_i_glide_rewards>  (48) 
-0.5

>  <r_i_glide_evdw>  (48) 
-27.9932

>  <r_i_glide_ecoul>  (48) 
-2.29674

>  <r_i_glide_erotb>  (48) 
0

>  <r_i_glide_esite>  (48) 
-0.0298707

>  <r_i_glide_emodel>  (48) 
-40.4686

>  <r_i_glide_energy>  (48) 
-30.29

>  <r_i_glide_einternal>  (48) 
0.225677

>  <r_i_glide_intrahb_reward>  (48) 
-0.5

>  <i_i_glide_confnum>  (48) 
2

>  <i_i_glide_posenum>  (48) 
8

>  <r_i_glide_eff_state_penalty>  (48) 
0

>  <ligand_id>  (48) 
14

>  <original_smiles>  (48) 
CC1CC2C(C3CC(=O)C=CC3(C)C13OC14CC3(C)CCC3C1C1(C)CCCC4(C)C(O)OC1C3(C)C)C2(C)C

>  <smiles>  (48) 
[H]OC1([H])OC2([H])C(C([H])([H])[H])(C([H])([H])[H])C3([H])C([H])([H])C([H])([H])C4(C([H])([H])[H])C([H])([H])C5(OC46C([H])(C([H])([H])[H])C([H])([H])C4([H])C([H])(C7([H])C([H])([H])C(=O)C([H])=C([H])C76C([H])([H])[H])C4(C([H])([H])[H])C([H])([H])[H])C3([H])C2(C([H])([H])[H])C([H])([H])C([H])([H])C([H])([H])C15C([H])([H])[H]

$$$$
14:0:2
     RDKit          3D

 94101  0  0  1  0  0  0  0  0999 V2000
    5.8697   -8.4687    3.3468 C   0  0  0  0  0  0  0  0  0  0  0  0
    4.6595   -7.8868    4.1455 C   0  0  2  0  0  0  0  0  0  0  0  0
    3.4573   -8.8422    3.7567 C   0  0  0  0  0  0  0  0  0  0  0  0
    2.1373   -8.6121    4.4589 C   0  0  1  0  0  0  0  0  0  0  0  0
    1.6518   -7.2120    4.1968 C   0  0  2  0  0  0  0  0  0  0  0  0
    1.9142   -6.3024    5.3810 C   0  0  1  0  0  0  0  0  0  0  0  0
    0.8551   -6.2676    6.5009 C   0  0  0  0  0  0  0  0  0  0  0  0
    1.0993   -5.0631    7.4095 C   0  0  0  0  0  0  0  0  0  0  0  0
    0.1412   -4.5095    7.9425 O   0  0  0  0  0  0  0  0  0  0  0  0
    2.4934   -4.6457    7.6165 C   0  0  0  0  0  0  0  0  0  0  0  0
    3.5153   -5.2330    6.9512 C   0  0  0  0  0  0  0  0  0  0  0  0
    3.4098   -6.3266    5.8743 C   0  0  1  0  0  0  0  0  0  0  0  0
    3.7089   -7.4954    6.8834 C   0  0  0  0  0  0  0  0  0  0  0  0
    4.4100   -6.2871    4.5368 C   0  0  2  0  0  0  0  0  0  0  0  0
    3.8728   -5.4373    3.4270 O   0  0  0  0  0  0  0  0  0  0  0  0
    4.7878   -4.7389    2.4703 C   0  0  2  0  0  0  0  0  0  0  0  0
    6.0629   -5.3217    3.0930 C   0  0  0  0  0  0  0  0  0  0  0  0
    5.7243   -5.4263    4.6164 C   0  0  2  0  0  0  0  0  0  0  0  0
    6.8592   -6.0587    5.4681 C   0  0  0  0  0  0  0  0  0  0  0  0
    5.5453   -3.9607    5.2044 C   0  0  0  0  0  0  0  0  0  0  0  0
    4.2327   -3.1515    4.9354 C   0  0  0  0  0  0  0  0  0  0  0  0
    4.2100   -2.4594    3.5785 C   0  0  1  0  0  0  0  0  0  0  0  0
    5.0604   -3.1435    2.5157 C   0  0  2  0  0  0  0  0  0  0  0  0
    4.8240   -2.1952    1.2924 C   0  0  1  0  0  0  0  0  0  0  0  0
    5.4030   -0.7482    1.5419 C   0  0  0  0  0  0  0  0  0  0  0  0
    5.5674   -2.4604   -0.0567 C   0  0  0  0  0  0  0  0  0  0  0  0
    5.2727   -3.6765   -0.8943 C   0  0  0  0  0  0  0  0  0  0  0  0
    5.4060   -4.9493   -0.0952 C   0  0  0  0  0  0  0  0  0  0  0  0
    4.3488   -5.1948    1.0146 C   0  0  1  0  0  0  0  0  0  0  0  0
    4.1766   -6.7222    0.9309 C   0  0  0  0  0  0  0  0  0  0  0  0
    2.9232   -4.6298    0.5875 C   0  0  1  0  0  0  0  0  0  0  0  0
    1.8714   -5.2511    1.2830 O   0  0  0  0  0  0  0  0  0  0  0  0
    2.7549   -3.2263    0.4914 O   0  0  0  0  0  0  0  0  0  0  0  0
    3.2867   -2.1774    1.3237 C   0  0  1  0  0  0  0  0  0  0  0  0
    2.8794   -2.0859    2.8502 C   0  0  0  0  0  0  0  0  0  0  0  0
    1.6794   -2.9584    3.2361 C   0  0  0  0  0  0  0  0  0  0  0  0
    2.4112   -0.6526    3.2166 C   0  0  0  0  0  0  0  0  0  0  0  0
    0.7489   -8.3800    3.9259 C   0  0  0  0  0  0  0  0  0  0  0  0
    0.4178   -8.7865    2.5019 C   0  0  0  0  0  0  0  0  0  0  0  0
   -0.4297   -8.6623    4.8132 C   0  0  0  0  0  0  0  0  0  0  0  0
    5.6948   -8.5609    2.2837 H   0  0  0  0  0  0  0  0  0  0  0  0
    6.0356   -9.5017    3.6604 H   0  0  0  0  0  0  0  0  0  0  0  0
    6.8385   -8.0007    3.4946 H   0  0  0  0  0  0  0  0  0  0  0  0
    5.0370   -8.2833    5.0749 H   0  0  0  0  0  0  0  0  0  0  0  0
    3.2955   -8.8837    2.6844 H   0  0  0  0  0  0  0  0  0  0  0  0
    3.7446   -9.8683    3.9959 H   0  0  0  0  0  0  0  0  0  0  0  0
    2.0662   -9.0793    5.4370 H   0  0  0  0  0  0  0  0  0  0  0  0
    1.9330   -6.7488    3.2605 H   0  0  0  0  0  0  0  0  0  0  0  0
    1.7811   -5.3255    4.9274 H   0  0  0  0  0  0  0  0  0  0  0  0
   -0.1362   -6.1637    6.0662 H   0  0  0  0  0  0  0  0  0  0  0  0
    0.8640   -7.1769    7.0975 H   0  0  0  0  0  0  0  0  0  0  0  0
    2.6877   -3.9195    8.3935 H   0  0  0  0  0  0  0  0  0  0  0  0
    4.5012   -5.0039    7.3079 H   0  0  0  0  0  0  0  0  0  0  0  0
    3.6428   -8.5133    6.5360 H   0  0  0  0  0  0  0  0  0  0  0  0
    3.0384   -7.4790    7.7440 H   0  0  0  0  0  0  0  0  0  0  0  0
    4.7189   -7.4069    7.2801 H   0  0  0  0  0  0  0  0  0  0  0  0
    6.2843   -6.2492    2.6027 H   0  0  0  0  0  0  0  0  0  0  0  0
    6.9662   -4.7613    2.8763 H   0  0  0  0  0  0  0  0  0  0  0  0
    7.8119   -5.5636    5.2738 H   0  0  0  0  0  0  0  0  0  0  0  0
    7.0226   -7.1201    5.3254 H   0  0  0  0  0  0  0  0  0  0  0  0
    6.6622   -5.9570    6.5349 H   0  0  0  0  0  0  0  0  0  0  0  0
    5.7564   -3.9321    6.2680 H   0  0  0  0  0  0  0  0  0  0  0  0
    6.3621   -3.3390    4.8918 H   0  0  0  0  0  0  0  0  0  0  0  0
    3.3393   -3.7465    5.0328 H   0  0  0  0  0  0  0  0  0  0  0  0
    4.1356   -2.3864    5.7075 H   0  0  0  0  0  0  0  0  0  0  0  0
    4.7112   -1.5383    3.8510 H   0  0  0  0  0  0  0  0  0  0  0  0
    6.1015   -2.9382    2.7539 H   0  0  0  0  0  0  0  0  0  0  0  0
    5.1732   -0.0737    0.7147 H   0  0  0  0  0  0  0  0  0  0  0  0
    6.4897   -0.7681    1.6382 H   0  0  0  0  0  0  0  0  0  0  0  0
    5.0573   -0.2032    2.4065 H   0  0  0  0  0  0  0  0  0  0  0  0
    5.3965   -1.6251   -0.7360 H   0  0  0  0  0  0  0  0  0  0  0  0
    6.6419   -2.4623    0.1382 H   0  0  0  0  0  0  0  0  0  0  0  0
    4.3157   -3.5993   -1.3965 H   0  0  0  0  0  0  0  0  0  0  0  0
    5.9987   -3.7108   -1.7051 H   0  0  0  0  0  0  0  0  0  0  0  0
    5.3436   -5.7391   -0.8484 H   0  0  0  0  0  0  0  0  0  0  0  0
    6.4174   -5.0378    0.3134 H   0  0  0  0  0  0  0  0  0  0  0  0
    3.6760   -7.0014    0.0093 H   0  0  0  0  0  0  0  0  0  0  0  0
    3.5581   -7.1036    1.7295 H   0  0  0  0  0  0  0  0  0  0  0  0
    5.1319   -7.2342    0.9031 H   0  0  0  0  0  0  0  0  0  0  0  0
    2.7443   -4.9370   -0.4417 H   0  0  0  0  0  0  0  0  0  0  0  0
    2.0729   -5.1537    2.2017 H   0  0  0  0  0  0  0  0  0  0  0  0
    2.9478   -1.2687    0.8242 H   0  0  0  0  0  0  0  0  0  0  0  0
    0.8758   -2.8334    2.5126 H   0  0  0  0  0  0  0  0  0  0  0  0
    1.2820   -2.6996    4.2190 H   0  0  0  0  0  0  0  0  0  0  0  0
    1.9441   -3.9999    3.2862 H   0  0  0  0  0  0  0  0  0  0  0  0
    1.4395   -0.4334    2.7720 H   0  0  0  0  0  0  0  0  0  0  0  0
    3.0732    0.1401    2.8812 H   0  0  0  0  0  0  0  0  0  0  0  0
    2.3021   -0.5401    4.2954 H   0  0  0  0  0  0  0  0  0  0  0  0
   -0.4760   -8.2726    2.1522 H   0  0  0  0  0  0  0  0  0  0  0  0
    0.2370   -9.8618    2.4400 H   0  0  0  0  0  0  0  0  0  0  0  0
    1.2370   -8.5470    1.8248 H   0  0  0  0  0  0  0  0  0  0  0  0
   -1.2781   -8.0138    4.5799 H   0  0  0  0  0  0  0  0  0  0  0  0
   -0.1846   -8.5902    5.8696 H   0  0  0  0  0  0  0  0  0  0  0  0
   -0.6746   -9.6994    4.6193 H   0  0  0  0  0  0  0  0  0  0  0  0
  1  2  1  0
  1 41  1  0
  1 42  1  0
  1 43  1  0
  2 14  1  0
  2  3  1  0
  2 44  1  1
  3  4  1  0
  3 45  1  0
  3 46  1  0
  4 38  1  0
  4  5  1  0
  4 47  1  1
  5  6  1  0
  5 38  1  0
  5 48  1  6
  6 12  1  0
  6  7  1  0
  6 49  1  6
  7  8  1  0
  7 50  1  0
  7 51  1  0
  8  9  2  0
  8 10  1  0
 10 11  2  0
 10 52  1  0
 11 12  1  0
 11 53  1  0
 12 13  1  1
 12 14  1  0
 13 54  1  0
 13 55  1  0
 13 56  1  0
 14 18  1  0
 14 15  1  6
 16 15  1  1
 16 23  1  0
 16 29  1  0
 16 17  1  0
 17 18  1  0
 17 57  1  0
 17 58  1  0
 18 19  1  1
 18 20  1  0
 19 59  1  0
 19 60  1  0
 19 61  1  0
 20 21  1  0
 20 62  1  0
 20 63  1  0
 21 22  1  0
 21 64  1  0
 21 65  1  0
 22 35  1  0
 22 23  1  0
 22 66  1  1
 23 24  1  0
 23 67  1  1
 24 34  1  0
 24 25  1  1
 24 26  1  0
 25 68  1  0
 25 69  1  0
 25 70  1  0
 26 27  1  0
 26 71  1  0
 26 72  1  0
 27 28  1  0
 27 73  1  0
 27 74  1  0
 28 29  1  0
 28 75  1  0
 28 76  1  0
 29 30  1  1
 29 31  1  0
 30 77  1  0
 30 78  1  0
 30 79  1  0
 31 32  1  0
 31 33  1  0
 31 80  1  6
 32 81  1  0
 33 34  1  0
 34 35  1  0
 34 82  1  6
 35 36  1  0
 35 37  1  0
 36 83  1  0
 36 84  1  0
 36 85  1  0
 37 86  1  0
 37 87  1  0
 37 88  1  0
 38 39  1  0
 38 40  1  0
 39 89  1  0
 39 90  1  0
 39 91  1  0
 40 92  1  0
 40 93  1  0
 40 94  1  0
M  END
>  <i_m_ct_stereo_status>  (49) 
1

>  <s_m_source_file>  (49) 
/var/tmp/pbs.5076255.sched01/tmp8nmo4hef/06hb_edth.sdf

>  <i_m_source_file_index>  (49) 
18

>  <i_lp_mmshare_version>  (49) 
48012

>  <i_f3d_flags>  (49) 
0

>  <s_epik_input>  (49) 
W0NIM11bQ0BASF0xW0NIMl1bQ0BIXShDMihbQ0gzXSlbQ0gzXSlbQ0BASF0yW0NAQEhdKFtDSDJdQyg9TylbQ0hdPVtDSF0zKVtDQEBdMyhbQ0gzXSlbQ0BAXTE0W0NAQF01KFtDSDNdKVtDSDJdW0NAQF02KE80KVtDQEBIXTdbQ0BIXShbQ0gyXVtDSDJdNSlDKFtDSDNdKShbQ0gzXSlbQ0BIXThbQ0BdNyhbQ0gzXSlbQ0gyXVtDSDJdW0NIMl1bQ0BdNihbQ0gzXSlbQ0BIXShPOClbT0hd

>  <s_epik_cmdline>  (49) 
J2VwaWtfcHl0aG9uJywgJy1waHQnLCAnMi4wJywgJy1waCcsICc3LjAnLCAnLXRuJywgJzgnLCAnLW1hJywgJzIwMCcsICctaW1hZScsICc8aW5maWxlLm1hZT4nLCAnLW9tYWUnLCAnPG91dGZpbGUubWFlPic=

>  <r_lp_tautomer_probability>  (49) 
1

>  <r_epik_Ionization_Penalty>  (49) 
6.03008e-08

>  <r_epik_Ionization_Penalty_Charging>  (49) 
0

>  <r_epik_Ionization_Penalty_Neutral>  (49) 
6.03008e-08

>  <r_epik_State_Penalty>  (49) 
-0

>  <r_epik_Charging_Adjusted_Penalty>  (49) 
0

>  <i_epik_Tot_Q>  (49) 
0

>  <i_epik_Tot_abs_Q>  (49) 
0

>  <s_epik_Chemistry_Notes>  (49) 
This compound contains an acetal/aminal-like group ( X-CH(R)-Y where X, Y are N, S, or O) that may be acid/base labile, releasing an aldehyde.

>  <s_lp_Force_Field>  (49) 
OPLS3e

>  <r_lp_Energy>  (49) 
224.146

>  <b_lp_Chiralities_Consistent>  (49) 
1

>  <s_lp_Variant>  (49) 
14:0-1

>  <s_i_glide_gridfile>  (49) 
pfpi4k_grid

>  <i_i_glide_lignum>  (49) 
18

>  <i_i_glide_rotatable_bonds>  (49) 
1

>  <r_i_docking_score>  (49) 
-2.65437

>  <r_i_glide_ligand_efficiency>  (49) 
-0.0663593

>  <r_i_glide_ligand_efficiency_sa>  (49) 
-0.226946

>  <r_i_glide_ligand_efficiency_ln>  (49) 
-0.566099

>  <r_i_glide_gscore>  (49) 
-2.65437

>  <r_i_glide_lipo>  (49) 
-0.518072

>  <r_i_glide_hbond>  (49) 
0

>  <r_i_glide_metal>  (49) 
-0

>  <r_i_glide_rewards>  (49) 
-0.5

>  <r_i_glide_evdw>  (49) 
-25.2897

>  <r_i_glide_ecoul>  (49) 
-2.33517

>  <r_i_glide_erotb>  (49) 
0

>  <r_i_glide_esite>  (49) 
-0.0215381

>  <r_i_glide_emodel>  (49) 
-37.4902

>  <r_i_glide_energy>  (49) 
-27.6249

>  <r_i_glide_einternal>  (49) 
0.103577

>  <r_i_glide_intrahb_reward>  (49) 
-0.5

>  <i_i_glide_confnum>  (49) 
2

>  <i_i_glide_posenum>  (49) 
19

>  <r_i_glide_eff_state_penalty>  (49) 
0

>  <ligand_id>  (49) 
14

>  <original_smiles>  (49) 
CC1CC2C(C3CC(=O)C=CC3(C)C13OC14CC3(C)CCC3C1C1(C)CCCC4(C)C(O)OC1C3(C)C)C2(C)C

>  <smiles>  (49) 
[H]OC1([H])OC2([H])C(C([H])([H])[H])(C([H])([H])[H])C3([H])C([H])([H])C([H])([H])C4(C([H])([H])[H])C([H])([H])C5(OC46C([H])(C([H])([H])[H])C([H])([H])C4([H])C([H])(C7([H])C([H])([H])C(=O)C([H])=C([H])C76C([H])([H])[H])C4(C([H])([H])[H])C([H])([H])[H])C3([H])C2(C([H])([H])[H])C([H])([H])C([H])([H])C([H])([H])C15C([H])([H])[H]

$$$$
15:0:0
     RDKit          3D

 53 56  0  0  1  0  0  0  0  0999 V2000
    5.0132   -6.9760    4.6838 C   0  0  0  0  0  0  0  0  0  0  0  0
    5.6164   -5.6191    5.0451 C   0  0  0  0  0  0  0  0  0  0  0  0
    6.3527   -5.4996    6.0107 O   0  0  0  0  0  0  0  0  0  0  0  0
    5.2772   -4.5896    4.2566 O   0  0  0  0  0  0  0  0  0  0  0  0
    4.4212   -4.7061    3.1279 C   0  0  2  0  0  0  0  0  0  0  0  0
    5.2256   -5.2793    1.9043 C   0  0  0  0  0  0  0  0  0  0  0  0
    4.5561   -4.5221    0.7868 C   0  0  2  0  0  0  0  0  0  0  0  0
    3.0978   -5.1295    0.6949 C   0  0  0  0  0  0  0  0  0  0  0  0
    5.0263   -4.4180   -0.6787 C   0  0  0  0  0  0  0  0  0  0  0  0
    4.4413   -3.0582   -1.1819 C   0  0  0  0  0  0  0  0  0  0  0  0
    5.2443   -2.6009   -2.4221 C   0  0  0  0  0  0  0  0  0  0  0  0
    2.9513   -3.0313   -1.5473 C   0  0  0  0  0  0  0  0  0  0  0  0
    4.6751   -2.2502    0.1074 C   0  0  1  0  0  0  0  0  0  0  0  0
    4.6224   -0.7899    0.3895 C   0  0  0  0  0  0  0  0  0  0  0  0
    5.2952   -0.9091    1.7730 C   0  0  1  0  0  0  0  0  0  0  0  0
    4.3705   -0.3736    2.9000 C   0  0  0  0  0  0  0  0  0  0  0  0
    2.9829   -1.0290    3.1423 C   0  0  1  0  0  0  0  0  0  0  0  0
    1.8409   -0.7002    2.1659 C   0  0  0  0  0  0  0  0  0  0  0  0
    3.1101   -2.5096    3.4104 C   0  0  0  0  0  0  0  0  0  0  0  0
    2.4659   -2.9649    4.7141 C   0  0  0  0  0  0  0  0  0  0  0  0
    3.9144   -3.3140    2.6873 C   0  0  0  0  0  0  0  0  0  0  0  0
    4.6752   -3.1017    1.3841 C   0  0  1  0  0  0  0  0  0  0  0  0
    5.7425   -2.3070    1.9012 O   0  0  0  0  0  0  0  0  0  0  0  0
    5.2899   -7.2728    3.6699 H   0  0  0  0  0  0  0  0  0  0  0  0
    3.9278   -6.9591    4.7544 H   0  0  0  0  0  0  0  0  0  0  0  0
    5.3497   -7.7514    5.3838 H   0  0  0  0  0  0  0  0  0  0  0  0
    3.5222   -5.2904    3.3456 H   0  0  0  0  0  0  0  0  0  0  0  0
    6.2869   -5.0080    1.9486 H   0  0  0  0  0  0  0  0  0  0  0  0
    5.1572   -6.3656    1.7878 H   0  0  0  0  0  0  0  0  0  0  0  0
    2.8211   -5.4603   -0.3019 H   0  0  0  0  0  0  0  0  0  0  0  0
    2.3206   -4.4395    1.0276 H   0  0  0  0  0  0  0  0  0  0  0  0
    2.9811   -6.0263    1.3082 H   0  0  0  0  0  0  0  0  0  0  0  0
    6.1167   -4.4081   -0.6851 H   0  0  0  0  0  0  0  0  0  0  0  0
    4.7494   -5.2658   -1.2981 H   0  0  0  0  0  0  0  0  0  0  0  0
    5.0045   -1.5727   -2.6865 H   0  0  0  0  0  0  0  0  0  0  0  0
    5.0123   -3.2280   -3.2830 H   0  0  0  0  0  0  0  0  0  0  0  0
    6.3250   -2.6591   -2.2768 H   0  0  0  0  0  0  0  0  0  0  0  0
    2.7100   -2.1041   -2.0593 H   0  0  0  0  0  0  0  0  0  0  0  0
    2.3150   -3.0515   -0.6699 H   0  0  0  0  0  0  0  0  0  0  0  0
    2.6685   -3.8460   -2.2082 H   0  0  0  0  0  0  0  0  0  0  0  0
    5.7412   -2.2366   -0.1602 H   0  0  0  0  0  0  0  0  0  0  0  0
    5.2427   -0.2321   -0.3103 H   0  0  0  0  0  0  0  0  0  0  0  0
    3.6149   -0.3799    0.3832 H   0  0  0  0  0  0  0  0  0  0  0  0
    6.2036   -0.3072    1.7841 H   0  0  0  0  0  0  0  0  0  0  0  0
    4.9312   -0.4366    3.8354 H   0  0  0  0  0  0  0  0  0  0  0  0
    4.2082    0.6874    2.7226 H   0  0  0  0  0  0  0  0  0  0  0  0
    2.6544   -0.5769    4.0820 H   0  0  0  0  0  0  0  0  0  0  0  0
    0.8681   -0.8640    2.6324 H   0  0  0  0  0  0  0  0  0  0  0  0
    1.8696   -1.3351    1.2783 H   0  0  0  0  0  0  0  0  0  0  0  0
    1.8753    0.3431    1.8489 H   0  0  0  0  0  0  0  0  0  0  0  0
    1.3901   -2.7910    4.6737 H   0  0  0  0  0  0  0  0  0  0  0  0
    2.8686   -2.3987    5.5578 H   0  0  0  0  0  0  0  0  0  0  0  0
    2.6266   -4.0201    4.9169 H   0  0  0  0  0  0  0  0  0  0  0  0
  1  2  1  0
  1 24  1  0
  1 25  1  0
  1 26  1  0
  2  3  2  0
  2  4  1  0
  4  5  1  0
  5 21  1  0
  5  6  1  0
  5 27  1  1
  6  7  1  0
  6 28  1  0
  6 29  1  0
  7 22  1  0
  7  8  1  6
  7  9  1  0
  8 30  1  0
  8 31  1  0
  8 32  1  0
  9 10  1  0
  9 33  1  0
  9 34  1  0
 10 11  1  0
 10 12  1  0
 10 13  1  0
 11 35  1  0
 11 36  1  0
 11 37  1  0
 12 38  1  0
 12 39  1  0
 12 40  1  0
 13 22  1  0
 13 14  1  0
 13 41  1  6
 14 15  1  0
 14 42  1  0
 14 43  1  0
 15 23  1  0
 15 16  1  0
 15 44  1  6
 16 17  1  0
 16 45  1  0
 16 46  1  0
 17 18  1  0
 17 19  1  0
 17 47  1  1
 18 48  1  0
 18 49  1  0
 18 50  1  0
 19 20  1  0
 19 21  2  0
 20 51  1  0
 20 52  1  0
 20 53  1  0
 21 22  1  0
 22 23  1  1
M  END
>  <i_m_ct_stereo_status>  (50) 
1

>  <s_m_source_file>  (50) 
/var/tmp/pbs.5076255.sched01/tmp8nmo4hef/06hb_edth.sdf

>  <i_m_source_file_index>  (50) 
19

>  <i_lp_mmshare_version>  (50) 
48012

>  <i_f3d_flags>  (50) 
0

>  <s_epik_input>  (50) 
W0NIM11DKD1PKU9bQ0BIXShbQ0gyXVtDQF0xKEMyMzQpW0NIM10pQzM9QyhbQ0gzXSlbQ0BIXShbQ0gzXSlbQ0gyXVtDQEBIXShPNClbQ0gyXVtDQEBIXTJDKFtDSDJdMSkoW0NIM10pW0NIM10=

>  <s_epik_cmdline>  (50) 
J2VwaWtfcHl0aG9uJywgJy1waHQnLCAnMi4wJywgJy1waCcsICc3LjAnLCAnLXRuJywgJzgnLCAnLW1hJywgJzIwMCcsICctaW1hZScsICc8aW5maWxlLm1hZT4nLCAnLW9tYWUnLCAnPG91dGZpbGUubWFlPic=

>  <r_lp_tautomer_probability>  (50) 
1

>  <r_epik_Ionization_Penalty>  (50) 
5.63688e-12

>  <r_epik_Ionization_Penalty_Charging>  (50) 
0

>  <r_epik_Ionization_Penalty_Neutral>  (50) 
5.63688e-12

>  <r_epik_State_Penalty>  (50) 
-0

>  <r_epik_Charging_Adjusted_Penalty>  (50) 
0

>  <i_epik_Tot_Q>  (50) 
0

>  <i_epik_Tot_abs_Q>  (50) 
0

>  <s_epik_Chemistry_Notes>  (50) 
This compound has an ester and may undergo hydrolysis at high or low pH.

>  <s_lp_Force_Field>  (50) 
OPLS3e

>  <r_lp_Energy>  (50) 
109.987

>  <b_lp_Chiralities_Consistent>  (50) 
1

>  <s_lp_Variant>  (50) 
15:0-1

>  <s_i_glide_gridfile>  (50) 
pfpi4k_grid

>  <i_i_glide_lignum>  (50) 
19

>  <i_i_glide_rotatable_bonds>  (50) 
2

>  <r_i_docking_score>  (50) 
-2.91057

>  <r_i_glide_ligand_efficiency>  (50) 
-0.126547

>  <r_i_glide_ligand_efficiency_sa>  (50) 
-0.359882

>  <r_i_glide_ligand_efficiency_ln>  (50) 
-0.703803

>  <r_i_glide_gscore>  (50) 
-2.91057

>  <r_i_glide_lipo>  (50) 
-0.545407

>  <r_i_glide_hbond>  (50) 
0

>  <r_i_glide_metal>  (50) 
-0

>  <r_i_glide_rewards>  (50) 
-1.23784

>  <r_i_glide_evdw>  (50) 
-22.8949

>  <r_i_glide_ecoul>  (50) 
-1.10959

>  <r_i_glide_erotb>  (50) 
0.183857

>  <r_i_glide_esite>  (50) 
0

>  <r_i_glide_emodel>  (50) 
-25.4095

>  <r_i_glide_energy>  (50) 
-24.0045

>  <r_i_glide_einternal>  (50) 
5.26279

>  <r_i_glide_intrahb_reward>  (50) 
-0

>  <i_i_glide_confnum>  (50) 
1

>  <i_i_glide_posenum>  (50) 
19

>  <r_i_glide_eff_state_penalty>  (50) 
0

>  <ligand_id>  (50) 
15

>  <original_smiles>  (50) 
CC(=O)OC1CC2(C)CC(C)(C)C3CC4CC(C)C(C)=C1C32O4

>  <smiles>  (50) 
[H]C([H])([H])C(=O)OC1([H])C2=C(C([H])([H])[H])C([H])(C([H])([H])[H])C([H])([H])C3([H])OC24C([H])(C3([H])[H])C(C([H])([H])[H])(C([H])([H])[H])C([H])([H])C4(C([H])([H])[H])C1([H])[H]

$$$$
15:0:1
     RDKit          3D

 53 56  0  0  1  0  0  0  0  0999 V2000
    0.3283   -2.5149    5.0243 C   0  0  0  0  0  0  0  0  0  0  0  0
    1.5180   -1.8175    4.3744 C   0  0  0  0  0  0  0  0  0  0  0  0
    1.7295   -0.6165    4.5427 O   0  0  0  0  0  0  0  0  0  0  0  0
    2.2599   -2.6569    3.6370 O   0  0  0  0  0  0  0  0  0  0  0  0
    3.4175   -2.1940    2.9536 C   0  0  2  0  0  0  0  0  0  0  0  0
    2.9938   -1.4763    1.6267 C   0  0  0  0  0  0  0  0  0  0  0  0
    4.1247   -1.9273    0.7148 C   0  0  2  0  0  0  0  0  0  0  0  0
    5.4073   -1.1535    1.2222 C   0  0  0  0  0  0  0  0  0  0  0  0
    4.2008   -1.8289   -0.8306 C   0  0  0  0  0  0  0  0  0  0  0  0
    5.1528   -3.0068   -1.2602 C   0  0  0  0  0  0  0  0  0  0  0  0
    4.9194   -3.3340   -2.7566 C   0  0  0  0  0  0  0  0  0  0  0  0
    6.6623   -2.8089   -1.0567 C   0  0  0  0  0  0  0  0  0  0  0  0
    4.6375   -4.0520   -0.2588 C   0  0  1  0  0  0  0  0  0  0  0  0
    4.8533   -5.5204   -0.1510 C   0  0  0  0  0  0  0  0  0  0  0  0
    3.7450   -5.7314    0.8970 C   0  0  1  0  0  0  0  0  0  0  0  0
    4.3147   -6.3637    2.1937 C   0  0  0  0  0  0  0  0  0  0  0  0
    5.4014   -5.6009    3.0018 C   0  0  1  0  0  0  0  0  0  0  0  0
    6.8426   -5.6201    2.4672 C   0  0  0  0  0  0  0  0  0  0  0  0
    4.9327   -4.2146    3.3968 C   0  0  0  0  0  0  0  0  0  0  0  0
    5.0097   -3.9335    4.8928 C   0  0  0  0  0  0  0  0  0  0  0  0
    4.2938   -3.3909    2.5411 C   0  0  0  0  0  0  0  0  0  0  0  0
    4.0651   -3.4461    1.0421 C   0  0  1  0  0  0  0  0  0  0  0  0
    3.0412   -4.4424    1.0332 O   0  0  0  0  0  0  0  0  0  0  0  0
    0.6610   -3.3497    5.6440 H   0  0  0  0  0  0  0  0  0  0  0  0
   -0.3480   -2.8987    4.2607 H   0  0  0  0  0  0  0  0  0  0  0  0
   -0.2253   -1.8175    5.6556 H   0  0  0  0  0  0  0  0  0  0  0  0
    4.0152   -1.5294    3.5808 H   0  0  0  0  0  0  0  0  0  0  0  0
    2.0454   -1.8675    1.2521 H   0  0  0  0  0  0  0  0  0  0  0  0
    2.8984   -0.3929    1.7249 H   0  0  0  0  0  0  0  0  0  0  0  0
    5.9420   -0.6223    0.4335 H   0  0  0  0  0  0  0  0  0  0  0  0
    6.1383   -1.7970    1.7125 H   0  0  0  0  0  0  0  0  0  0  0  0
    5.1632   -0.3712    1.9434 H   0  0  0  0  0  0  0  0  0  0  0  0
    3.1963   -1.9714   -1.2364 H   0  0  0  0  0  0  0  0  0  0  0  0
    4.5395   -0.8611   -1.2046 H   0  0  0  0  0  0  0  0  0  0  0  0
    5.4136   -4.2612   -3.0477 H   0  0  0  0  0  0  0  0  0  0  0  0
    5.3188   -2.5443   -3.3926 H   0  0  0  0  0  0  0  0  0  0  0  0
    3.8624   -3.4390   -3.0067 H   0  0  0  0  0  0  0  0  0  0  0  0
    7.2276   -3.5785   -1.5764 H   0  0  0  0  0  0  0  0  0  0  0  0
    6.9577   -2.8812   -0.0150 H   0  0  0  0  0  0  0  0  0  0  0  0
    6.9932   -1.8538   -1.4534 H   0  0  0  0  0  0  0  0  0  0  0  0
    3.7370   -4.1501   -0.8838 H   0  0  0  0  0  0  0  0  0  0  0  0
    4.6267   -6.0453   -1.0802 H   0  0  0  0  0  0  0  0  0  0  0  0
    5.8614   -5.7918    0.1444 H   0  0  0  0  0  0  0  0  0  0  0  0
    3.0189   -6.4362    0.4958 H   0  0  0  0  0  0  0  0  0  0  0  0
    3.4730   -6.5461    2.8619 H   0  0  0  0  0  0  0  0  0  0  0  0
    4.7050   -7.3535    1.9553 H   0  0  0  0  0  0  0  0  0  0  0  0
    5.4645   -6.1690    3.9295 H   0  0  0  0  0  0  0  0  0  0  0  0
    7.5579   -5.4547    3.2747 H   0  0  0  0  0  0  0  0  0  0  0  0
    7.0159   -4.8457    1.7214 H   0  0  0  0  0  0  0  0  0  0  0  0
    7.0916   -6.5902    2.0297 H   0  0  0  0  0  0  0  0  0  0  0  0
    6.0459   -3.9597    5.2295 H   0  0  0  0  0  0  0  0  0  0  0  0
    4.4514   -4.6843    5.4537 H   0  0  0  0  0  0  0  0  0  0  0  0
    4.6037   -2.9585    5.1554 H   0  0  0  0  0  0  0  0  0  0  0  0
  1  2  1  0
  1 24  1  0
  1 25  1  0
  1 26  1  0
  2  3  2  0
  2  4  1  0
  4  5  1  0
  5 21  1  0
  5  6  1  0
  5 27  1  1
  6  7  1  0
  6 28  1  0
  6 29  1  0
  7 22  1  0
  7  8  1  1
  7  9  1  0
  8 30  1  0
  8 31  1  0
  8 32  1  0
  9 10  1  0
  9 33  1  0
  9 34  1  0
 10 11  1  0
 10 12  1  0
 10 13  1  0
 11 35  1  0
 11 36  1  0
 11 37  1  0
 12 38  1  0
 12 39  1  0
 12 40  1  0
 13 22  1  0
 13 14  1  0
 13 41  1  6
 14 15  1  0
 14 42  1  0
 14 43  1  0
 15 23  1  0
 15 16  1  0
 15 44  1  6
 16 17  1  0
 16 45  1  0
 16 46  1  0
 17 18  1  0
 17 19  1  0
 17 47  1  1
 18 48  1  0
 18 49  1  0
 18 50  1  0
 19 20  1  0
 19 21  2  0
 20 51  1  0
 20 52  1  0
 20 53  1  0
 21 22  1  0
 22 23  1  1
M  END
>  <i_m_ct_stereo_status>  (51) 
1

>  <s_m_source_file>  (51) 
/var/tmp/pbs.5076255.sched01/tmp8nmo4hef/06hb_edth.sdf

>  <i_m_source_file_index>  (51) 
19

>  <i_lp_mmshare_version>  (51) 
48012

>  <i_f3d_flags>  (51) 
0

>  <s_epik_input>  (51) 
W0NIM11DKD1PKU9bQ0BIXShbQ0gyXVtDQF0xKEMyMzQpW0NIM10pQzM9QyhbQ0gzXSlbQ0BIXShbQ0gzXSlbQ0gyXVtDQEBIXShPNClbQ0gyXVtDQEBIXTJDKFtDSDJdMSkoW0NIM10pW0NIM10=

>  <s_epik_cmdline>  (51) 
J2VwaWtfcHl0aG9uJywgJy1waHQnLCAnMi4wJywgJy1waCcsICc3LjAnLCAnLXRuJywgJzgnLCAnLW1hJywgJzIwMCcsICctaW1hZScsICc8aW5maWxlLm1hZT4nLCAnLW9tYWUnLCAnPG91dGZpbGUubWFlPic=

>  <r_lp_tautomer_probability>  (51) 
1

>  <r_epik_Ionization_Penalty>  (51) 
5.63688e-12

>  <r_epik_Ionization_Penalty_Charging>  (51) 
0

>  <r_epik_Ionization_Penalty_Neutral>  (51) 
5.63688e-12

>  <r_epik_State_Penalty>  (51) 
-0

>  <r_epik_Charging_Adjusted_Penalty>  (51) 
0

>  <i_epik_Tot_Q>  (51) 
0

>  <i_epik_Tot_abs_Q>  (51) 
0

>  <s_epik_Chemistry_Notes>  (51) 
This compound has an ester and may undergo hydrolysis at high or low pH.

>  <s_lp_Force_Field>  (51) 
OPLS3e

>  <r_lp_Energy>  (51) 
109.987

>  <b_lp_Chiralities_Consistent>  (51) 
1

>  <s_lp_Variant>  (51) 
15:0-1

>  <s_i_glide_gridfile>  (51) 
pfpi4k_grid

>  <i_i_glide_lignum>  (51) 
19

>  <i_i_glide_rotatable_bonds>  (51) 
2

>  <r_i_docking_score>  (51) 
-2.75057

>  <r_i_glide_ligand_efficiency>  (51) 
-0.11959

>  <r_i_glide_ligand_efficiency_sa>  (51) 
-0.340099

>  <r_i_glide_ligand_efficiency_ln>  (51) 
-0.665114

>  <r_i_glide_gscore>  (51) 
-2.75057

>  <r_i_glide_lipo>  (51) 
-0.460154

>  <r_i_glide_hbond>  (51) 
0

>  <r_i_glide_metal>  (51) 
-0

>  <r_i_glide_rewards>  (51) 
-1.23792

>  <r_i_glide_evdw>  (51) 
-24.3532

>  <r_i_glide_ecoul>  (51) 
-0.124643

>  <r_i_glide_erotb>  (51) 
0.183857

>  <r_i_glide_esite>  (51) 
0

>  <r_i_glide_emodel>  (51) 
-28.3841

>  <r_i_glide_energy>  (51) 
-24.4779

>  <r_i_glide_einternal>  (51) 
0.0293334

>  <r_i_glide_intrahb_reward>  (51) 
-0

>  <i_i_glide_confnum>  (51) 
2

>  <i_i_glide_posenum>  (51) 
5

>  <r_i_glide_eff_state_penalty>  (51) 
0

>  <ligand_id>  (51) 
15

>  <original_smiles>  (51) 
CC(=O)OC1CC2(C)CC(C)(C)C3CC4CC(C)C(C)=C1C32O4

>  <smiles>  (51) 
[H]C([H])([H])C(=O)OC1([H])C2=C(C([H])([H])[H])C([H])(C([H])([H])[H])C([H])([H])C3([H])OC24C([H])(C3([H])[H])C(C([H])([H])[H])(C([H])([H])[H])C([H])([H])C4(C([H])([H])[H])C1([H])[H]

$$$$
16:0:0
     RDKit          3D

 34 37  0  0  1  0  0  0  0  0999 V2000
    7.9448   -6.0461    1.3305 C   0  0  0  0  0  0  0  0  0  0  0  0
    7.1547   -5.2222    0.4827 O   0  0  0  0  0  0  0  0  0  0  0  0
    6.6379   -4.0952    1.1223 C   0  0  2  0  0  0  0  0  0  0  0  0
    5.6127   -4.3838    2.0852 O   0  0  0  0  0  0  0  0  0  0  0  0
    4.3142   -3.9423    1.5530 C   0  0  2  0  0  0  0  0  0  0  0  0
    3.1396   -4.7058    2.1746 C   0  0  0  0  0  0  0  0  0  0  0  0
    4.5988   -4.2628    0.1392 C   0  0  0  0  0  0  0  0  0  0  0  0
    5.7928   -3.2866    0.1576 C   0  0  1  0  0  0  0  0  0  0  0  0
    5.4917   -2.0546    1.0062 C   0  0  0  0  0  0  0  0  0  0  0  0
    5.1337   -0.8277    0.6211 C   0  0  0  0  0  0  0  0  0  0  0  0
    3.7553   -1.3930    0.3696 C   0  0  1  0  0  0  0  0  0  0  0  0
    3.6913   -1.6876   -1.1732 C   0  0  0  0  0  0  0  0  0  0  0  0
    5.0416   -2.0419   -1.9406 C   0  0  0  0  0  0  0  0  0  0  0  0
    6.1676   -2.9342   -1.2829 C   0  0  1  0  0  0  0  0  0  0  0  0
    7.4150   -2.2672   -1.3587 O   0  0  0  0  0  0  0  0  0  0  0  0
    4.1692   -2.3839    1.5561 C   0  0  1  0  0  0  0  0  0  0  0  0
    8.3463   -6.8854    0.7596 H   0  0  0  0  0  0  0  0  0  0  0  0
    7.3543   -6.4543    2.1521 H   0  0  0  0  0  0  0  0  0  0  0  0
    8.7903   -5.4977    1.7490 H   0  0  0  0  0  0  0  0  0  0  0  0
    7.4415   -3.5173    1.5856 H   0  0  0  0  0  0  0  0  0  0  0  0
    2.1910   -4.4018    1.7317 H   0  0  0  0  0  0  0  0  0  0  0  0
    3.0801   -4.5209    3.2470 H   0  0  0  0  0  0  0  0  0  0  0  0
    3.2513   -5.7804    2.0268 H   0  0  0  0  0  0  0  0  0  0  0  0
    4.8500   -5.3089   -0.0368 H   0  0  0  0  0  0  0  0  0  0  0  0
    3.7618   -4.0614   -0.5129 H   0  0  0  0  0  0  0  0  0  0  0  0
    5.6442   -0.0667    0.0366 H   0  0  0  0  0  0  0  0  0  0  0  0
    2.9334   -0.7576    0.7023 H   0  0  0  0  0  0  0  0  0  0  0  0
    2.9154   -2.4226   -1.3863 H   0  0  0  0  0  0  0  0  0  0  0  0
    3.2864   -0.8052   -1.6738 H   0  0  0  0  0  0  0  0  0  0  0  0
    4.7620   -2.5024   -2.8900 H   0  0  0  0  0  0  0  0  0  0  0  0
    5.4847   -1.0871   -2.2323 H   0  0  0  0  0  0  0  0  0  0  0  0
    6.2572   -3.8532   -1.8595 H   0  0  0  0  0  0  0  0  0  0  0  0
    8.1006   -2.9119   -1.2723 H   0  0  0  0  0  0  0  0  0  0  0  0
    3.9255   -1.9503    2.5264 H   0  0  0  0  0  0  0  0  0  0  0  0
  1  2  1  0
  1 17  1  0
  1 18  1  0
  1 19  1  0
  2  3  1  0
  3  8  1  0
  3  4  1  0
  3 20  1  1
  4  5  1  0
  5 16  1  0
  5  6  1  1
  5  7  1  0
  6 21  1  0
  6 22  1  0
  6 23  1  0
  8  7  1  6
  7 24  1  0
  7 25  1  0
  8 14  1  0
  8  9  1  0
  9 16  1  0
  9 10  2  0
 10 11  1  0
 10 26  1  0
 11 12  1  0
 11 16  1  0
 11 27  1  1
 12 13  1  0
 12 28  1  0
 12 29  1  0
 13 14  1  0
 13 30  1  0
 13 31  1  0
 14 15  1  0
 14 32  1  6
 15 33  1  0
 16 34  1  1
M  END
>  <i_m_ct_stereo_status>  (52) 
1

>  <s_m_source_file>  (52) 
/var/tmp/pbs.5076255.sched01/tmp8nmo4hef/06hb_edth.sdf

>  <i_m_source_file_index>  (52) 
20

>  <i_lp_mmshare_version>  (52) 
48012

>  <i_f3d_flags>  (52) 
1

>  <s_epik_input>  (52) 
W0NIM11PW0NAQEhdMU9bQ0BdKFtDSDNdKShbQ0gyXTIpW0NAQEhdKEM9M1tDQEBdMTI0KVtDQEBIXShbQ0hdMylbQ0gyXVtDSDJdW0NASF00W09IXQ==

>  <s_epik_cmdline>  (52) 
J2VwaWtfcHl0aG9uJywgJy1waHQnLCAnMi4wJywgJy1waCcsICc3LjAnLCAnLXRuJywgJzgnLCAnLW1hJywgJzIwMCcsICctaW1hZScsICc8aW5maWxlLm1hZT4nLCAnLW9tYWUnLCAnPG91dGZpbGUubWFlPic=

>  <r_lp_tautomer_probability>  (52) 
1

>  <r_epik_Ionization_Penalty>  (52) 
7.475e-08

>  <r_epik_Ionization_Penalty_Charging>  (52) 
0

>  <r_epik_Ionization_Penalty_Neutral>  (52) 
7.475e-08

>  <r_epik_State_Penalty>  (52) 
-0

>  <r_epik_Charging_Adjusted_Penalty>  (52) 
0

>  <i_epik_Tot_Q>  (52) 
0

>  <i_epik_Tot_abs_Q>  (52) 
0

>  <s_epik_Chemistry_Notes>  (52) 
This compound contains an acetal/aminal-like group ( X-CH(R)-Y where X, Y are N, S, or O) that may be acid/base labile, releasing an aldehyde.

>  <s_lp_Force_Field>  (52) 
OPLS3e

>  <r_lp_Energy>  (52) 
106.069

>  <b_lp_Chiralities_Consistent>  (52) 
1

>  <s_lp_Variant>  (52) 
16:0-1

>  <s_i_glide_gridfile>  (52) 
pfpi4k_grid

>  <i_i_glide_lignum>  (52) 
20

>  <i_i_glide_rotatable_bonds>  (52) 
2

>  <r_i_docking_score>  (52) 
-3.84903

>  <r_i_glide_ligand_efficiency>  (52) 
-0.240565

>  <r_i_glide_ligand_efficiency_sa>  (52) 
-0.606185

>  <r_i_glide_ligand_efficiency_ln>  (52) 
-1.02026

>  <r_i_glide_gscore>  (52) 
-3.84903

>  <r_i_glide_lipo>  (52) 
-0.341904

>  <r_i_glide_hbond>  (52) 
0

>  <r_i_glide_metal>  (52) 
-0

>  <r_i_glide_rewards>  (52) 
-2.02555

>  <r_i_glide_evdw>  (52) 
-14.3829

>  <r_i_glide_ecoul>  (52) 
-5.08291

>  <r_i_glide_erotb>  (52) 
0

>  <r_i_glide_esite>  (52) 
0

>  <r_i_glide_emodel>  (52) 
-24.1707

>  <r_i_glide_energy>  (52) 
-19.4658

>  <r_i_glide_einternal>  (52) 
0.589739

>  <r_i_glide_intrahb_reward>  (52) 
-0

>  <i_i_glide_confnum>  (52) 
2

>  <i_i_glide_posenum>  (52) 
36

>  <r_i_glide_eff_state_penalty>  (52) 
0

>  <ligand_id>  (52) 
16

>  <original_smiles>  (52) 
COC1OC2(C)CC13C1=CC(CCC3O)C12

>  <smiles>  (52) 
[H]OC1([H])C([H])([H])C([H])([H])C2([H])C([H])=C3C2([H])C2(C([H])([H])[H])OC([H])(OC([H])([H])[H])C31C2([H])[H]

$$$$
16:0:1
     RDKit          3D

 34 37  0  0  1  0  0  0  0  0999 V2000
    8.7744   -2.5366   -0.3710 C   0  0  0  0  0  0  0  0  0  0  0  0
    7.4878   -2.0115   -0.0971 O   0  0  0  0  0  0  0  0  0  0  0  0
    6.4518   -2.7860   -0.6118 C   0  0  2  0  0  0  0  0  0  0  0  0
    5.9229   -2.2811   -1.8452 O   0  0  0  0  0  0  0  0  0  0  0  0
    4.5727   -1.7409   -1.6026 C   0  0  2  0  0  0  0  0  0  0  0  0
    4.1667   -0.7018   -2.6543 C   0  0  0  0  0  0  0  0  0  0  0  0
    4.8647   -1.2017   -0.2583 C   0  0  0  0  0  0  0  0  0  0  0  0
    5.2098   -2.6214    0.2390 C   0  0  1  0  0  0  0  0  0  0  0  0
    4.3079   -3.6779   -0.3956 C   0  0  0  0  0  0  0  0  0  0  0  0
    3.2449   -4.3047    0.1216 C   0  0  0  0  0  0  0  0  0  0  0  0
    2.4846   -3.0179   -0.1179 C   0  0  1  0  0  0  0  0  0  0  0  0
    2.4718   -2.2595    1.2658 C   0  0  0  0  0  0  0  0  0  0  0  0
    3.6808   -2.4912    2.2754 C   0  0  0  0  0  0  0  0  0  0  0  0
    5.1697   -2.6494    1.7655 C   0  0  1  0  0  0  0  0  0  0  0  0
    5.7294   -3.8438    2.2695 O   0  0  0  0  0  0  0  0  0  0  0  0
    3.5160   -2.8615   -1.3277 C   0  0  1  0  0  0  0  0  0  0  0  0
    9.5313   -1.8982    0.0846 H   0  0  0  0  0  0  0  0  0  0  0  0
    8.9632   -2.5867   -1.4445 H   0  0  0  0  0  0  0  0  0  0  0  0
    8.8938   -3.5355    0.0550 H   0  0  0  0  0  0  0  0  0  0  0  0
    6.7403   -3.8356   -0.7195 H   0  0  0  0  0  0  0  0  0  0  0  0
    3.1917   -0.2762   -2.4256 H   0  0  0  0  0  0  0  0  0  0  0  0
    4.1042   -1.1484   -3.6452 H   0  0  0  0  0  0  0  0  0  0  0  0
    4.8830    0.1190   -2.6963 H   0  0  0  0  0  0  0  0  0  0  0  0
    5.6828   -0.4796   -0.2352 H   0  0  0  0  0  0  0  0  0  0  0  0
    4.0241   -0.6803    0.1689 H   0  0  0  0  0  0  0  0  0  0  0  0
    3.1249   -4.9650    0.9760 H   0  0  0  0  0  0  0  0  0  0  0  0
    1.4930   -3.1329   -0.5500 H   0  0  0  0  0  0  0  0  0  0  0  0
    2.2870   -1.1929    1.1154 H   0  0  0  0  0  0  0  0  0  0  0  0
    1.5725   -2.5546    1.8125 H   0  0  0  0  0  0  0  0  0  0  0  0
    3.6605   -1.6765    3.0025 H   0  0  0  0  0  0  0  0  0  0  0  0
    3.4287   -3.3758    2.8637 H   0  0  0  0  0  0  0  0  0  0  0  0
    5.7678   -1.8218    2.1480 H   0  0  0  0  0  0  0  0  0  0  0  0
    5.2348   -4.5803    1.9381 H   0  0  0  0  0  0  0  0  0  0  0  0
    3.1463   -3.3675   -2.2213 H   0  0  0  0  0  0  0  0  0  0  0  0
  1  2  1  0
  1 17  1  0
  1 18  1  0
  1 19  1  0
  2  3  1  0
  3  8  1  0
  3  4  1  0
  3 20  1  6
  4  5  1  0
  5 16  1  0
  5  6  1  6
  5  7  1  0
  6 21  1  0
  6 22  1  0
  6 23  1  0
  8  7  1  6
  7 24  1  0
  7 25  1  0
  8 14  1  0
  8  9  1  0
  9 16  1  0
  9 10  2  0
 10 11  1  0
 10 26  1  0
 11 12  1  0
 11 16  1  0
 11 27  1  6
 12 13  1  0
 12 28  1  0
 12 29  1  0
 13 14  1  0
 13 30  1  0
 13 31  1  0
 14 15  1  0
 14 32  1  1
 15 33  1  0
 16 34  1  6
M  END
>  <i_m_ct_stereo_status>  (53) 
1

>  <s_m_source_file>  (53) 
/var/tmp/pbs.5076255.sched01/tmp8nmo4hef/06hb_edth.sdf

>  <i_m_source_file_index>  (53) 
20

>  <i_lp_mmshare_version>  (53) 
48012

>  <i_f3d_flags>  (53) 
1

>  <s_epik_input>  (53) 
W0NIM11PW0NAQEhdMU9bQ0BdKFtDSDNdKShbQ0gyXTIpW0NAQEhdKEM9M1tDQEBdMTI0KVtDQEBIXShbQ0hdMylbQ0gyXVtDSDJdW0NASF00W09IXQ==

>  <s_epik_cmdline>  (53) 
J2VwaWtfcHl0aG9uJywgJy1waHQnLCAnMi4wJywgJy1waCcsICc3LjAnLCAnLXRuJywgJzgnLCAnLW1hJywgJzIwMCcsICctaW1hZScsICc8aW5maWxlLm1hZT4nLCAnLW9tYWUnLCAnPG91dGZpbGUubWFlPic=

>  <r_lp_tautomer_probability>  (53) 
1

>  <r_epik_Ionization_Penalty>  (53) 
7.475e-08

>  <r_epik_Ionization_Penalty_Charging>  (53) 
0

>  <r_epik_Ionization_Penalty_Neutral>  (53) 
7.475e-08

>  <r_epik_State_Penalty>  (53) 
-0

>  <r_epik_Charging_Adjusted_Penalty>  (53) 
0

>  <i_epik_Tot_Q>  (53) 
0

>  <i_epik_Tot_abs_Q>  (53) 
0

>  <s_epik_Chemistry_Notes>  (53) 
This compound contains an acetal/aminal-like group ( X-CH(R)-Y where X, Y are N, S, or O) that may be acid/base labile, releasing an aldehyde.

>  <s_lp_Force_Field>  (53) 
OPLS3e

>  <r_lp_Energy>  (53) 
106.069

>  <b_lp_Chiralities_Consistent>  (53) 
1

>  <s_lp_Variant>  (53) 
16:0-1

>  <s_i_glide_gridfile>  (53) 
pfpi4k_grid

>  <i_i_glide_lignum>  (53) 
20

>  <i_i_glide_rotatable_bonds>  (53) 
2

>  <r_i_docking_score>  (53) 
-3.35156

>  <r_i_glide_ligand_efficiency>  (53) 
-0.209472

>  <r_i_glide_ligand_efficiency_sa>  (53) 
-0.527837

>  <r_i_glide_ligand_efficiency_ln>  (53) 
-0.888397

>  <r_i_glide_gscore>  (53) 
-3.35156

>  <r_i_glide_lipo>  (53) 
-0.178289

>  <r_i_glide_hbond>  (53) 
-0.110527

>  <r_i_glide_metal>  (53) 
-0

>  <r_i_glide_rewards>  (53) 
-1.89354

>  <r_i_glide_evdw>  (53) 
-16.1023

>  <r_i_glide_ecoul>  (53) 
-2.40563

>  <r_i_glide_erotb>  (53) 
0

>  <r_i_glide_esite>  (53) 
-0.00323909

>  <r_i_glide_emodel>  (53) 
-21.7533

>  <r_i_glide_energy>  (53) 
-18.5079

>  <r_i_glide_einternal>  (53) 
1.88633

>  <r_i_glide_intrahb_reward>  (53) 
-0

>  <i_i_glide_confnum>  (53) 
1

>  <i_i_glide_posenum>  (53) 
28

>  <r_i_glide_eff_state_penalty>  (53) 
0

>  <ligand_id>  (53) 
16

>  <original_smiles>  (53) 
COC1OC2(C)CC13C1=CC(CCC3O)C12

>  <smiles>  (53) 
[H]OC1([H])C([H])([H])C([H])([H])C2([H])C([H])=C3C2([H])C2(C([H])([H])[H])OC([H])(OC([H])([H])[H])C31C2([H])[H]

$$$$
16:0:2
     RDKit          3D

 34 37  0  0  1  0  0  0  0  0999 V2000
    6.3512   -5.5325    3.2334 C   0  0  0  0  0  0  0  0  0  0  0  0
    6.4473   -4.8793    1.9778 O   0  0  0  0  0  0  0  0  0  0  0  0
    5.4539   -3.9237    1.7649 C   0  0  2  0  0  0  0  0  0  0  0  0
    4.1195   -4.4338    1.8739 O   0  0  0  0  0  0  0  0  0  0  0  0
    3.5182   -4.5154    0.5342 C   0  0  2  0  0  0  0  0  0  0  0  0
    2.4051   -5.5671    0.4800 C   0  0  0  0  0  0  0  0  0  0  0  0
    4.7658   -4.8627   -0.1775 C   0  0  0  0  0  0  0  0  0  0  0  0
    5.4092   -3.5385    0.2939 C   0  0  1  0  0  0  0  0  0  0  0  0
    4.3878   -2.4042    0.3221 C   0  0  0  0  0  0  0  0  0  0  0  0
    4.2012   -1.4168   -0.5595 C   0  0  0  0  0  0  0  0  0  0  0  0
    3.5173   -2.4450   -1.4406 C   0  0  1  0  0  0  0  0  0  0  0  0
    4.6022   -2.9082   -2.4800 C   0  0  0  0  0  0  0  0  0  0  0  0
    6.1351   -2.8626   -2.0570 C   0  0  0  0  0  0  0  0  0  0  0  0
    6.6136   -3.2295   -0.5953 C   0  0  1  0  0  0  0  0  0  0  0  0
    7.3860   -2.1647   -0.0761 O   0  0  0  0  0  0  0  0  0  0  0  0
    3.1447   -3.1074   -0.0348 C   0  0  1  0  0  0  0  0  0  0  0  0
    7.1970   -6.2108    3.3579 H   0  0  0  0  0  0  0  0  0  0  0  0
    5.4388   -6.1281    3.2938 H   0  0  0  0  0  0  0  0  0  0  0  0
    6.3557   -4.8273    4.0665 H   0  0  0  0  0  0  0  0  0  0  0  0
    5.6013   -3.0748    2.4378 H   0  0  0  0  0  0  0  0  0  0  0  0
    1.9916   -5.6492   -0.5230 H   0  0  0  0  0  0  0  0  0  0  0  0
    1.5941   -5.3105    1.1575 H   0  0  0  0  0  0  0  0  0  0  0  0
    2.7809   -6.5484    0.7716 H   0  0  0  0  0  0  0  0  0  0  0  0
    5.2400   -5.7792    0.1810 H   0  0  0  0  0  0  0  0  0  0  0  0
    4.6160   -5.0313   -1.2307 H   0  0  0  0  0  0  0  0  0  0  0  0
    4.8363   -0.6016   -0.8937 H   0  0  0  0  0  0  0  0  0  0  0  0
    2.6042   -2.1010   -1.9239 H   0  0  0  0  0  0  0  0  0  0  0  0
    4.3399   -3.8832   -2.8957 H   0  0  0  0  0  0  0  0  0  0  0  0
    4.5155   -2.2651   -3.3601 H   0  0  0  0  0  0  0  0  0  0  0  0
    6.6944   -3.4773   -2.7616 H   0  0  0  0  0  0  0  0  0  0  0  0
    6.4768   -1.8518   -2.2698 H   0  0  0  0  0  0  0  0  0  0  0  0
    7.2550   -4.1096   -0.6360 H   0  0  0  0  0  0  0  0  0  0  0  0
    7.6922   -2.4179    0.7829 H   0  0  0  0  0  0  0  0  0  0  0  0
    2.2251   -2.6845    0.3746 H   0  0  0  0  0  0  0  0  0  0  0  0
  1  2  1  0
  1 17  1  0
  1 18  1  0
  1 19  1  0
  2  3  1  0
  3  8  1  0
  3  4  1  0
  3 20  1  1
  4  5  1  0
  5 16  1  0
  5  6  1  1
  5  7  1  0
  6 21  1  0
  6 22  1  0
  6 23  1  0
  8  7  1  6
  7 24  1  0
  7 25  1  0
  8 14  1  0
  8  9  1  0
  9 16  1  0
  9 10  2  0
 10 11  1  0
 10 26  1  0
 11 12  1  0
 11 16  1  0
 11 27  1  6
 12 13  1  0
 12 28  1  0
 12 29  1  0
 13 14  1  0
 13 30  1  0
 13 31  1  0
 14 15  1  0
 14 32  1  6
 15 33  1  0
 16 34  1  1
M  END
>  <i_m_ct_stereo_status>  (54) 
1

>  <s_m_source_file>  (54) 
/var/tmp/pbs.5076255.sched01/tmp8nmo4hef/06hb_edth.sdf

>  <i_m_source_file_index>  (54) 
20

>  <i_lp_mmshare_version>  (54) 
48012

>  <i_f3d_flags>  (54) 
1

>  <s_epik_input>  (54) 
W0NIM11PW0NAQEhdMU9bQ0BdKFtDSDNdKShbQ0gyXTIpW0NAQEhdKEM9M1tDQEBdMTI0KVtDQEBIXShbQ0hdMylbQ0gyXVtDSDJdW0NASF00W09IXQ==

>  <s_epik_cmdline>  (54) 
J2VwaWtfcHl0aG9uJywgJy1waHQnLCAnMi4wJywgJy1waCcsICc3LjAnLCAnLXRuJywgJzgnLCAnLW1hJywgJzIwMCcsICctaW1hZScsICc8aW5maWxlLm1hZT4nLCAnLW9tYWUnLCAnPG91dGZpbGUubWFlPic=

>  <r_lp_tautomer_probability>  (54) 
1

>  <r_epik_Ionization_Penalty>  (54) 
7.475e-08

>  <r_epik_Ionization_Penalty_Charging>  (54) 
0

>  <r_epik_Ionization_Penalty_Neutral>  (54) 
7.475e-08

>  <r_epik_State_Penalty>  (54) 
-0

>  <r_epik_Charging_Adjusted_Penalty>  (54) 
0

>  <i_epik_Tot_Q>  (54) 
0

>  <i_epik_Tot_abs_Q>  (54) 
0

>  <s_epik_Chemistry_Notes>  (54) 
This compound contains an acetal/aminal-like group ( X-CH(R)-Y where X, Y are N, S, or O) that may be acid/base labile, releasing an aldehyde.

>  <s_lp_Force_Field>  (54) 
OPLS3e

>  <r_lp_Energy>  (54) 
106.069

>  <b_lp_Chiralities_Consistent>  (54) 
1

>  <s_lp_Variant>  (54) 
16:0-1

>  <s_i_glide_gridfile>  (54) 
pfpi4k_grid

>  <i_i_glide_lignum>  (54) 
20

>  <i_i_glide_rotatable_bonds>  (54) 
2

>  <r_i_docking_score>  (54) 
-3.3057

>  <r_i_glide_ligand_efficiency>  (54) 
-0.206606

>  <r_i_glide_ligand_efficiency_sa>  (54) 
-0.520616

>  <r_i_glide_ligand_efficiency_ln>  (54) 
-0.876243

>  <r_i_glide_gscore>  (54) 
-3.3057

>  <r_i_glide_lipo>  (54) 
-0.290591

>  <r_i_glide_hbond>  (54) 
-0.0661415

>  <r_i_glide_metal>  (54) 
-0

>  <r_i_glide_rewards>  (54) 
-1.95212

>  <r_i_glide_evdw>  (54) 
-15.6288

>  <r_i_glide_ecoul>  (54) 
-1.43605

>  <r_i_glide_erotb>  (54) 
0

>  <r_i_glide_esite>  (54) 
0

>  <r_i_glide_emodel>  (54) 
-20.9859

>  <r_i_glide_energy>  (54) 
-17.0649

>  <r_i_glide_einternal>  (54) 
0.772766

>  <r_i_glide_intrahb_reward>  (54) 
-0

>  <i_i_glide_confnum>  (54) 
2

>  <i_i_glide_posenum>  (54) 
7

>  <r_i_glide_eff_state_penalty>  (54) 
0

>  <ligand_id>  (54) 
16

>  <original_smiles>  (54) 
COC1OC2(C)CC13C1=CC(CCC3O)C12

>  <smiles>  (54) 
[H]OC1([H])C([H])([H])C([H])([H])C2([H])C([H])=C3C2([H])C2(C([H])([H])[H])OC([H])(OC([H])([H])[H])C31C2([H])[H]

$$$$
17:0:0
     RDKit          3D

 47 50  0  0  1  0  0  0  0  0999 V2000
    2.5106   -2.7823   -3.4411 C   0  0  0  0  0  0  0  0  0  0  0  0
    3.2851   -2.9407   -2.3593 C   0  0  0  0  0  0  0  0  0  0  0  0
    2.8444   -3.4518   -1.0031 C   0  0  0  0  0  0  0  0  0  0  0  0
    4.1591   -3.5579   -0.1910 C   0  0  2  0  0  0  0  0  0  0  0  0
    4.0563   -4.4830    0.9906 C   0  0  0  0  0  0  0  0  0  0  0  0
    3.9263   -3.8144    2.1529 C   0  0  0  0  0  0  0  0  0  0  0  0
    3.8353   -4.4093    3.5661 C   0  0  0  0  0  0  0  0  0  0  0  0
    2.3748   -4.3576    4.0608 C   0  0  0  0  0  0  0  0  0  0  0  0
    4.2925   -5.8845    3.5807 C   0  0  0  0  0  0  0  0  0  0  0  0
    4.7571   -3.6219    4.5310 C   0  0  0  0  0  0  0  0  0  0  0  0
    4.6216   -2.0945    4.4264 C   0  0  0  0  0  0  0  0  0  0  0  0
    4.8881   -1.6155    2.9917 C   0  0  0  0  0  0  0  0  0  0  0  0
    3.9679   -2.2988    1.9480 C   0  0  2  0  0  0  0  0  0  0  0  0
    2.5458   -1.6932    2.0066 C   0  0  0  0  0  0  0  0  0  0  0  0
    4.5784   -2.2541    0.5165 C   0  0  2  0  0  0  0  0  0  0  0  0
    4.4542   -1.0258   -0.3959 C   0  0  0  0  0  0  0  0  0  0  0  0
    5.1124   -1.3289   -1.7685 C   0  0  0  0  0  0  0  0  0  0  0  0
    4.7783   -2.7448   -2.3113 C   0  0  1  0  0  0  0  0  0  0  0  0
    5.1914   -3.8308   -1.2961 C   0  0  0  0  0  0  0  0  0  0  0  0
    2.9235   -2.4386   -4.3798 H   0  0  0  0  0  0  0  0  0  0  0  0
    1.4505   -2.9881   -3.3950 H   0  0  0  0  0  0  0  0  0  0  0  0
    2.1129   -2.7807   -0.5673 H   0  0  0  0  0  0  0  0  0  0  0  0
    2.3736   -4.4277   -1.1197 H   0  0  0  0  0  0  0  0  0  0  0  0
    4.0875   -5.5561    0.8762 H   0  0  0  0  0  0  0  0  0  0  0  0
    2.2531   -4.8971    5.0001 H   0  0  0  0  0  0  0  0  0  0  0  0
    1.7010   -4.8020    3.3276 H   0  0  0  0  0  0  0  0  0  0  0  0
    2.0379   -3.3392    4.2386 H   0  0  0  0  0  0  0  0  0  0  0  0
    4.2809   -6.2818    4.5965 H   0  0  0  0  0  0  0  0  0  0  0  0
    5.3128   -5.9870    3.2052 H   0  0  0  0  0  0  0  0  0  0  0  0
    3.6450   -6.5198    2.9757 H   0  0  0  0  0  0  0  0  0  0  0  0
    4.5660   -3.9317    5.5577 H   0  0  0  0  0  0  0  0  0  0  0  0
    5.7980   -3.8797    4.3363 H   0  0  0  0  0  0  0  0  0  0  0  0
    3.6398   -1.7711    4.7686 H   0  0  0  0  0  0  0  0  0  0  0  0
    5.3369   -1.6231    5.0989 H   0  0  0  0  0  0  0  0  0  0  0  0
    4.7785   -0.5328    2.9304 H   0  0  0  0  0  0  0  0  0  0  0  0
    5.9353   -1.8195    2.7669 H   0  0  0  0  0  0  0  0  0  0  0  0
    2.4960   -0.7194    1.5161 H   0  0  0  0  0  0  0  0  0  0  0  0
    2.2061   -1.5340    3.0259 H   0  0  0  0  0  0  0  0  0  0  0  0
    1.8154   -2.3433    1.5312 H   0  0  0  0  0  0  0  0  0  0  0  0
    5.6527   -2.3525    0.6726 H   0  0  0  0  0  0  0  0  0  0  0  0
    3.4077   -0.7543   -0.5418 H   0  0  0  0  0  0  0  0  0  0  0  0
    4.9381   -0.1670    0.0696 H   0  0  0  0  0  0  0  0  0  0  0  0
    4.8111   -0.5623   -2.4837 H   0  0  0  0  0  0  0  0  0  0  0  0
    6.1939   -1.2551   -1.6672 H   0  0  0  0  0  0  0  0  0  0  0  0
    5.2240   -2.9041   -3.2946 H   0  0  0  0  0  0  0  0  0  0  0  0
    6.2322   -3.7579   -0.9793 H   0  0  0  0  0  0  0  0  0  0  0  0
    5.0421   -4.8219   -1.7270 H   0  0  0  0  0  0  0  0  0  0  0  0
  1  2  2  0
  1 20  1  0
  1 21  1  0
  2 18  1  0
  2  3  1  0
  4  3  1  6
  3 22  1  0
  3 23  1  0
  4 15  1  0
  4 19  1  0
  4  5  1  0
  5  6  2  0
  5 24  1  0
  6 13  1  0
  6  7  1  0
  7  8  1  0
  7  9  1  0
  7 10  1  0
  8 25  1  0
  8 26  1  0
  8 27  1  0
  9 28  1  0
  9 29  1  0
  9 30  1  0
 10 11  1  0
 10 31  1  0
 10 32  1  0
 11 12  1  0
 11 33  1  0
 11 34  1  0
 12 13  1  0
 12 35  1  0
 12 36  1  0
 13 14  1  6
 13 15  1  0
 14 37  1  0
 14 38  1  0
 14 39  1  0
 15 16  1  0
 15 40  1  1
 16 17  1  0
 16 41  1  0
 16 42  1  0
 17 18  1  0
 17 43  1  0
 17 44  1  0
 18 19  1  0
 18 45  1  6
 19 46  1  0
 19 47  1  0
M  END
>  <i_m_ct_stereo_status>  (55) 
1

>  <s_m_source_file>  (55) 
/var/tmp/pbs.5076255.sched01/tmp8nmo4hef/06hb_edth.sdf

>  <i_m_source_file_index>  (55) 
21

>  <i_lp_mmshare_version>  (55) 
48012

>  <i_f3d_flags>  (55) 
0

>  <s_epik_input>  (55) 
W0NIMl09QyhbQ0gyXTEpW0NASF0oW0NIMl0yKVtDSDJdW0NIMl1bQ0BIXShbQ0BAXTEyMylbQ0BAXTQoW0NIM10pQyg9W0NIXTMpQyhbQ0gzXSkoW0NIM10pW0NIMl1bQ0gyXVtDSDJdNA==

>  <s_epik_cmdline>  (55) 
J2VwaWtfcHl0aG9uJywgJy1waHQnLCAnMi4wJywgJy1waCcsICc3LjAnLCAnLXRuJywgJzgnLCAnLW1hJywgJzIwMCcsICctaW1hZScsICc8aW5maWxlLm1hZT4nLCAnLW9tYWUnLCAnPG91dGZpbGUubWFlPic=

>  <r_lp_tautomer_probability>  (55) 
1

>  <r_epik_Ionization_Penalty>  (55) 
0

>  <r_epik_Ionization_Penalty_Charging>  (55) 
0

>  <r_epik_Ionization_Penalty_Neutral>  (55) 
0

>  <r_epik_State_Penalty>  (55) 
-0

>  <r_epik_Charging_Adjusted_Penalty>  (55) 
0

>  <i_epik_Tot_Q>  (55) 
0

>  <i_epik_Tot_abs_Q>  (55) 
0

>  <s_lp_Force_Field>  (55) 
OPLS3e

>  <r_lp_Energy>  (55) 
38.2319

>  <b_lp_Chiralities_Consistent>  (55) 
1

>  <s_lp_Variant>  (55) 
17:0-1

>  <s_i_glide_gridfile>  (55) 
pfpi4k_grid

>  <i_i_glide_lignum>  (55) 
21

>  <i_i_glide_rotatable_bonds>  (55) 
0

>  <r_i_docking_score>  (55) 
-3.25258

>  <r_i_glide_ligand_efficiency>  (55) 
-0.171188

>  <r_i_glide_ligand_efficiency_sa>  (55) 
-0.456799

>  <r_i_glide_ligand_efficiency_ln>  (55) 
-0.824599

>  <r_i_glide_gscore>  (55) 
-3.25258

>  <r_i_glide_lipo>  (55) 
-0.495703

>  <r_i_glide_hbond>  (55) 
0

>  <r_i_glide_metal>  (55) 
-0

>  <r_i_glide_rewards>  (55) 
-1.66073

>  <r_i_glide_evdw>  (55) 
-22.4812

>  <r_i_glide_ecoul>  (55) 
0.186131

>  <r_i_glide_erotb>  (55) 
0

>  <r_i_glide_esite>  (55) 
0

>  <r_i_glide_emodel>  (55) 
-26.5884

>  <r_i_glide_energy>  (55) 
-22.2951

>  <r_i_glide_einternal>  (55) 
0

>  <r_i_glide_intrahb_reward>  (55) 
-0

>  <i_i_glide_confnum>  (55) 
2

>  <i_i_glide_posenum>  (55) 
5

>  <r_i_glide_eff_state_penalty>  (55) 
0

>  <ligand_id>  (55) 
17

>  <original_smiles>  (55) 
C=C1CC23C=C4C(C)(C)CCCC4(C)C2CCC1C3

>  <smiles>  (55) 
[H]C([H])=C1C([H])([H])C23C([H])=C4C(C([H])([H])[H])(C([H])([H])[H])C([H])([H])C([H])([H])C([H])([H])C4(C([H])([H])[H])C2([H])C([H])([H])C([H])([H])C1([H])C3([H])[H]

$$$$
18:0:0
     RDKit          3D

 28 30  0  0  1  0  0  0  0  0999 V2000
    6.8140   -4.2637    0.1826 C   0  0  0  0  0  0  0  0  0  0  0  0
    5.5868   -3.4143   -0.1863 C   0  0  1  0  0  0  0  0  0  0  0  0
    5.8797   -1.8902   -0.0641 C   0  0  0  0  0  0  0  0  0  0  0  0
    7.0372   -1.4774    0.0859 O   0  0  0  0  0  0  0  0  0  0  0  0
    4.7234   -0.8739   -0.1394 C   0  0  0  0  0  0  0  0  0  0  0  0
    4.2125   -0.9205   -1.5572 C   0  0  0  0  0  0  0  0  0  0  0  0
    3.7153   -2.0426   -2.1064 C   0  0  0  0  0  0  0  0  0  0  0  0
    4.3527   -2.4307   -3.4252 C   0  0  0  0  0  0  0  0  0  0  0  0
    5.4254   -3.4130   -2.9000 C   0  0  0  0  0  0  0  0  0  0  0  0
    4.9077   -3.9137   -1.5127 C   0  0  2  0  0  0  0  0  0  0  0  0
    3.4905   -3.3771   -1.4322 C   0  0  1  0  0  0  0  0  0  0  0  0
    3.0892   -3.4827    0.0664 C   0  0  0  0  0  0  0  0  0  0  0  0
    4.4187   -3.6445    0.7701 C   0  0  0  0  0  0  0  0  0  0  0  0
    4.5296   -3.9493    1.9583 O   0  0  0  0  0  0  0  0  0  0  0  0
    7.2506   -3.9592    1.1374 H   0  0  0  0  0  0  0  0  0  0  0  0
    7.5945   -4.1641   -0.5701 H   0  0  0  0  0  0  0  0  0  0  0  0
    6.5598   -5.3111    0.2656 H   0  0  0  0  0  0  0  0  0  0  0  0
    3.9172   -1.0686    0.5740 H   0  0  0  0  0  0  0  0  0  0  0  0
    5.1100    0.1361    0.0727 H   0  0  0  0  0  0  0  0  0  0  0  0
    4.6361   -0.1637   -2.2069 H   0  0  0  0  0  0  0  0  0  0  0  0
    3.5892   -2.9771   -4.0109 H   0  0  0  0  0  0  0  0  0  0  0  0
    4.7255   -1.5992   -4.0095 H   0  0  0  0  0  0  0  0  0  0  0  0
    5.5570   -4.2527   -3.5886 H   0  0  0  0  0  0  0  0  0  0  0  0
    6.3890   -2.9111   -2.7840 H   0  0  0  0  0  0  0  0  0  0  0  0
    4.8761   -4.9972   -1.5231 H   0  0  0  0  0  0  0  0  0  0  0  0
    2.7649   -3.9000   -2.0549 H   0  0  0  0  0  0  0  0  0  0  0  0
    2.4481   -2.7003    0.4476 H   0  0  0  0  0  0  0  0  0  0  0  0
    2.5781   -4.4412    0.1873 H   0  0  0  0  0  0  0  0  0  0  0  0
  2  1  1  1
  1 15  1  0
  1 16  1  0
  1 17  1  0
  2 10  1  0
  2 13  1  0
  2  3  1  0
  3  4  2  0
  3  5  1  0
  5  6  1  0
  5 18  1  0
  5 19  1  0
  6  7  2  0
  6 20  1  0
  7 11  1  0
  7  8  1  0
  8  9  1  0
  8 21  1  0
  8 22  1  0
  9 10  1  0
  9 23  1  0
  9 24  1  0
 10 11  1  0
 10 25  1  6
 11 12  1  0
 11 26  1  6
 12 13  1  0
 12 27  1  0
 12 28  1  0
 13 14  2  0
M  END
>  <i_m_ct_stereo_status>  (56) 
1

>  <s_m_source_file>  (56) 
/var/tmp/pbs.5076255.sched01/tmp8nmo4hef/06hb_edth.sdf

>  <i_m_source_file_index>  (56) 
22

>  <i_lp_mmshare_version>  (56) 
48012

>  <i_f3d_flags>  (56) 
0

>  <s_epik_input>  (56) 
W0NIM11bQ0BdMTJbQ0BIXTNbQ0BASF0oW0NIMl1DMj1PKUMoW0NIMl1bQ0gyXTMpPVtDSF1bQ0gyXUMxPU8=

>  <s_epik_cmdline>  (56) 
J2VwaWtfcHl0aG9uJywgJy1waHQnLCAnMi4wJywgJy1waCcsICc3LjAnLCAnLXRuJywgJzgnLCAnLW1hJywgJzIwMCcsICctaW1hZScsICc8aW5maWxlLm1hZT4nLCAnLW9tYWUnLCAnPG91dGZpbGUubWFlPic=

>  <r_lp_tautomer_probability>  (56) 
1

>  <r_epik_Ionization_Penalty>  (56) 
2.36792e-12

>  <r_epik_Ionization_Penalty_Charging>  (56) 
0

>  <r_epik_Ionization_Penalty_Neutral>  (56) 
2.36792e-12

>  <r_epik_State_Penalty>  (56) 
-0

>  <r_epik_Charging_Adjusted_Penalty>  (56) 
0

>  <i_epik_Tot_Q>  (56) 
0

>  <i_epik_Tot_abs_Q>  (56) 
0

>  <s_lp_Force_Field>  (56) 
OPLS3e

>  <r_lp_Energy>  (56) 
38.1075

>  <b_lp_Chiralities_Consistent>  (56) 
1

>  <s_lp_Variant>  (56) 
18:0-1

>  <s_i_glide_gridfile>  (56) 
pfpi4k_grid

>  <i_i_glide_lignum>  (56) 
22

>  <i_i_glide_rotatable_bonds>  (56) 
0

>  <r_i_docking_score>  (56) 
-4.10842

>  <r_i_glide_ligand_efficiency>  (56) 
-0.293458

>  <r_i_glide_ligand_efficiency_sa>  (56) 
-0.707276

>  <r_i_glide_ligand_efficiency_ln>  (56) 
-1.12898

>  <r_i_glide_gscore>  (56) 
-4.10842

>  <r_i_glide_lipo>  (56) 
-0.579318

>  <r_i_glide_hbond>  (56) 
-0.0891004

>  <r_i_glide_metal>  (56) 
-0

>  <r_i_glide_rewards>  (56) 
-2.14504

>  <r_i_glide_evdw>  (56) 
-19.8574

>  <r_i_glide_ecoul>  (56) 
-1.97372

>  <r_i_glide_erotb>  (56) 
0

>  <r_i_glide_esite>  (56) 
-0.00603435

>  <r_i_glide_emodel>  (56) 
-27.2518

>  <r_i_glide_energy>  (56) 
-21.8311

>  <r_i_glide_einternal>  (56) 
0

>  <r_i_glide_intrahb_reward>  (56) 
-0

>  <i_i_glide_confnum>  (56) 
2

>  <i_i_glide_posenum>  (56) 
30

>  <r_i_glide_eff_state_penalty>  (56) 
0

>  <ligand_id>  (56) 
18

>  <original_smiles>  (56) 
CC12C(=O)CC=C3CCC1C3CC2=O

>  <smiles>  (56) 
[H]C1=C2C([H])([H])C([H])([H])C3([H])C2([H])C([H])([H])C(=O)C3(C([H])([H])[H])C(=O)C1([H])[H]

$$$$
18:0:1
     RDKit          3D

 28 30  0  0  1  0  0  0  0  0999 V2000
    3.6371   -3.9469    1.5308 C   0  0  0  0  0  0  0  0  0  0  0  0
    4.5709   -3.0726    0.6751 C   0  0  1  0  0  0  0  0  0  0  0  0
    5.8813   -3.8247    0.2808 C   0  0  0  0  0  0  0  0  0  0  0  0
    6.0061   -5.0374    0.4932 O   0  0  0  0  0  0  0  0  0  0  0  0
    7.0566   -3.0506   -0.3576 C   0  0  0  0  0  0  0  0  0  0  0  0
    6.5939   -2.6235   -1.7277 C   0  0  0  0  0  0  0  0  0  0  0  0
    5.5066   -1.8399   -1.8983 C   0  0  0  0  0  0  0  0  0  0  0  0
    4.4712   -2.4030   -2.8510 C   0  0  0  0  0  0  0  0  0  0  0  0
    3.5315   -3.0729   -1.8247 C   0  0  0  0  0  0  0  0  0  0  0  0
    3.7788   -2.3406   -0.4684 C   0  0  2  0  0  0  0  0  0  0  0  0
    4.6599   -1.1631   -0.8358 C   0  0  1  0  0  0  0  0  0  0  0  0
    5.2827   -0.6742    0.5016 C   0  0  0  0  0  0  0  0  0  0  0  0
    5.0675   -1.8454    1.4321 C   0  0  0  0  0  0  0  0  0  0  0  0
    5.2567   -1.7959    2.6467 O   0  0  0  0  0  0  0  0  0  0  0  0
    4.1722   -4.4072    2.3648 H   0  0  0  0  0  0  0  0  0  0  0  0
    3.2102   -4.7563    0.9426 H   0  0  0  0  0  0  0  0  0  0  0  0
    2.8264   -3.3736    1.9518 H   0  0  0  0  0  0  0  0  0  0  0  0
    7.3904   -2.1974    0.2417 H   0  0  0  0  0  0  0  0  0  0  0  0
    7.9221   -3.7213   -0.4791 H   0  0  0  0  0  0  0  0  0  0  0  0
    6.8811   -3.3019   -2.5277 H   0  0  0  0  0  0  0  0  0  0  0  0
    3.9614   -1.5420   -3.3279 H   0  0  0  0  0  0  0  0  0  0  0  0
    4.8616   -3.0646   -3.6177 H   0  0  0  0  0  0  0  0  0  0  0  0
    2.4849   -3.0026   -2.1424 H   0  0  0  0  0  0  0  0  0  0  0  0
    3.7781   -4.1319   -1.7250 H   0  0  0  0  0  0  0  0  0  0  0  0
    2.8364   -1.9695   -0.0860 H   0  0  0  0  0  0  0  0  0  0  0  0
    4.1203   -0.3477   -1.3222 H   0  0  0  0  0  0  0  0  0  0  0  0
    6.2911   -0.2906    0.4560 H   0  0  0  0  0  0  0  0  0  0  0  0
    4.6326    0.1219    0.8758 H   0  0  0  0  0  0  0  0  0  0  0  0
  2  1  1  1
  1 15  1  0
  1 16  1  0
  1 17  1  0
  2 10  1  0
  2 13  1  0
  2  3  1  0
  3  4  2  0
  3  5  1  0
  5  6  1  0
  5 18  1  0
  5 19  1  0
  6  7  2  0
  6 20  1  0
  7 11  1  0
  7  8  1  0
  8  9  1  0
  8 21  1  0
  8 22  1  0
  9 10  1  0
  9 23  1  0
  9 24  1  0
 10 11  1  0
 10 25  1  1
 11 12  1  0
 11 26  1  6
 12 13  1  0
 12 27  1  0
 12 28  1  0
 13 14  2  0
M  END
>  <i_m_ct_stereo_status>  (57) 
1

>  <s_m_source_file>  (57) 
/var/tmp/pbs.5076255.sched01/tmp8nmo4hef/06hb_edth.sdf

>  <i_m_source_file_index>  (57) 
22

>  <i_lp_mmshare_version>  (57) 
48012

>  <i_f3d_flags>  (57) 
0

>  <s_epik_input>  (57) 
W0NIM11bQ0BdMTJbQ0BIXTNbQ0BASF0oW0NIMl1DMj1PKUMoW0NIMl1bQ0gyXTMpPVtDSF1bQ0gyXUMxPU8=

>  <s_epik_cmdline>  (57) 
J2VwaWtfcHl0aG9uJywgJy1waHQnLCAnMi4wJywgJy1waCcsICc3LjAnLCAnLXRuJywgJzgnLCAnLW1hJywgJzIwMCcsICctaW1hZScsICc8aW5maWxlLm1hZT4nLCAnLW9tYWUnLCAnPG91dGZpbGUubWFlPic=

>  <r_lp_tautomer_probability>  (57) 
1

>  <r_epik_Ionization_Penalty>  (57) 
2.36792e-12

>  <r_epik_Ionization_Penalty_Charging>  (57) 
0

>  <r_epik_Ionization_Penalty_Neutral>  (57) 
2.36792e-12

>  <r_epik_State_Penalty>  (57) 
-0

>  <r_epik_Charging_Adjusted_Penalty>  (57) 
0

>  <i_epik_Tot_Q>  (57) 
0

>  <i_epik_Tot_abs_Q>  (57) 
0

>  <s_lp_Force_Field>  (57) 
OPLS3e

>  <r_lp_Energy>  (57) 
38.1075

>  <b_lp_Chiralities_Consistent>  (57) 
1

>  <s_lp_Variant>  (57) 
18:0-1

>  <s_i_glide_gridfile>  (57) 
pfpi4k_grid

>  <i_i_glide_lignum>  (57) 
22

>  <i_i_glide_rotatable_bonds>  (57) 
0

>  <r_i_docking_score>  (57) 
-3.87163

>  <r_i_glide_ligand_efficiency>  (57) 
-0.276545

>  <r_i_glide_ligand_efficiency_sa>  (57) 
-0.666513

>  <r_i_glide_ligand_efficiency_ln>  (57) 
-1.06391

>  <r_i_glide_gscore>  (57) 
-3.87163

>  <r_i_glide_lipo>  (57) 
-0.379606

>  <r_i_glide_hbond>  (57) 
0

>  <r_i_glide_metal>  (57) 
-0

>  <r_i_glide_rewards>  (57) 
-2.29547

>  <r_i_glide_evdw>  (57) 
-19.7941

>  <r_i_glide_ecoul>  (57) 
-1.37902

>  <r_i_glide_erotb>  (57) 
0

>  <r_i_glide_esite>  (57) 
0

>  <r_i_glide_emodel>  (57) 
-26.3272

>  <r_i_glide_energy>  (57) 
-21.1731

>  <r_i_glide_einternal>  (57) 
0

>  <r_i_glide_intrahb_reward>  (57) 
-0

>  <i_i_glide_confnum>  (57) 
2

>  <i_i_glide_posenum>  (57) 
11

>  <r_i_glide_eff_state_penalty>  (57) 
0

>  <ligand_id>  (57) 
18

>  <original_smiles>  (57) 
CC12C(=O)CC=C3CCC1C3CC2=O

>  <smiles>  (57) 
[H]C1=C2C([H])([H])C([H])([H])C3([H])C2([H])C([H])([H])C(=O)C3(C([H])([H])[H])C(=O)C1([H])[H]

$$$$
18:0:2
     RDKit          3D

 28 30  0  0  1  0  0  0  0  0999 V2000
    4.3399   -0.4095    0.8135 C   0  0  0  0  0  0  0  0  0  0  0  0
    4.3655   -1.8176    0.1986 C   0  0  1  0  0  0  0  0  0  0  0  0
    5.7509   -2.5060    0.4046 C   0  0  0  0  0  0  0  0  0  0  0  0
    6.6133   -1.9854    1.1023 O   0  0  0  0  0  0  0  0  0  0  0  0
    6.0621   -3.8276   -0.3471 C   0  0  0  0  0  0  0  0  0  0  0  0
    5.1473   -4.8976    0.2152 C   0  0  0  0  0  0  0  0  0  0  0  0
    3.8107   -4.7827    0.1988 C   0  0  0  0  0  0  0  0  0  0  0  0
    3.1615   -4.9163    1.5508 C   0  0  0  0  0  0  0  0  0  0  0  0
    3.0531   -3.4177    1.9444 C   0  0  0  0  0  0  0  0  0  0  0  0
    3.0792   -2.6248    0.6003 C   0  0  2  0  0  0  0  0  0  0  0  0
    2.9805   -3.6896   -0.4878 C   0  0  1  0  0  0  0  0  0  0  0  0
    3.4502   -3.0410   -1.7899 C   0  0  0  0  0  0  0  0  0  0  0  0
    4.2009   -1.7915   -1.3196 C   0  0  0  0  0  0  0  0  0  0  0  0
    4.6451   -0.9404   -2.0692 O   0  0  0  0  0  0  0  0  0  0  0  0
    5.1933    0.1715    0.4926 H   0  0  0  0  0  0  0  0  0  0  0  0
    4.3546   -0.4395    1.8943 H   0  0  0  0  0  0  0  0  0  0  0  0
    3.4486    0.1450    0.5147 H   0  0  0  0  0  0  0  0  0  0  0  0
    5.9443   -3.7369   -1.4355 H   0  0  0  0  0  0  0  0  0  0  0  0
    7.1022   -4.1101   -0.1460 H   0  0  0  0  0  0  0  0  0  0  0  0
    5.6070   -5.4627    1.0215 H   0  0  0  0  0  0  0  0  0  0  0  0
    2.1559   -5.3449    1.4033 H   0  0  0  0  0  0  0  0  0  0  0  0
    3.7209   -5.5254    2.2624 H   0  0  0  0  0  0  0  0  0  0  0  0
    2.1197   -3.2312    2.4942 H   0  0  0  0  0  0  0  0  0  0  0  0
    3.8780   -3.1047    2.5857 H   0  0  0  0  0  0  0  0  0  0  0  0
    2.2113   -1.9770    0.5541 H   0  0  0  0  0  0  0  0  0  0  0  0
    1.9583   -4.0860   -0.6069 H   0  0  0  0  0  0  0  0  0  0  0  0
    4.0241   -3.6877   -2.4634 H   0  0  0  0  0  0  0  0  0  0  0  0
    2.5780   -2.6753   -2.3373 H   0  0  0  0  0  0  0  0  0  0  0  0
  2  1  1  1
  1 15  1  0
  1 16  1  0
  1 17  1  0
  2 10  1  0
  2 13  1  0
  2  3  1  0
  3  4  2  0
  3  5  1  0
  5  6  1  0
  5 18  1  0
  5 19  1  0
  6  7  2  0
  6 20  1  0
  7 11  1  0
  7  8  1  0
  8  9  1  0
  8 21  1  0
  8 22  1  0
  9 10  1  0
  9 23  1  0
  9 24  1  0
 10 11  1  0
 10 25  1  1
 11 12  1  0
 11 26  1  6
 12 13  1  0
 12 27  1  0
 12 28  1  0
 13 14  2  0
M  END
>  <i_m_ct_stereo_status>  (58) 
1

>  <s_m_source_file>  (58) 
/var/tmp/pbs.5076255.sched01/tmp8nmo4hef/06hb_edth.sdf

>  <i_m_source_file_index>  (58) 
22

>  <i_lp_mmshare_version>  (58) 
48012

>  <i_f3d_flags>  (58) 
0

>  <s_epik_input>  (58) 
W0NIM11bQ0BdMTJbQ0BIXTNbQ0BASF0oW0NIMl1DMj1PKUMoW0NIMl1bQ0gyXTMpPVtDSF1bQ0gyXUMxPU8=

>  <s_epik_cmdline>  (58) 
J2VwaWtfcHl0aG9uJywgJy1waHQnLCAnMi4wJywgJy1waCcsICc3LjAnLCAnLXRuJywgJzgnLCAnLW1hJywgJzIwMCcsICctaW1hZScsICc8aW5maWxlLm1hZT4nLCAnLW9tYWUnLCAnPG91dGZpbGUubWFlPic=

>  <r_lp_tautomer_probability>  (58) 
1

>  <r_epik_Ionization_Penalty>  (58) 
2.36792e-12

>  <r_epik_Ionization_Penalty_Charging>  (58) 
0

>  <r_epik_Ionization_Penalty_Neutral>  (58) 
2.36792e-12

>  <r_epik_State_Penalty>  (58) 
-0

>  <r_epik_Charging_Adjusted_Penalty>  (58) 
0

>  <i_epik_Tot_Q>  (58) 
0

>  <i_epik_Tot_abs_Q>  (58) 
0

>  <s_lp_Force_Field>  (58) 
OPLS3e

>  <r_lp_Energy>  (58) 
38.1075

>  <b_lp_Chiralities_Consistent>  (58) 
1

>  <s_lp_Variant>  (58) 
18:0-1

>  <s_i_glide_gridfile>  (58) 
pfpi4k_grid

>  <i_i_glide_lignum>  (58) 
22

>  <i_i_glide_rotatable_bonds>  (58) 
0

>  <r_i_docking_score>  (58) 
-3.58613

>  <r_i_glide_ligand_efficiency>  (58) 
-0.256152

>  <r_i_glide_ligand_efficiency_sa>  (58) 
-0.617363

>  <r_i_glide_ligand_efficiency_ln>  (58) 
-0.985456

>  <r_i_glide_gscore>  (58) 
-3.58613

>  <r_i_glide_lipo>  (58) 
-0.25628

>  <r_i_glide_hbond>  (58) 
0

>  <r_i_glide_metal>  (58) 
-0

>  <r_i_glide_rewards>  (58) 
-2.17936

>  <r_i_glide_evdw>  (58) 
-18.9934

>  <r_i_glide_ecoul>  (58) 
-1.09403

>  <r_i_glide_erotb>  (58) 
0

>  <r_i_glide_esite>  (58) 
-0.0367231

>  <r_i_glide_emodel>  (58) 
-24.8538

>  <r_i_glide_energy>  (58) 
-20.0874

>  <r_i_glide_einternal>  (58) 
0

>  <r_i_glide_intrahb_reward>  (58) 
-0

>  <i_i_glide_confnum>  (58) 
1

>  <i_i_glide_posenum>  (58) 
8

>  <r_i_glide_eff_state_penalty>  (58) 
0

>  <ligand_id>  (58) 
18

>  <original_smiles>  (58) 
CC12C(=O)CC=C3CCC1C3CC2=O

>  <smiles>  (58) 
[H]C1=C2C([H])([H])C([H])([H])C3([H])C2([H])C([H])([H])C(=O)C3(C([H])([H])[H])C(=O)C1([H])[H]

$$$$
19:0:0
     RDKit          3D

 91 97  0  0  1  0  0  0  0  0999 V2000
    5.7665   -5.6443    6.1960 C   0  0  0  0  0  0  0  0  0  0  0  0
    4.7923   -5.1101    5.4443 C   0  0  0  0  0  0  0  0  0  0  0  0
    4.7492   -5.2634    3.9342 C   0  0  2  0  0  0  0  0  0  0  0  0
    5.2385   -4.0582    3.1162 C   0  0  2  0  0  0  0  0  0  0  0  0
    5.1532   -2.8690    3.9043 O   0  0  0  0  0  0  0  0  0  0  0  0
    5.2586   -1.6772    3.1639 C   0  0  0  0  0  0  0  0  0  0  0  0
    4.2375   -0.6398    3.6739 C   0  0  1  0  0  0  0  0  0  0  0  0
    5.0734    0.4822    4.3655 C   0  0  0  0  0  0  0  0  0  0  0  0
    3.5293    0.0500    2.5296 C   0  0  0  0  0  0  0  0  0  0  0  0
    4.0426    0.2690    1.4391 O   0  0  0  0  0  0  0  0  0  0  0  0
    2.3023    0.3741    2.9150 O   0  0  0  0  0  0  0  0  0  0  0  0
    2.0332   -0.0301    4.2446 C   0  0  0  0  0  0  0  0  0  0  0  0
    3.0400   -1.1772    4.5540 C   0  0  2  0  0  0  0  0  0  0  0  0
    3.3548   -1.0103    6.0608 C   0  0  0  0  0  0  0  0  0  0  0  0
    2.2504   -2.5903    4.2886 C   0  0  1  0  0  0  0  0  0  0  0  0
    1.4352   -2.6457    2.9753 C   0  0  0  0  0  0  0  0  0  0  0  0
    2.2350   -2.6452    1.7082 C   0  0  0  0  0  0  0  0  0  0  0  0
    3.3504   -3.3168    1.3787 C   0  0  0  0  0  0  0  0  0  0  0  0
    4.0189   -3.1287    0.0072 C   0  0  0  0  0  0  0  0  0  0  0  0
    3.3738   -2.0283   -0.8546 C   0  0  0  0  0  0  0  0  0  0  0  0
    3.9830   -1.8614   -2.2497 C   0  0  0  0  0  0  0  0  0  0  0  0
    4.9253   -1.0854   -2.4110 O   0  0  0  0  0  0  0  0  0  0  0  0
    3.4525   -2.6050   -3.2491 O   0  0  0  0  0  0  0  0  0  0  0  0
    2.2715   -3.3757   -3.0585 C   0  0  0  0  0  0  0  0  0  0  0  0
    4.0233   -4.3733    2.2491 C   0  0  2  0  0  0  0  0  0  0  0  0
    3.3111   -4.9678    3.4918 C   0  0  1  0  0  0  0  0  0  0  0  0
    2.4734   -6.1882    3.0485 C   0  0  0  0  0  0  0  0  0  0  0  0
    2.6695   -4.1076    4.6836 C   0  0  2  0  0  0  0  0  0  0  0  0
    1.3464   -4.6610    4.8798 O   0  0  0  0  0  0  0  0  0  0  0  0
    0.8674   -5.4892    5.8360 C   0  0  0  0  0  0  0  0  0  0  0  0
   -0.3022   -5.8658    5.7957 O   0  0  0  0  0  0  0  0  0  0  0  0
    1.8234   -5.9926    6.9282 C   0  0  2  0  0  0  0  0  0  0  0  0
    2.5181   -7.3177    6.5103 C   0  0  0  0  0  0  0  0  0  0  0  0
    1.5844   -8.3677    6.2899 O   0  0  0  0  0  0  0  0  0  0  0  0
    2.1957   -9.6336    6.0714 C   0  0  0  0  0  0  0  0  0  0  0  0
    0.9932   -6.3807    8.1948 C   0  0  0  0  0  0  0  0  0  0  0  0
    0.5152   -5.1937    9.0313 C   0  0  0  0  0  0  0  0  0  0  0  0
    1.7228   -4.4132    9.5290 C   0  0  1  0  0  0  0  0  0  0  0  0
    2.5670   -5.2502   10.5243 C   0  0  0  0  0  0  0  0  0  0  0  0
    2.5159   -3.8473    8.3200 C   0  0  1  0  0  0  0  0  0  0  0  0
    3.7217   -3.0513    8.8783 C   0  0  0  0  0  0  0  0  0  0  0  0
    2.9201   -4.9356    7.2586 C   0  0  2  0  0  0  0  0  0  0  0  0
    3.5811   -4.3349    5.9453 C   0  0  1  0  0  0  0  0  0  0  0  0
    5.8009   -5.5379    7.2800 H   0  0  0  0  0  0  0  0  0  0  0  0
    6.5716   -6.1936    5.7347 H   0  0  0  0  0  0  0  0  0  0  0  0
    5.1448   -6.2157    3.5690 H   0  0  0  0  0  0  0  0  0  0  0  0
    6.2023   -4.2170    2.6227 H   0  0  0  0  0  0  0  0  0  0  0  0
    6.2569   -1.2785    3.2763 H   0  0  0  0  0  0  0  0  0  0  0  0
    5.2130   -1.8376    2.0932 H   0  0  0  0  0  0  0  0  0  0  0  0
    5.6556    0.1104    5.2128 H   0  0  0  0  0  0  0  0  0  0  0  0
    4.4556    1.3132    4.7127 H   0  0  0  0  0  0  0  0  0  0  0  0
    5.8005    0.9178    3.6791 H   0  0  0  0  0  0  0  0  0  0  0  0
    2.2067    0.8485    4.8618 H   0  0  0  0  0  0  0  0  0  0  0  0
    0.9841   -0.3039    4.3888 H   0  0  0  0  0  0  0  0  0  0  0  0
    2.6168   -1.5150    6.6786 H   0  0  0  0  0  0  0  0  0  0  0  0
    3.3504    0.0319    6.3892 H   0  0  0  0  0  0  0  0  0  0  0  0
    4.3533   -1.3763    6.2963 H   0  0  0  0  0  0  0  0  0  0  0  0
    1.4443   -2.4227    5.0047 H   0  0  0  0  0  0  0  0  0  0  0  0
    0.7508   -3.4888    2.9347 H   0  0  0  0  0  0  0  0  0  0  0  0
    0.7684   -1.7906    2.8947 H   0  0  0  0  0  0  0  0  0  0  0  0
    1.7590   -1.9495    1.0370 H   0  0  0  0  0  0  0  0  0  0  0  0
    5.0831   -2.9246    0.1339 H   0  0  0  0  0  0  0  0  0  0  0  0
    3.9565   -4.0765   -0.5294 H   0  0  0  0  0  0  0  0  0  0  0  0
    2.3202   -2.2582   -0.9245 H   0  0  0  0  0  0  0  0  0  0  0  0
    3.4136   -1.0578   -0.3701 H   0  0  0  0  0  0  0  0  0  0  0  0
    2.0498   -3.9914   -3.9380 H   0  0  0  0  0  0  0  0  0  0  0  0
    1.4260   -2.7115   -2.8849 H   0  0  0  0  0  0  0  0  0  0  0  0
    2.3512   -4.0392   -2.1978 H   0  0  0  0  0  0  0  0  0  0  0  0
    4.3163   -5.1867    1.5705 H   0  0  0  0  0  0  0  0  0  0  0  0
    1.5628   -5.8922    2.5331 H   0  0  0  0  0  0  0  0  0  0  0  0
    2.1854   -6.8492    3.8524 H   0  0  0  0  0  0  0  0  0  0  0  0
    3.0349   -6.8197    2.3640 H   0  0  0  0  0  0  0  0  0  0  0  0
    3.1718   -7.2049    5.6484 H   0  0  0  0  0  0  0  0  0  0  0  0
    3.1884   -7.6310    7.3182 H   0  0  0  0  0  0  0  0  0  0  0  0
    1.4311  -10.3960    5.9226 H   0  0  0  0  0  0  0  0  0  0  0  0
    2.8035   -9.9448    6.9223 H   0  0  0  0  0  0  0  0  0  0  0  0
    2.8278   -9.6170    5.1831 H   0  0  0  0  0  0  0  0  0  0  0  0
    0.1051   -6.9334    7.9178 H   0  0  0  0  0  0  0  0  0  0  0  0
    1.5559   -7.0782    8.8291 H   0  0  0  0  0  0  0  0  0  0  0  0
   -0.1469   -4.5486    8.4480 H   0  0  0  0  0  0  0  0  0  0  0  0
   -0.0900   -5.5380    9.8751 H   0  0  0  0  0  0  0  0  0  0  0  0
    1.3387   -3.5714   10.1046 H   0  0  0  0  0  0  0  0  0  0  0  0
    3.1441   -6.0287   10.0251 H   0  0  0  0  0  0  0  0  0  0  0  0
    1.9321   -5.7362   11.2669 H   0  0  0  0  0  0  0  0  0  0  0  0
    3.2718   -4.6282   11.0760 H   0  0  0  0  0  0  0  0  0  0  0  0
    1.8378   -3.1490    7.8311 H   0  0  0  0  0  0  0  0  0  0  0  0
    4.4578   -3.7104    9.3404 H   0  0  0  0  0  0  0  0  0  0  0  0
    3.4005   -2.3340    9.6371 H   0  0  0  0  0  0  0  0  0  0  0  0
    4.2584   -2.4866    8.1274 H   0  0  0  0  0  0  0  0  0  0  0  0
    3.7007   -5.4829    7.7878 H   0  0  0  0  0  0  0  0  0  0  0  0
    4.0639   -3.4098    6.1977 H   0  0  0  0  0  0  0  0  0  0  0  0
  1  2  2  0
  1 44  1  0
  1 45  1  0
  2 43  1  0
  2  3  1  0
  3 26  1  0
  3  4  1  0
  3 46  1  1
  4 25  1  0
  4  5  1  0
  4 47  1  6
  5  6  1  0
  6  7  1  0
  6 48  1  0
  6 49  1  0
  7 13  1  0
  7  8  1  1
  7  9  1  0
  8 50  1  0
  8 51  1  0
  8 52  1  0
  9 10  2  0
  9 11  1  0
 11 12  1  0
 12 13  1  0
 12 53  1  0
 12 54  1  0
 13 14  1  1
 13 15  1  0
 14 55  1  0
 14 56  1  0
 14 57  1  0
 15 28  1  0
 15 16  1  0
 15 58  1  1
 16 17  1  0
 16 59  1  0
 16 60  1  0
 17 18  2  0
 17 61  1  0
 18 19  1  0
 18 25  1  0
 19 20  1  0
 19 62  1  0
 19 63  1  0
 20 21  1  0
 20 64  1  0
 20 65  1  0
 21 22  2  0
 21 23  1  0
 23 24  1  0
 24 66  1  0
 24 67  1  0
 24 68  1  0
 25 26  1  0
 25 69  1  6
 26 27  1  6
 26 28  1  0
 27 70  1  0
 27 71  1  0
 27 72  1  0
 28 43  1  0
 28 29  1  1
 29 30  1  0
 30 31  2  0
 30 32  1  0
 32 42  1  0
 32 33  1  6
 32 36  1  0
 33 34  1  0
 33 73  1  0
 33 74  1  0
 34 35  1  0
 35 75  1  0
 35 76  1  0
 35 77  1  0
 36 37  1  0
 36 78  1  0
 36 79  1  0
 37 38  1  0
 37 80  1  0
 37 81  1  0
 38 39  1  0
 38 40  1  0
 38 82  1  1
 39 83  1  0
 39 84  1  0
 39 85  1  0
 40 41  1  0
 40 42  1  0
 40 86  1  6
 41 87  1  0
 41 88  1  0
 41 89  1  0
 42 43  1  0
 42 90  1  1
 43 91  1  1
M  END
>  <i_m_ct_stereo_status>  (59) 
1

>  <s_m_source_file>  (59) 
/var/tmp/pbs.5076255.sched01/tmp8nmo4hef/06hb_edth.sdf

>  <i_m_source_file_index>  (59) 
23

>  <i_lp_mmshare_version>  (59) 
48012

>  <i_f3d_flags>  (59) 
0

>  <s_epik_input>  (59) 
W0NIM11bQ0BASF0xW0NASF0oW0NIM10pW0NIMl1bQ0gyXVtDQF0oQyhPMik9TykoW0NIMl1PW0NIM10pW0NASF0xW0NASF0zQyg9W0NIMl0pW0NASF0oW0NAQEhdNE9bQ0gyXVtDQF0oW0NIM10pKFtDQF01KFtDSDNdKVtDSF02W0NAXTIzNylDKD1PKU9bQ0gyXTUpW0NAXTcoW0NIM10pW0NASF00Qyg9W0NIXVtDSDJdNilbQ0gyXVtDSDJdQyg9TylPW0NIM10=

>  <s_epik_cmdline>  (59) 
J2VwaWtfcHl0aG9uJywgJy1waHQnLCAnMi4wJywgJy1waCcsICc3LjAnLCAnLXRuJywgJzgnLCAnLW1hJywgJzIwMCcsICctaW1hZScsICc8aW5maWxlLm1hZT4nLCAnLW9tYWUnLCAnPG91dGZpbGUubWFlPic=

>  <r_lp_tautomer_probability>  (59) 
1

>  <r_epik_Ionization_Penalty>  (59) 
1.02484e-11

>  <r_epik_Ionization_Penalty_Charging>  (59) 
0

>  <r_epik_Ionization_Penalty_Neutral>  (59) 
1.02484e-11

>  <r_epik_State_Penalty>  (59) 
-0

>  <r_epik_Charging_Adjusted_Penalty>  (59) 
0

>  <i_epik_Tot_Q>  (59) 
0

>  <i_epik_Tot_abs_Q>  (59) 
0

>  <s_epik_Chemistry_Notes>  (59) 
This compound has an ester and may undergo hydrolysis at high or low pH.

>  <s_lp_Force_Field>  (59) 
OPLS3e

>  <r_lp_Energy>  (59) 
111.07

>  <b_lp_Chiralities_Consistent>  (59) 
1

>  <s_lp_Variant>  (59) 
19:0-1

>  <s_i_glide_gridfile>  (59) 
pfpi4k_grid

>  <i_i_glide_lignum>  (59) 
23

>  <i_i_glide_rotatable_bonds>  (59) 
6

>  <r_i_docking_score>  (59) 
-2.25105

>  <r_i_glide_ligand_efficiency>  (59) 
-0.05235

>  <r_i_glide_ligand_efficiency_sa>  (59) 
-0.183403

>  <r_i_glide_ligand_efficiency_ln>  (59) 
-0.47279

>  <r_i_glide_gscore>  (59) 
-2.25105

>  <r_i_glide_lipo>  (59) 
-0.483256

>  <r_i_glide_hbond>  (59) 
0

>  <r_i_glide_metal>  (59) 
-0

>  <r_i_glide_rewards>  (59) 
-0.0257417

>  <r_i_glide_evdw>  (59) 
-25.1799

>  <r_i_glide_ecoul>  (59) 
-3.87015

>  <r_i_glide_erotb>  (59) 
0.121678

>  <r_i_glide_esite>  (59) 
-0.024212

>  <r_i_glide_emodel>  (59) 
-27.937

>  <r_i_glide_energy>  (59) 
-29.0501

>  <r_i_glide_einternal>  (59) 
8.82785

>  <r_i_glide_intrahb_reward>  (59) 
-0

>  <i_i_glide_confnum>  (59) 
1

>  <i_i_glide_posenum>  (59) 
6

>  <r_i_glide_eff_state_penalty>  (59) 
0

>  <ligand_id>  (59) 
19

>  <original_smiles>  (59) 
C=C1C2C3OCC4(C)C(=O)OCC4(C)C4CC=C(CCC(=O)OC)C3C2(C)C42OC(=O)C3(COC)CCC(C)C(C)C3C12

>  <smiles>  (59) 
[H]C([H])=C1C2([H])C3([H])C([H])(C([H])([H])[H])C([H])(C([H])([H])[H])C([H])([H])C([H])([H])C3(C([H])([H])OC([H])([H])[H])C(=O)OC23C2([H])C([H])([H])C([H])=C(C([H])([H])C([H])([H])C(=O)OC([H])([H])[H])C4([H])C([H])(OC([H])([H])C5(C([H])([H])[H])C(=O)OC([H])([H])C25C([H])([H])[H])C1([H])C43C([H])([H])[H]

$$$$
19:0:1
     RDKit          3D

 91 97  0  0  1  0  0  0  0  0999 V2000
   -1.7287   -0.7415    5.6011 C   0  0  0  0  0  0  0  0  0  0  0  0
   -0.4849   -0.3703    5.2744 C   0  0  0  0  0  0  0  0  0  0  0  0
    0.2021   -0.8874    4.0430 C   0  0  2  0  0  0  0  0  0  0  0  0
    1.2354   -2.0094    4.2220 C   0  0  2  0  0  0  0  0  0  0  0  0
    1.7132   -1.9872    5.5603 O   0  0  0  0  0  0  0  0  0  0  0  0
    2.8531   -2.7606    5.7799 C   0  0  0  0  0  0  0  0  0  0  0  0
    3.8272   -1.9710    6.6910 C   0  0  1  0  0  0  0  0  0  0  0  0
    3.8853   -2.7506    8.0390 C   0  0  0  0  0  0  0  0  0  0  0  0
    5.2623   -2.0301    6.1639 C   0  0  0  0  0  0  0  0  0  0  0  0
    5.7508   -2.9744    5.5429 O   0  0  0  0  0  0  0  0  0  0  0  0
    5.9030   -0.9093    6.5069 O   0  0  0  0  0  0  0  0  0  0  0  0
    5.0689   -0.0148    7.2225 C   0  0  0  0  0  0  0  0  0  0  0  0
    3.6048   -0.4045    6.8561 C   0  0  2  0  0  0  0  0  0  0  0  0
    2.7983   -0.1172    8.1451 C   0  0  0  0  0  0  0  0  0  0  0  0
    3.1522    0.5779    5.6263 C   0  0  1  0  0  0  0  0  0  0  0  0
    4.2002    0.7621    4.4844 C   0  0  0  0  0  0  0  0  0  0  0  0
    4.4538   -0.4265    3.6040 C   0  0  0  0  0  0  0  0  0  0  0  0
    3.5642   -1.3064    3.0847 C   0  0  0  0  0  0  0  0  0  0  0  0
    4.0935   -2.4699    2.2593 C   0  0  0  0  0  0  0  0  0  0  0  0
    3.8445   -2.3315    0.7424 C   0  0  0  0  0  0  0  0  0  0  0  0
    4.6334   -3.3459   -0.0978 C   0  0  0  0  0  0  0  0  0  0  0  0
    5.2894   -4.2601    0.4066 O   0  0  0  0  0  0  0  0  0  0  0  0
    4.5380   -3.1021   -1.4124 O   0  0  0  0  0  0  0  0  0  0  0  0
    5.2662   -3.9105   -2.3239 C   0  0  0  0  0  0  0  0  0  0  0  0
    2.0480   -1.2096    3.1988 C   0  0  2  0  0  0  0  0  0  0  0  0
    1.3372    0.0803    3.6793 C   0  0  1  0  0  0  0  0  0  0  0  0
    1.0825    1.0002    2.4536 C   0  0  0  0  0  0  0  0  0  0  0  0
    1.6717    0.8528    5.0298 C   0  0  2  0  0  0  0  0  0  0  0  0
    1.8331    2.2443    4.6653 O   0  0  0  0  0  0  0  0  0  0  0  0
    0.9730    3.2996    4.8233 C   0  0  0  0  0  0  0  0  0  0  0  0
    1.2974    4.4060    4.3820 O   0  0  0  0  0  0  0  0  0  0  0  0
   -0.4208    3.0840    5.4712 C   0  0  2  0  0  0  0  0  0  0  0  0
   -1.4767    2.7458    4.3493 C   0  0  0  0  0  0  0  0  0  0  0  0
   -1.3743    3.4161    3.1000 O   0  0  0  0  0  0  0  0  0  0  0  0
   -1.6575    4.8152    3.0778 C   0  0  0  0  0  0  0  0  0  0  0  0
   -0.9148    4.4489    6.1093 C   0  0  0  0  0  0  0  0  0  0  0  0
   -0.2766    4.7846    7.4436 C   0  0  0  0  0  0  0  0  0  0  0  0
   -0.5898    3.7003    8.4494 C   0  0  1  0  0  0  0  0  0  0  0  0
   -2.1141    3.6401    8.7445 C   0  0  0  0  0  0  0  0  0  0  0  0
    0.0478    2.3632    7.9731 C   0  0  1  0  0  0  0  0  0  0  0  0
   -0.2657    1.3075    9.0442 C   0  0  0  0  0  0  0  0  0  0  0  0
   -0.3702    1.9249    6.5165 C   0  0  2  0  0  0  0  0  0  0  0  0
    0.4112    0.6498    5.9746 C   0  0  1  0  0  0  0  0  0  0  0  0
   -2.2461   -0.3525    6.4622 H   0  0  0  0  0  0  0  0  0  0  0  0
   -2.2690   -1.4399    4.9837 H   0  0  0  0  0  0  0  0  0  0  0  0
   -0.5082   -1.0541    3.2466 H   0  0  0  0  0  0  0  0  0  0  0  0
    0.8915   -2.9795    3.8608 H   0  0  0  0  0  0  0  0  0  0  0  0
    2.5332   -3.6975    6.2308 H   0  0  0  0  0  0  0  0  0  0  0  0
    3.3119   -3.0785    4.8532 H   0  0  0  0  0  0  0  0  0  0  0  0
    2.9132   -2.7971    8.5230 H   0  0  0  0  0  0  0  0  0  0  0  0
    4.5892   -2.3198    8.7477 H   0  0  0  0  0  0  0  0  0  0  0  0
    4.1990   -3.7844    7.8920 H   0  0  0  0  0  0  0  0  0  0  0  0
    5.2862   -0.1756    8.2770 H   0  0  0  0  0  0  0  0  0  0  0  0
    5.3102    1.0318    7.0143 H   0  0  0  0  0  0  0  0  0  0  0  0
    2.4873    0.9171    8.1938 H   0  0  0  0  0  0  0  0  0  0  0  0
    3.3658   -0.2880    9.0595 H   0  0  0  0  0  0  0  0  0  0  0  0
    1.9350   -0.7714    8.2283 H   0  0  0  0  0  0  0  0  0  0  0  0
    3.2995    1.5073    6.1708 H   0  0  0  0  0  0  0  0  0  0  0  0
    3.9605    1.5950    3.8214 H   0  0  0  0  0  0  0  0  0  0  0  0
    5.1700    1.0530    4.8852 H   0  0  0  0  0  0  0  0  0  0  0  0
    5.4968   -0.5800    3.3860 H   0  0  0  0  0  0  0  0  0  0  0  0
    5.1625   -2.5702    2.4406 H   0  0  0  0  0  0  0  0  0  0  0  0
    3.6423   -3.3950    2.6190 H   0  0  0  0  0  0  0  0  0  0  0  0
    2.7841   -2.4527    0.5199 H   0  0  0  0  0  0  0  0  0  0  0  0
    4.1202   -1.3315    0.4056 H   0  0  0  0  0  0  0  0  0  0  0  0
    5.0640   -3.5924   -3.3447 H   0  0  0  0  0  0  0  0  0  0  0  0
    5.0052   -4.9669   -2.2407 H   0  0  0  0  0  0  0  0  0  0  0  0
    6.3384   -3.8187   -2.1511 H   0  0  0  0  0  0  0  0  0  0  0  0
    1.6625   -1.4567    2.2006 H   0  0  0  0  0  0  0  0  0  0  0  0
    1.9916    1.5060    2.1199 H   0  0  0  0  0  0  0  0  0  0  0  0
    0.3195    1.7541    2.6105 H   0  0  0  0  0  0  0  0  0  0  0  0
    0.7207    0.4357    1.5942 H   0  0  0  0  0  0  0  0  0  0  0  0
   -1.4695    1.6818    4.1064 H   0  0  0  0  0  0  0  0  0  0  0  0
   -2.4836    2.8890    4.7313 H   0  0  0  0  0  0  0  0  0  0  0  0
   -1.6003    5.2172    2.0639 H   0  0  0  0  0  0  0  0  0  0  0  0
   -0.9568    5.3820    3.6756 H   0  0  0  0  0  0  0  0  0  0  0  0
   -2.6734    4.9434    3.4537 H   0  0  0  0  0  0  0  0  0  0  0  0
   -0.6597    5.3222    5.5438 H   0  0  0  0  0  0  0  0  0  0  0  0
   -2.0013    4.3734    6.2306 H   0  0  0  0  0  0  0  0  0  0  0  0
    0.8045    4.9317    7.3171 H   0  0  0  0  0  0  0  0  0  0  0  0
   -0.6711    5.7518    7.7652 H   0  0  0  0  0  0  0  0  0  0  0  0
   -0.1034    4.0185    9.3783 H   0  0  0  0  0  0  0  0  0  0  0  0
   -2.6809    3.1852    7.9344 H   0  0  0  0  0  0  0  0  0  0  0  0
   -2.5256    4.6371    8.9055 H   0  0  0  0  0  0  0  0  0  0  0  0
   -2.3136    3.0672    9.6443 H   0  0  0  0  0  0  0  0  0  0  0  0
    1.1192    2.5593    7.9546 H   0  0  0  0  0  0  0  0  0  0  0  0
   -1.3252    1.0695    9.0642 H   0  0  0  0  0  0  0  0  0  0  0  0
    0.0057    1.6685   10.0342 H   0  0  0  0  0  0  0  0  0  0  0  0
    0.2554    0.3768    8.9008 H   0  0  0  0  0  0  0  0  0  0  0  0
   -1.4166    1.6488    6.6505 H   0  0  0  0  0  0  0  0  0  0  0  0
    0.6922    0.0584    6.8271 H   0  0  0  0  0  0  0  0  0  0  0  0
  1  2  2  0
  1 44  1  0
  1 45  1  0
  2 43  1  0
  2  3  1  0
  3 26  1  0
  3  4  1  0
  3 46  1  6
  4 25  1  0
  4  5  1  0
  4 47  1  6
  5  6  1  0
  6  7  1  0
  6 48  1  0
  6 49  1  0
  7 13  1  0
  7  8  1  1
  7  9  1  0
  8 50  1  0
  8 51  1  0
  8 52  1  0
  9 10  2  0
  9 11  1  0
 11 12  1  0
 12 13  1  0
 12 53  1  0
 12 54  1  0
 13 14  1  1
 13 15  1  0
 14 55  1  0
 14 56  1  0
 14 57  1  0
 15 28  1  0
 15 16  1  0
 15 58  1  1
 16 17  1  0
 16 59  1  0
 16 60  1  0
 17 18  2  0
 17 61  1  0
 18 19  1  0
 18 25  1  0
 19 20  1  0
 19 62  1  0
 19 63  1  0
 20 21  1  0
 20 64  1  0
 20 65  1  0
 21 22  2  0
 21 23  1  0
 23 24  1  0
 24 66  1  0
 24 67  1  0
 24 68  1  0
 25 26  1  0
 25 69  1  6
 26 27  1  6
 26 28  1  0
 27 70  1  0
 27 71  1  0
 27 72  1  0
 28 43  1  0
 28 29  1  6
 29 30  1  0
 30 31  2  0
 30 32  1  0
 32 42  1  0
 32 33  1  6
 32 36  1  0
 33 34  1  0
 33 73  1  0
 33 74  1  0
 34 35  1  0
 35 75  1  0
 35 76  1  0
 35 77  1  0
 36 37  1  0
 36 78  1  0
 36 79  1  0
 37 38  1  0
 37 80  1  0
 37 81  1  0
 38 39  1  0
 38 40  1  0
 38 82  1  1
 39 83  1  0
 39 84  1  0
 39 85  1  0
 40 41  1  0
 40 42  1  0
 40 86  1  6
 41 87  1  0
 41 88  1  0
 41 89  1  0
 42 43  1  0
 42 90  1  1
 43 91  1  1
M  END
>  <i_m_ct_stereo_status>  (60) 
1

>  <s_m_source_file>  (60) 
/var/tmp/pbs.5076255.sched01/tmp8nmo4hef/06hb_edth.sdf

>  <i_m_source_file_index>  (60) 
23

>  <i_lp_mmshare_version>  (60) 
48012

>  <i_f3d_flags>  (60) 
0

>  <s_epik_input>  (60) 
W0NIM11bQ0BASF0xW0NASF0oW0NIM10pW0NIMl1bQ0gyXVtDQF0oQyhPMik9TykoW0NIMl1PW0NIM10pW0NASF0xW0NASF0zQyg9W0NIMl0pW0NASF0oW0NAQEhdNE9bQ0gyXVtDQF0oW0NIM10pKFtDQF01KFtDSDNdKVtDSF02W0NAXTIzNylDKD1PKU9bQ0gyXTUpW0NAXTcoW0NIM10pW0NASF00Qyg9W0NIXVtDSDJdNilbQ0gyXVtDSDJdQyg9TylPW0NIM10=

>  <s_epik_cmdline>  (60) 
J2VwaWtfcHl0aG9uJywgJy1waHQnLCAnMi4wJywgJy1waCcsICc3LjAnLCAnLXRuJywgJzgnLCAnLW1hJywgJzIwMCcsICctaW1hZScsICc8aW5maWxlLm1hZT4nLCAnLW9tYWUnLCAnPG91dGZpbGUubWFlPic=

>  <r_lp_tautomer_probability>  (60) 
1

>  <r_epik_Ionization_Penalty>  (60) 
1.02484e-11

>  <r_epik_Ionization_Penalty_Charging>  (60) 
0

>  <r_epik_Ionization_Penalty_Neutral>  (60) 
1.02484e-11

>  <r_epik_State_Penalty>  (60) 
-0

>  <r_epik_Charging_Adjusted_Penalty>  (60) 
0

>  <i_epik_Tot_Q>  (60) 
0

>  <i_epik_Tot_abs_Q>  (60) 
0

>  <s_epik_Chemistry_Notes>  (60) 
This compound has an ester and may undergo hydrolysis at high or low pH.

>  <s_lp_Force_Field>  (60) 
OPLS3e

>  <r_lp_Energy>  (60) 
111.07

>  <b_lp_Chiralities_Consistent>  (60) 
1

>  <s_lp_Variant>  (60) 
19:0-1

>  <s_i_glide_gridfile>  (60) 
pfpi4k_grid

>  <i_i_glide_lignum>  (60) 
23

>  <i_i_glide_rotatable_bonds>  (60) 
6

>  <r_i_docking_score>  (60) 
-1.06845

>  <r_i_glide_ligand_efficiency>  (60) 
-0.0248476

>  <r_i_glide_ligand_efficiency_sa>  (60) 
-0.0870511

>  <r_i_glide_ligand_efficiency_ln>  (60) 
-0.224407

>  <r_i_glide_gscore>  (60) 
-1.06845

>  <r_i_glide_lipo>  (60) 
-0.0862483

>  <r_i_glide_hbond>  (60) 
0

>  <r_i_glide_metal>  (60) 
-0

>  <r_i_glide_rewards>  (60) 
-0.0661127

>  <r_i_glide_evdw>  (60) 
-26.2762

>  <r_i_glide_ecoul>  (60) 
1.92833

>  <r_i_glide_erotb>  (60) 
0.121678

>  <r_i_glide_esite>  (60) 
-0.0132056

>  <r_i_glide_emodel>  (60) 
-23.2851

>  <r_i_glide_energy>  (60) 
-24.3478

>  <r_i_glide_einternal>  (60) 
3.56928

>  <r_i_glide_intrahb_reward>  (60) 
-0

>  <i_i_glide_confnum>  (60) 
1

>  <i_i_glide_posenum>  (60) 
3

>  <r_i_glide_eff_state_penalty>  (60) 
0

>  <ligand_id>  (60) 
19

>  <original_smiles>  (60) 
C=C1C2C3OCC4(C)C(=O)OCC4(C)C4CC=C(CCC(=O)OC)C3C2(C)C42OC(=O)C3(COC)CCC(C)C(C)C3C12

>  <smiles>  (60) 
[H]C([H])=C1C2([H])C3([H])C([H])(C([H])([H])[H])C([H])(C([H])([H])[H])C([H])([H])C([H])([H])C3(C([H])([H])OC([H])([H])[H])C(=O)OC23C2([H])C([H])([H])C([H])=C(C([H])([H])C([H])([H])C(=O)OC([H])([H])[H])C4([H])C([H])(OC([H])([H])C5(C([H])([H])[H])C(=O)OC([H])([H])C25C([H])([H])[H])C1([H])C43C([H])([H])[H]

$$$$
20:0:0
     RDKit          3D

 12 13  0  0  1  0  0  0  0  0999 V2000
    2.1996   -3.0511   -3.8194 N   0  0  0  0  0  0  0  0  0  0  0  0
    3.3514   -3.0129   -3.0288 C   0  0  0  0  0  0  0  0  0  0  0  0
    4.5180   -2.6224   -3.5428 N   0  0  0  0  0  0  0  0  0  0  0  0
    5.6638   -2.7335   -2.2784 S   0  0  0  0  0  0  0  0  0  0  0  0
    4.5204   -3.2952   -1.0796 C   0  0  0  0  0  0  0  0  0  0  0  0
    4.3373   -3.6699    0.1552 N   0  0  0  0  0  0  0  0  0  0  0  0
    2.9946   -3.9783    0.1880 C   0  0  0  0  0  0  0  0  0  0  0  0
    2.3258   -3.8059   -0.9568 N   0  0  0  0  0  0  0  0  0  0  0  0
    3.3376   -3.3704   -1.7246 N   0  0  0  0  0  0  0  0  0  0  0  0
    2.2311   -2.7617   -4.7912 H   0  0  0  0  0  0  0  0  0  0  0  0
    2.4750   -4.3339    1.0713 H   0  0  0  0  0  0  0  0  0  0  0  0
    1.3078   -3.4249   -3.4928 H   0  0  0  0  0  0  0  0  0  0  0  0
  1  2  1  0
  1 10  1  0
  1 12  1  0
  2  9  1  0
  2  3  2  0
  3  4  1  0
  4  5  1  0
  5  9  1  0
  5  6  2  0
  6  7  1  0
  7  8  2  0
  7 11  1  0
  8  9  1  0
M  END
>  <i_m_ct_stereo_status>  (61) 
1

>  <s_m_source_file>  (61) 
/var/tmp/pbs.5076255.sched01/tmp8nmo4hef/06hb_edth.sdf

>  <i_m_source_file_index>  (61) 
24

>  <i_lp_mmshare_version>  (61) 
48012

>  <i_f3d_flags>  (61) 
0

>  <s_epik_input>  (61) 
czFbbkhdL2MoPU5cW0hdKW4oYzEyKW5bY0hdbjI=

>  <s_epik_cmdline>  (61) 
J2VwaWtfcHl0aG9uJywgJy1waHQnLCAnMi4wJywgJy1waCcsICc3LjAnLCAnLXRuJywgJzgnLCAnLW1hJywgJzIwMCcsICctaW1hZScsICc8aW5maWxlLm1hZT4nLCAnLW9tYWUnLCAnPG91dGZpbGUubWFlPic=

>  <r_epik_Ionization_Penalty>  (61) 
0.00293356

>  <r_epik_Ionization_Penalty_Charging>  (61) 
0

>  <r_epik_Ionization_Penalty_Neutral>  (61) 
0.00293356

>  <r_epik_State_Penalty>  (61) 
0.00204656

>  <r_epik_Charging_Adjusted_Penalty>  (61) 
0.00204656

>  <i_epik_Tot_Q>  (61) 
0

>  <i_epik_Tot_abs_Q>  (61) 
0

>  <s_lp_Force_Field>  (61) 
OPLS3e

>  <r_lp_Energy>  (61) 
-1.00274

>  <b_lp_Chiralities_Consistent>  (61) 
1

>  <s_lp_Variant>  (61) 
20:0-1

>  <s_i_glide_gridfile>  (61) 
pfpi4k_grid

>  <i_i_glide_lignum>  (61) 
24

>  <i_i_glide_rotatable_bonds>  (61) 
0

>  <r_i_docking_score>  (61) 
-4.42226

>  <r_i_glide_ligand_efficiency>  (61) 
-0.491362

>  <r_i_glide_ligand_efficiency_sa>  (61) 
-1.02207

>  <r_i_glide_ligand_efficiency_ln>  (61) 
-1.38315

>  <r_i_glide_gscore>  (61) 
-4.42226

>  <r_i_glide_lipo>  (61) 
-0.0786294

>  <r_i_glide_hbond>  (61) 
-0.576595

>  <r_i_glide_metal>  (61) 
-0

>  <r_i_glide_rewards>  (61) 
-2.39475

>  <r_i_glide_evdw>  (61) 
-16.5296

>  <r_i_glide_ecoul>  (61) 
-3.50971

>  <r_i_glide_erotb>  (61) 
0

>  <r_i_glide_esite>  (61) 
-0.0193503

>  <r_i_glide_emodel>  (61) 
-25.9323

>  <r_i_glide_energy>  (61) 
-20.0393

>  <r_i_glide_einternal>  (61) 
0

>  <r_i_glide_intrahb_reward>  (61) 
-0

>  <i_i_glide_confnum>  (61) 
1

>  <i_i_glide_posenum>  (61) 
6

>  <r_i_glide_eff_state_penalty>  (61) 
0

>  <ligand_id>  (61) 
20

>  <original_smiles>  (61) 
N=c1[nH]sc2ncnn12

>  <smiles>  (61) 
[H]c1nc2snc(N([H])[H])n2n1

$$$$
20:0:1
     RDKit          3D

 12 13  0  0  1  0  0  0  0  0999 V2000
    2.2189   -3.1099   -3.8630 N   0  0  0  0  0  0  0  0  0  0  0  0
    3.0545   -2.4916   -2.9381 C   0  0  0  0  0  0  0  0  0  0  0  0
    3.8754   -1.5097   -3.3308 N   0  0  0  0  0  0  0  0  0  0  0  0
    4.7499   -1.0394   -1.9387 S   0  0  0  0  0  0  0  0  0  0  0  0
    3.9908   -2.1773   -0.8609 C   0  0  0  0  0  0  0  0  0  0  0  0
    3.9426   -2.6479    0.3520 N   0  0  0  0  0  0  0  0  0  0  0  0
    2.9773   -3.6280    0.2575 C   0  0  0  0  0  0  0  0  0  0  0  0
    2.4133   -3.7873   -0.9490 N   0  0  0  0  0  0  0  0  0  0  0  0
    3.1034   -2.8470   -1.6251 N   0  0  0  0  0  0  0  0  0  0  0  0
    2.1750   -2.7311   -4.8034 H   0  0  0  0  0  0  0  0  0  0  0  0
    2.6653   -4.2298    1.1037 H   0  0  0  0  0  0  0  0  0  0  0  0
    1.5364   -3.8289   -3.6263 H   0  0  0  0  0  0  0  0  0  0  0  0
  1  2  1  0
  1 10  1  0
  1 12  1  0
  2  9  1  0
  2  3  2  0
  3  4  1  0
  4  5  1  0
  5  9  1  0
  5  6  2  0
  6  7  1  0
  7  8  2  0
  7 11  1  0
  8  9  1  0
M  END
>  <i_m_ct_stereo_status>  (62) 
1

>  <s_m_source_file>  (62) 
/var/tmp/pbs.5076255.sched01/tmp8nmo4hef/06hb_edth.sdf

>  <i_m_source_file_index>  (62) 
24

>  <i_lp_mmshare_version>  (62) 
48012

>  <i_f3d_flags>  (62) 
0

>  <s_epik_input>  (62) 
czFbbkhdL2MoPU5cW0hdKW4oYzEyKW5bY0hdbjI=

>  <s_epik_cmdline>  (62) 
J2VwaWtfcHl0aG9uJywgJy1waHQnLCAnMi4wJywgJy1waCcsICc3LjAnLCAnLXRuJywgJzgnLCAnLW1hJywgJzIwMCcsICctaW1hZScsICc8aW5maWxlLm1hZT4nLCAnLW9tYWUnLCAnPG91dGZpbGUubWFlPic=

>  <r_epik_Ionization_Penalty>  (62) 
0.00293356

>  <r_epik_Ionization_Penalty_Charging>  (62) 
0

>  <r_epik_Ionization_Penalty_Neutral>  (62) 
0.00293356

>  <r_epik_State_Penalty>  (62) 
0.00204656

>  <r_epik_Charging_Adjusted_Penalty>  (62) 
0.00204656

>  <i_epik_Tot_Q>  (62) 
0

>  <i_epik_Tot_abs_Q>  (62) 
0

>  <s_lp_Force_Field>  (62) 
OPLS3e

>  <r_lp_Energy>  (62) 
-1.00274

>  <b_lp_Chiralities_Consistent>  (62) 
1

>  <s_lp_Variant>  (62) 
20:0-1

>  <s_i_glide_gridfile>  (62) 
pfpi4k_grid

>  <i_i_glide_lignum>  (62) 
24

>  <i_i_glide_rotatable_bonds>  (62) 
0

>  <r_i_docking_score>  (62) 
-4.34188

>  <r_i_glide_ligand_efficiency>  (62) 
-0.482432

>  <r_i_glide_ligand_efficiency_sa>  (62) 
-1.0035

>  <r_i_glide_ligand_efficiency_ln>  (62) 
-1.35802

>  <r_i_glide_gscore>  (62) 
-4.34188

>  <r_i_glide_lipo>  (62) 
0

>  <r_i_glide_hbond>  (62) 
-0.608

>  <r_i_glide_metal>  (62) 
-0

>  <r_i_glide_rewards>  (62) 
-2.25

>  <r_i_glide_evdw>  (62) 
-17.033

>  <r_i_glide_ecoul>  (62) 
-3.75314

>  <r_i_glide_erotb>  (62) 
0

>  <r_i_glide_esite>  (62) 
-0.0692638

>  <r_i_glide_emodel>  (62) 
-26.5693

>  <r_i_glide_energy>  (62) 
-20.7861

>  <r_i_glide_einternal>  (62) 
0

>  <r_i_glide_intrahb_reward>  (62) 
-0

>  <i_i_glide_confnum>  (62) 
1

>  <i_i_glide_posenum>  (62) 
2

>  <r_i_glide_eff_state_penalty>  (62) 
0

>  <ligand_id>  (62) 
20

>  <original_smiles>  (62) 
N=c1[nH]sc2ncnn12

>  <smiles>  (62) 
[H]c1nc2snc(N([H])[H])n2n1

$$$$
20:0:2
     RDKit          3D

 12 13  0  0  1  0  0  0  0  0999 V2000
   -0.2757    2.0847    2.2776 N   0  0  0  0  0  0  0  0  0  0  0  0
   -0.9600    2.1525    3.4924 C   0  0  0  0  0  0  0  0  0  0  0  0
   -1.4515    3.3093    3.9388 N   0  0  0  0  0  0  0  0  0  0  0  0
   -2.1707    2.9941    5.4539 S   0  0  0  0  0  0  0  0  0  0  0  0
   -1.7899    1.2867    5.4537 C   0  0  0  0  0  0  0  0  0  0  0  0
   -1.8794    0.1454    6.0823 N   0  0  0  0  0  0  0  0  0  0  0  0
   -1.2632   -0.7377    5.2190 C   0  0  0  0  0  0  0  0  0  0  0  0
   -0.7876   -0.2175    4.0861 N   0  0  0  0  0  0  0  0  0  0  0  0
   -1.1457    1.0688    4.2847 N   0  0  0  0  0  0  0  0  0  0  0  0
   -0.1727    2.9443    1.7376 H   0  0  0  0  0  0  0  0  0  0  0  0
   -1.1743   -1.7988    5.4296 H   0  0  0  0  0  0  0  0  0  0  0  0
    0.0775    1.2362    1.8514 H   0  0  0  0  0  0  0  0  0  0  0  0
  1  2  1  0
  1 10  1  0
  1 12  1  0
  2  9  1  0
  2  3  2  0
  3  4  1  0
  4  5  1  0
  5  9  1  0
  5  6  2  0
  6  7  1  0
  7  8  2  0
  7 11  1  0
  8  9  1  0
M  END
>  <i_m_ct_stereo_status>  (63) 
1

>  <s_m_source_file>  (63) 
/var/tmp/pbs.5076255.sched01/tmp8nmo4hef/06hb_edth.sdf

>  <i_m_source_file_index>  (63) 
24

>  <i_lp_mmshare_version>  (63) 
48012

>  <i_f3d_flags>  (63) 
0

>  <s_epik_input>  (63) 
czFbbkhdL2MoPU5cW0hdKW4oYzEyKW5bY0hdbjI=

>  <s_epik_cmdline>  (63) 
J2VwaWtfcHl0aG9uJywgJy1waHQnLCAnMi4wJywgJy1waCcsICc3LjAnLCAnLXRuJywgJzgnLCAnLW1hJywgJzIwMCcsICctaW1hZScsICc8aW5maWxlLm1hZT4nLCAnLW9tYWUnLCAnPG91dGZpbGUubWFlPic=

>  <r_epik_Ionization_Penalty>  (63) 
0.00293356

>  <r_epik_Ionization_Penalty_Charging>  (63) 
0

>  <r_epik_Ionization_Penalty_Neutral>  (63) 
0.00293356

>  <r_epik_State_Penalty>  (63) 
0.00204656

>  <r_epik_Charging_Adjusted_Penalty>  (63) 
0.00204656

>  <i_epik_Tot_Q>  (63) 
0

>  <i_epik_Tot_abs_Q>  (63) 
0

>  <s_lp_Force_Field>  (63) 
OPLS3e

>  <r_lp_Energy>  (63) 
-1.00274

>  <b_lp_Chiralities_Consistent>  (63) 
1

>  <s_lp_Variant>  (63) 
20:0-1

>  <s_i_glide_gridfile>  (63) 
pfpi4k_grid

>  <i_i_glide_lignum>  (63) 
24

>  <i_i_glide_rotatable_bonds>  (63) 
0

>  <r_i_docking_score>  (63) 
-4.12364

>  <r_i_glide_ligand_efficiency>  (63) 
-0.458182

>  <r_i_glide_ligand_efficiency_sa>  (63) 
-0.953057

>  <r_i_glide_ligand_efficiency_ln>  (63) 
-1.28976

>  <r_i_glide_gscore>  (63) 
-4.12364

>  <r_i_glide_lipo>  (63) 
-0.00653647

>  <r_i_glide_hbond>  (63) 
-0.32

>  <r_i_glide_metal>  (63) 
-0

>  <r_i_glide_rewards>  (63) 
-2.25

>  <r_i_glide_evdw>  (63) 
-12.1206

>  <r_i_glide_ecoul>  (63) 
-4.71997

>  <r_i_glide_erotb>  (63) 
0

>  <r_i_glide_esite>  (63) 
-0.233078

>  <r_i_glide_emodel>  (63) 
-22.3294

>  <r_i_glide_energy>  (63) 
-16.8406

>  <r_i_glide_einternal>  (63) 
0

>  <r_i_glide_intrahb_reward>  (63) 
-0

>  <i_i_glide_confnum>  (63) 
2

>  <i_i_glide_posenum>  (63) 
37

>  <r_i_glide_eff_state_penalty>  (63) 
0

>  <ligand_id>  (63) 
20

>  <original_smiles>  (63) 
N=c1[nH]sc2ncnn12

>  <smiles>  (63) 
[H]c1nc2snc(N([H])[H])n2n1

$$$$
21:0:0
     RDKit          3D

 44 47  0  0  1  0  0  0  0  0999 V2000
    2.3862  -10.8149    3.3422 C   0  0  0  0  0  0  0  0  0  0  0  0
    3.3788  -10.2526    2.3959 N   0  0  0  0  0  0  0  0  0  0  0  0
    4.7730  -10.4107    2.8765 C   0  0  0  0  0  0  0  0  0  0  0  0
    5.7854   -9.8898    1.8426 C   0  0  0  0  0  0  0  0  0  0  0  0
    5.4338   -8.5258    1.4385 N   0  0  0  0  0  0  0  0  0  0  0  0
    6.3494   -7.4608    1.5662 C   0  0  0  0  0  0  0  0  0  0  0  0
    7.4361   -7.6298    2.3442 N   0  0  0  0  0  0  0  0  0  0  0  0
    8.3209   -6.6287    2.4148 C   0  0  0  0  0  0  0  0  0  0  0  0
    8.2795   -5.4317    1.8097 N   0  0  0  0  0  0  0  0  0  0  0  0
    7.1920   -5.2271    1.0489 C   0  0  0  0  0  0  0  0  0  0  0  0
    6.8395   -4.0695    0.2831 C   0  0  0  0  0  0  0  0  0  0  0  0
    7.5675   -2.7542    0.1747 C   0  0  0  0  0  0  0  0  0  0  0  0
    8.8546   -2.8840    0.4766 F   0  0  0  0  0  0  0  0  0  0  0  0
    7.5044   -2.2559   -1.0536 F   0  0  0  0  0  0  0  0  0  0  0  0
    7.0005   -1.8838    1.0031 F   0  0  0  0  0  0  0  0  0  0  0  0
    5.6442   -4.4638   -0.2978 C   0  0  0  0  0  0  0  0  0  0  0  0
    4.7288   -3.8004   -1.2238 C   0  0  0  0  0  0  0  0  0  0  0  0
    5.1965   -3.2610   -2.4436 C   0  0  0  0  0  0  0  0  0  0  0  0
    4.3152   -2.6321   -3.3407 C   0  0  0  0  0  0  0  0  0  0  0  0
    2.9449   -2.5635   -3.0480 C   0  0  0  0  0  0  0  0  0  0  0  0
    2.4656   -3.1222   -1.8519 C   0  0  0  0  0  0  0  0  0  0  0  0
    3.3467   -3.7342   -0.9404 C   0  0  0  0  0  0  0  0  0  0  0  0
    2.8491   -4.2929    0.1908 F   0  0  0  0  0  0  0  0  0  0  0  0
    5.2626   -5.7422    0.0460 O   0  0  0  0  0  0  0  0  0  0  0  0
    6.2203   -6.2247    0.9053 C   0  0  0  0  0  0  0  0  0  0  0  0
    4.0544   -8.2934    1.0195 C   0  0  0  0  0  0  0  0  0  0  0  0
    3.0723   -8.8381    2.0581 C   0  0  0  0  0  0  0  0  0  0  0  0
    2.4325  -10.2877    4.2960 H   0  0  0  0  0  0  0  0  0  0  0  0
    2.5813  -11.8738    3.5286 H   0  0  0  0  0  0  0  0  0  0  0  0
    1.3668  -10.7239    2.9570 H   0  0  0  0  0  0  0  0  0  0  0  0
    4.8922   -9.8604    3.8107 H   0  0  0  0  0  0  0  0  0  0  0  0
    4.9720  -11.4629    3.0901 H   0  0  0  0  0  0  0  0  0  0  0  0
    6.7899   -9.9896    2.2623 H   0  0  0  0  0  0  0  0  0  0  0  0
    5.7773  -10.5178    0.9516 H   0  0  0  0  0  0  0  0  0  0  0  0
    9.1703   -6.7972    3.0562 H   0  0  0  0  0  0  0  0  0  0  0  0
    6.2359   -3.3485   -2.7176 H   0  0  0  0  0  0  0  0  0  0  0  0
    4.6758   -2.1972   -4.2566 H   0  0  0  0  0  0  0  0  0  0  0  0
    2.2602   -2.0833   -3.7316 H   0  0  0  0  0  0  0  0  0  0  0  0
    1.4086   -3.0777   -1.6417 H   0  0  0  0  0  0  0  0  0  0  0  0
    3.8095   -7.2420    0.8816 H   0  0  0  0  0  0  0  0  0  0  0  0
    3.8959   -8.7870    0.0650 H   0  0  0  0  0  0  0  0  0  0  0  0
    2.0503   -8.7331    1.6872 H   0  0  0  0  0  0  0  0  0  0  0  0
    3.1364   -8.2295    2.9596 H   0  0  0  0  0  0  0  0  0  0  0  0
    3.3457  -10.7942    1.5353 H   0  0  0  0  0  0  0  0  0  0  0  0
  1  2  1  0
  1 28  1  0
  1 29  1  0
  1 30  1  0
  2 27  1  0
  2  3  1  0
  2 44  1  0
  3  4  1  0
  3 31  1  0
  3 32  1  0
  4  5  1  0
  4 33  1  0
  4 34  1  0
  5  6  1  0
  5 26  1  0
  6 25  1  0
  6  7  2  0
  7  8  1  0
  8  9  2  0
  8 35  1  0
  9 10  1  0
 10 25  2  0
 10 11  1  0
 11 12  1  0
 11 16  2  0
 12 13  1  0
 12 14  1  0
 12 15  1  0
 16 17  1  0
 16 24  1  0
 17 22  1  0
 17 18  2  0
 18 19  1  0
 18 36  1  0
 19 20  2  0
 19 37  1  0
 20 21  1  0
 20 38  1  0
 21 22  2  0
 21 39  1  0
 22 23  1  0
 24 25  1  0
 26 27  1  0
 26 40  1  0
 26 41  1  0
 27 42  1  0
 27 43  1  0
M  CHG  1   2   1
M  END
>  <i_m_ct_stereo_status>  (64) 
1

>  <s_m_source_file>  (64) 
/var/tmp/pbs.5076255.sched01/tmp8nmo4hef/06hb_edth.sdf

>  <i_m_source_file_index>  (64) 
25

>  <i_lp_mmshare_version>  (64) 
48012

>  <i_f3d_flags>  (64) 
0

>  <s_epik_input>  (64) 
W0NIM11OMVtDSDJdW0NIMl1OKFtDSDJdW0NIMl0xKWMobltjSF1uMiljKGMyMylvYyhjM0MoRikoRilGKS1jNFtjSF1bY0hdW2NIXVtjSF1jNEY=

>  <s_epik_cmdline>  (64) 
J2VwaWtfcHl0aG9uJywgJy1waHQnLCAnMi4wJywgJy1waCcsICc3LjAnLCAnLXRuJywgJzgnLCAnLW1hJywgJzIwMCcsICctaW1hZScsICc8aW5maWxlLm1hZT4nLCAnLW9tYWUnLCAnPG91dGZpbGUubWFlPic=

>  <r_epik_Ionization_Penalty>  (64) 
0.186631

>  <r_epik_Ionization_Penalty_Charging>  (64) 
0.186631

>  <r_epik_Ionization_Penalty_Neutral>  (64) 
3.43231e-07

>  <r_epik_State_Penalty>  (64) 
0.176218

>  <r_epik_Charging_Adjusted_Penalty>  (64) 
0.362848

>  <i_epik_Tot_Q>  (64) 
1

>  <i_epik_Tot_abs_Q>  (64) 
1

>  <s_lp_Force_Field>  (64) 
OPLS3e

>  <r_lp_Energy>  (64) 
47.2951

>  <b_lp_Chiralities_Consistent>  (64) 
1

>  <s_lp_Variant>  (64) 
21:0-1

>  <s_i_glide_gridfile>  (64) 
pfpi4k_grid

>  <i_i_glide_lignum>  (64) 
25

>  <i_i_glide_rotatable_bonds>  (64) 
3

>  <r_i_docking_score>  (64) 
-4.07341

>  <r_i_glide_ligand_efficiency>  (64) 
-0.150867

>  <r_i_glide_ligand_efficiency_sa>  (64) 
-0.452602

>  <r_i_glide_ligand_efficiency_ln>  (64) 
-0.948224

>  <r_i_glide_gscore>  (64) 
-4.07341

>  <r_i_glide_lipo>  (64) 
-1.02861

>  <r_i_glide_hbond>  (64) 
-0.2

>  <r_i_glide_metal>  (64) 
-0

>  <r_i_glide_rewards>  (64) 
-0.966438

>  <r_i_glide_evdw>  (64) 
-29.1323

>  <r_i_glide_ecoul>  (64) 
-3.11932

>  <r_i_glide_erotb>  (64) 
0.266942

>  <r_i_glide_esite>  (64) 
-0.220793

>  <r_i_glide_emodel>  (64) 
-42.4662

>  <r_i_glide_energy>  (64) 
-32.2516

>  <r_i_glide_einternal>  (64) 
1.42169

>  <r_i_glide_intrahb_reward>  (64) 
-0

>  <i_i_glide_confnum>  (64) 
5

>  <i_i_glide_posenum>  (64) 
29

>  <r_i_glide_eff_state_penalty>  (64) 
0

>  <ligand_id>  (64) 
21

>  <original_smiles>  (64) 
CN1CCN(c2ncnc3c(C(F)(F)F)c(-c4ccccc4F)oc23)CC1

>  <smiles>  (64) 
[H]c1nc(N2C([H])([H])C([H])([H])[N+]([H])(C([H])([H])[H])C([H])([H])C2([H])[H])c2oc(-c3c([H])c([H])c([H])c([H])c3F)c(C(F)(F)F)c2n1

$$$$
21:0:1
     RDKit          3D

 44 47  0  0  1  0  0  0  0  0999 V2000
    0.4262  -10.3990    3.6898 C   0  0  0  0  0  0  0  0  0  0  0  0
    1.3196   -9.7631    2.6949 N   0  0  0  0  0  0  0  0  0  0  0  0
    2.6533  -10.4203    2.6534 C   0  0  0  0  0  0  0  0  0  0  0  0
    3.5500   -9.7960    1.5743 C   0  0  0  0  0  0  0  0  0  0  0  0
    3.5719   -8.3455    1.6998 N   0  0  0  0  0  0  0  0  0  0  0  0
    4.7942   -7.6633    1.8149 C   0  0  0  0  0  0  0  0  0  0  0  0
    5.7349   -8.1488    2.6433 N   0  0  0  0  0  0  0  0  0  0  0  0
    6.8766   -7.4571    2.7431 C   0  0  0  0  0  0  0  0  0  0  0  0
    7.2294   -6.3219    2.1186 N   0  0  0  0  0  0  0  0  0  0  0  0
    6.3061   -5.8333    1.2724 C   0  0  0  0  0  0  0  0  0  0  0  0
    6.3780   -4.6676    0.4389 C   0  0  0  0  0  0  0  0  0  0  0  0
    7.5170   -3.6628    0.3408 C   0  0  0  0  0  0  0  0  0  0  0  0
    8.5893   -4.0686    1.0272 F   0  0  0  0  0  0  0  0  0  0  0  0
    7.9108   -3.4248   -0.9002 F   0  0  0  0  0  0  0  0  0  0  0  0
    7.1059   -2.5139    0.8670 F   0  0  0  0  0  0  0  0  0  0  0  0
    5.1343   -4.6952   -0.1899 C   0  0  0  0  0  0  0  0  0  0  0  0
    4.4952   -3.8122   -1.1770 C   0  0  0  0  0  0  0  0  0  0  0  0
    5.2534   -3.1905   -2.2018 C   0  0  0  0  0  0  0  0  0  0  0  0
    4.6409   -2.3486   -3.1440 C   0  0  0  0  0  0  0  0  0  0  0  0
    3.2522   -2.1536   -3.1406 C   0  0  0  0  0  0  0  0  0  0  0  0
    2.4806   -2.8171   -2.1713 C   0  0  0  0  0  0  0  0  0  0  0  0
    3.0873   -3.6113   -1.1762 C   0  0  0  0  0  0  0  0  0  0  0  0
    2.2916   -4.2270   -0.2638 F   0  0  0  0  0  0  0  0  0  0  0  0
    4.3503   -5.7741    0.1840 O   0  0  0  0  0  0  0  0  0  0  0  0
    5.0797   -6.4823    1.1099 C   0  0  0  0  0  0  0  0  0  0  0  0
    2.3085   -7.6346    1.8254 C   0  0  0  0  0  0  0  0  0  0  0  0
    1.4398   -8.2971    2.9129 C   0  0  0  0  0  0  0  0  0  0  0  0
    0.8460  -10.2985    4.6937 H   0  0  0  0  0  0  0  0  0  0  0  0
    0.3025  -11.4635    3.4833 H   0  0  0  0  0  0  0  0  0  0  0  0
   -0.5642   -9.9382    3.6878 H   0  0  0  0  0  0  0  0  0  0  0  0
    3.1348  -10.3111    3.6261 H   0  0  0  0  0  0  0  0  0  0  0  0
    2.5500  -11.4921    2.4816 H   0  0  0  0  0  0  0  0  0  0  0  0
    4.5506  -10.2349    1.6117 H   0  0  0  0  0  0  0  0  0  0  0  0
    3.1444  -10.0150    0.5873 H   0  0  0  0  0  0  0  0  0  0  0  0
    7.6146   -7.8447    3.4339 H   0  0  0  0  0  0  0  0  0  0  0  0
    6.3006   -3.3705   -2.3293 H   0  0  0  0  0  0  0  0  0  0  0  0
    5.2334   -1.8608   -3.8919 H   0  0  0  0  0  0  0  0  0  0  0  0
    2.7827   -1.5178   -3.8761 H   0  0  0  0  0  0  0  0  0  0  0  0
    1.4115   -2.6919   -2.1867 H   0  0  0  0  0  0  0  0  0  0  0  0
    2.4718   -6.5781    2.0560 H   0  0  0  0  0  0  0  0  0  0  0  0
    1.7809   -7.6709    0.8811 H   0  0  0  0  0  0  0  0  0  0  0  0
    0.4522   -7.8347    2.9312 H   0  0  0  0  0  0  0  0  0  0  0  0
    1.8886   -8.1225    3.8930 H   0  0  0  0  0  0  0  0  0  0  0  0
    0.9002   -9.8861    1.7794 H   0  0  0  0  0  0  0  0  0  0  0  0
  1  2  1  0
  1 28  1  0
  1 29  1  0
  1 30  1  0
  2 27  1  0
  2  3  1  0
  2 44  1  0
  3  4  1  0
  3 31  1  0
  3 32  1  0
  4  5  1  0
  4 33  1  0
  4 34  1  0
  5  6  1  0
  5 26  1  0
  6 25  1  0
  6  7  2  0
  7  8  1  0
  8  9  2  0
  8 35  1  0
  9 10  1  0
 10 25  2  0
 10 11  1  0
 11 12  1  0
 11 16  2  0
 12 13  1  0
 12 14  1  0
 12 15  1  0
 16 17  1  0
 16 24  1  0
 17 22  1  0
 17 18  2  0
 18 19  1  0
 18 36  1  0
 19 20  2  0
 19 37  1  0
 20 21  1  0
 20 38  1  0
 21 22  2  0
 21 39  1  0
 22 23  1  0
 24 25  1  0
 26 27  1  0
 26 40  1  0
 26 41  1  0
 27 42  1  0
 27 43  1  0
M  CHG  1   2   1
M  END
>  <i_m_ct_stereo_status>  (65) 
1

>  <s_m_source_file>  (65) 
/var/tmp/pbs.5076255.sched01/tmp8nmo4hef/06hb_edth.sdf

>  <i_m_source_file_index>  (65) 
25

>  <i_lp_mmshare_version>  (65) 
48012

>  <i_f3d_flags>  (65) 
0

>  <s_epik_input>  (65) 
W0NIM11OMVtDSDJdW0NIMl1OKFtDSDJdW0NIMl0xKWMobltjSF1uMiljKGMyMylvYyhjM0MoRikoRilGKS1jNFtjSF1bY0hdW2NIXVtjSF1jNEY=

>  <s_epik_cmdline>  (65) 
J2VwaWtfcHl0aG9uJywgJy1waHQnLCAnMi4wJywgJy1waCcsICc3LjAnLCAnLXRuJywgJzgnLCAnLW1hJywgJzIwMCcsICctaW1hZScsICc8aW5maWxlLm1hZT4nLCAnLW9tYWUnLCAnPG91dGZpbGUubWFlPic=

>  <r_epik_Ionization_Penalty>  (65) 
0.186631

>  <r_epik_Ionization_Penalty_Charging>  (65) 
0.186631

>  <r_epik_Ionization_Penalty_Neutral>  (65) 
3.43231e-07

>  <r_epik_State_Penalty>  (65) 
0.176218

>  <r_epik_Charging_Adjusted_Penalty>  (65) 
0.362848

>  <i_epik_Tot_Q>  (65) 
1

>  <i_epik_Tot_abs_Q>  (65) 
1

>  <s_lp_Force_Field>  (65) 
OPLS3e

>  <r_lp_Energy>  (65) 
47.2951

>  <b_lp_Chiralities_Consistent>  (65) 
1

>  <s_lp_Variant>  (65) 
21:0-1

>  <s_i_glide_gridfile>  (65) 
pfpi4k_grid

>  <i_i_glide_lignum>  (65) 
25

>  <i_i_glide_rotatable_bonds>  (65) 
3

>  <r_i_docking_score>  (65) 
-3.64465

>  <r_i_glide_ligand_efficiency>  (65) 
-0.134987

>  <r_i_glide_ligand_efficiency_sa>  (65) 
-0.404961

>  <r_i_glide_ligand_efficiency_ln>  (65) 
-0.848415

>  <r_i_glide_gscore>  (65) 
-3.64465

>  <r_i_glide_lipo>  (65) 
-0.930394

>  <r_i_glide_hbond>  (65) 
0

>  <r_i_glide_metal>  (65) 
-0

>  <r_i_glide_rewards>  (65) 
-1.0969

>  <r_i_glide_evdw>  (65) 
-27.6574

>  <r_i_glide_ecoul>  (65) 
-2.83331

>  <r_i_glide_erotb>  (65) 
0.266942

>  <r_i_glide_esite>  (65) 
-0.0764312

>  <r_i_glide_emodel>  (65) 
-38.5947

>  <r_i_glide_energy>  (65) 
-30.4908

>  <r_i_glide_einternal>  (65) 
2.38999

>  <r_i_glide_intrahb_reward>  (65) 
-0

>  <i_i_glide_confnum>  (65) 
5

>  <i_i_glide_posenum>  (65) 
1

>  <r_i_glide_eff_state_penalty>  (65) 
0

>  <ligand_id>  (65) 
21

>  <original_smiles>  (65) 
CN1CCN(c2ncnc3c(C(F)(F)F)c(-c4ccccc4F)oc23)CC1

>  <smiles>  (65) 
[H]c1nc(N2C([H])([H])C([H])([H])[N+]([H])(C([H])([H])[H])C([H])([H])C2([H])[H])c2oc(-c3c([H])c([H])c([H])c([H])c3F)c(C(F)(F)F)c2n1

$$$$
21:0:2
     RDKit          3D

 44 47  0  0  1  0  0  0  0  0999 V2000
   -1.4410   -9.3856    2.6263 C   0  0  0  0  0  0  0  0  0  0  0  0
   -0.1475   -8.6693    2.5536 N   0  0  0  0  0  0  0  0  0  0  0  0
    0.3334   -8.2740    3.9039 C   0  0  0  0  0  0  0  0  0  0  0  0
    1.7072   -7.5895    3.8317 C   0  0  0  0  0  0  0  0  0  0  0  0
    1.6845   -6.5168    2.8363 N   0  0  0  0  0  0  0  0  0  0  0  0
    2.0772   -5.2087    3.1741 C   0  0  0  0  0  0  0  0  0  0  0  0
    1.9289   -4.7978    4.4492 N   0  0  0  0  0  0  0  0  0  0  0  0
    2.2974   -3.5441    4.7451 C   0  0  0  0  0  0  0  0  0  0  0  0
    2.7946   -2.6012    3.9315 N   0  0  0  0  0  0  0  0  0  0  0  0
    2.9465   -2.9878    2.6543 C   0  0  0  0  0  0  0  0  0  0  0  0
    3.4462   -2.2385    1.5448 C   0  0  0  0  0  0  0  0  0  0  0  0
    3.9071   -0.8031    1.5115 C   0  0  0  0  0  0  0  0  0  0  0  0
    4.8121   -0.5936    2.4623 F   0  0  0  0  0  0  0  0  0  0  0  0
    4.4564   -0.4999    0.3405 F   0  0  0  0  0  0  0  0  0  0  0  0
    2.8706    0.0027    1.7155 F   0  0  0  0  0  0  0  0  0  0  0  0
    3.3707   -3.1661    0.5200 C   0  0  0  0  0  0  0  0  0  0  0  0
    3.7074   -3.0915   -0.8955 C   0  0  0  0  0  0  0  0  0  0  0  0
    2.6811   -3.0625   -1.8625 C   0  0  0  0  0  0  0  0  0  0  0  0
    2.9879   -3.0178   -3.2340 C   0  0  0  0  0  0  0  0  0  0  0  0
    4.3322   -2.9959   -3.6440 C   0  0  0  0  0  0  0  0  0  0  0  0
    5.3652   -3.0182   -2.6879 C   0  0  0  0  0  0  0  0  0  0  0  0
    5.0537   -3.0638   -1.3171 C   0  0  0  0  0  0  0  0  0  0  0  0
    6.0553   -3.0961   -0.4061 F   0  0  0  0  0  0  0  0  0  0  0  0
    2.8699   -4.3907    0.9072 O   0  0  0  0  0  0  0  0  0  0  0  0
    2.5968   -4.2848    2.2509 C   0  0  0  0  0  0  0  0  0  0  0  0
    1.1779   -6.8344    1.5050 C   0  0  0  0  0  0  0  0  0  0  0  0
   -0.1939   -7.5195    1.6161 C   0  0  0  0  0  0  0  0  0  0  0  0
   -2.2195   -8.7421    3.0358 H   0  0  0  0  0  0  0  0  0  0  0  0
   -1.3526  -10.2580    3.2605 H   0  0  0  0  0  0  0  0  0  0  0  0
   -1.7657   -9.7198    1.6428 H   0  0  0  0  0  0  0  0  0  0  0  0
   -0.3867   -7.5841    4.3467 H   0  0  0  0  0  0  0  0  0  0  0  0
    0.3808   -9.1452    4.5625 H   0  0  0  0  0  0  0  0  0  0  0  0
    1.9994   -7.2568    4.8322 H   0  0  0  0  0  0  0  0  0  0  0  0
    2.4641   -8.3092    3.5248 H   0  0  0  0  0  0  0  0  0  0  0  0
    2.1650   -3.2564    5.7756 H   0  0  0  0  0  0  0  0  0  0  0  0
    1.6462   -3.1010   -1.5584 H   0  0  0  0  0  0  0  0  0  0  0  0
    2.1963   -3.0145   -3.9680 H   0  0  0  0  0  0  0  0  0  0  0  0
    4.5684   -2.9625   -4.6940 H   0  0  0  0  0  0  0  0  0  0  0  0
    6.3943   -3.0036   -3.0150 H   0  0  0  0  0  0  0  0  0  0  0  0
    1.0786   -5.9460    0.8816 H   0  0  0  0  0  0  0  0  0  0  0  0
    1.8870   -7.4884    0.9998 H   0  0  0  0  0  0  0  0  0  0  0  0
   -0.5404   -7.8365    0.6301 H   0  0  0  0  0  0  0  0  0  0  0  0
   -0.9279   -6.8046    1.9834 H   0  0  0  0  0  0  0  0  0  0  0  0
    0.5304   -9.3167    2.1723 H   0  0  0  0  0  0  0  0  0  0  0  0
  1  2  1  0
  1 28  1  0
  1 29  1  0
  1 30  1  0
  2 27  1  0
  2  3  1  0
  2 44  1  0
  3  4  1  0
  3 31  1  0
  3 32  1  0
  4  5  1  0
  4 33  1  0
  4 34  1  0
  5  6  1  0
  5 26  1  0
  6 25  1  0
  6  7  2  0
  7  8  1  0
  8  9  2  0
  8 35  1  0
  9 10  1  0
 10 25  2  0
 10 11  1  0
 11 12  1  0
 11 16  2  0
 12 13  1  0
 12 14  1  0
 12 15  1  0
 16 17  1  0
 16 24  1  0
 17 22  1  0
 17 18  2  0
 18 19  1  0
 18 36  1  0
 19 20  2  0
 19 37  1  0
 20 21  1  0
 20 38  1  0
 21 22  2  0
 21 39  1  0
 22 23  1  0
 24 25  1  0
 26 27  1  0
 26 40  1  0
 26 41  1  0
 27 42  1  0
 27 43  1  0
M  CHG  1   2   1
M  END
>  <i_m_ct_stereo_status>  (66) 
1

>  <s_m_source_file>  (66) 
/var/tmp/pbs.5076255.sched01/tmp8nmo4hef/06hb_edth.sdf

>  <i_m_source_file_index>  (66) 
25

>  <i_lp_mmshare_version>  (66) 
48012

>  <i_f3d_flags>  (66) 
0

>  <s_epik_input>  (66) 
W0NIM11OMVtDSDJdW0NIMl1OKFtDSDJdW0NIMl0xKWMobltjSF1uMiljKGMyMylvYyhjM0MoRikoRilGKS1jNFtjSF1bY0hdW2NIXVtjSF1jNEY=

>  <s_epik_cmdline>  (66) 
J2VwaWtfcHl0aG9uJywgJy1waHQnLCAnMi4wJywgJy1waCcsICc3LjAnLCAnLXRuJywgJzgnLCAnLW1hJywgJzIwMCcsICctaW1hZScsICc8aW5maWxlLm1hZT4nLCAnLW9tYWUnLCAnPG91dGZpbGUubWFlPic=

>  <r_epik_Ionization_Penalty>  (66) 
0.186631

>  <r_epik_Ionization_Penalty_Charging>  (66) 
0.186631

>  <r_epik_Ionization_Penalty_Neutral>  (66) 
3.43231e-07

>  <r_epik_State_Penalty>  (66) 
0.176218

>  <r_epik_Charging_Adjusted_Penalty>  (66) 
0.362848

>  <i_epik_Tot_Q>  (66) 
1

>  <i_epik_Tot_abs_Q>  (66) 
1

>  <s_lp_Force_Field>  (66) 
OPLS3e

>  <r_lp_Energy>  (66) 
47.2951

>  <b_lp_Chiralities_Consistent>  (66) 
1

>  <s_lp_Variant>  (66) 
21:0-1

>  <s_i_glide_gridfile>  (66) 
pfpi4k_grid

>  <i_i_glide_lignum>  (66) 
25

>  <i_i_glide_rotatable_bonds>  (66) 
3

>  <r_i_docking_score>  (66) 
-3.23628

>  <r_i_glide_ligand_efficiency>  (66) 
-0.119862

>  <r_i_glide_ligand_efficiency_sa>  (66) 
-0.359587

>  <r_i_glide_ligand_efficiency_ln>  (66) 
-0.753352

>  <r_i_glide_gscore>  (66) 
-3.23628

>  <r_i_glide_lipo>  (66) 
-0.703793

>  <r_i_glide_hbond>  (66) 
0

>  <r_i_glide_metal>  (66) 
-0

>  <r_i_glide_rewards>  (66) 
-1.18924

>  <r_i_glide_evdw>  (66) 
-28.4628

>  <r_i_glide_ecoul>  (66) 
-0.796829

>  <r_i_glide_erotb>  (66) 
0.266942

>  <r_i_glide_esite>  (66) 
-0.0675247

>  <r_i_glide_emodel>  (66) 
-36.7128

>  <r_i_glide_energy>  (66) 
-29.2597

>  <r_i_glide_einternal>  (66) 
2.60034

>  <r_i_glide_intrahb_reward>  (66) 
-0

>  <i_i_glide_confnum>  (66) 
6

>  <i_i_glide_posenum>  (66) 
38

>  <r_i_glide_eff_state_penalty>  (66) 
0

>  <ligand_id>  (66) 
21

>  <original_smiles>  (66) 
CN1CCN(c2ncnc3c(C(F)(F)F)c(-c4ccccc4F)oc23)CC1

>  <smiles>  (66) 
[H]c1nc(N2C([H])([H])C([H])([H])[N+]([H])(C([H])([H])[H])C([H])([H])C2([H])[H])c2oc(-c3c([H])c([H])c([H])c([H])c3F)c(C(F)(F)F)c2n1

$$$$
21:1:0
     RDKit          3D

 43 46  0  0  1  0  0  0  0  0999 V2000
    2.7742   -2.6743   -2.8569 C   0  0  0  0  0  0  0  0  0  0  0  0
    3.6048   -2.8277   -1.6693 N   0  0  0  0  0  0  0  0  0  0  0  0
    2.9051   -3.6697   -0.6926 C   0  0  0  0  0  0  0  0  0  0  0  0
    3.7570   -3.8316    0.5834 C   0  0  0  0  0  0  0  0  0  0  0  0
    5.0804   -4.3254    0.2514 N   0  0  0  0  0  0  0  0  0  0  0  0
    5.6518   -5.4900    0.8508 C   0  0  0  0  0  0  0  0  0  0  0  0
    6.9922   -5.6168    0.8647 N   0  0  0  0  0  0  0  0  0  0  0  0
    7.4916   -6.7318    1.3999 C   0  0  0  0  0  0  0  0  0  0  0  0
    6.8527   -7.7905    1.9282 N   0  0  0  0  0  0  0  0  0  0  0  0
    5.4976   -7.6799    1.9206 C   0  0  0  0  0  0  0  0  0  0  0  0
    4.5200   -8.6310    2.3667 C   0  0  0  0  0  0  0  0  0  0  0  0
    4.8121  -10.0109    2.9614 C   0  0  0  0  0  0  0  0  0  0  0  0
    5.9758  -10.4759    2.4626 F   0  0  0  0  0  0  0  0  0  0  0  0
    4.9607   -9.8608    4.2800 F   0  0  0  0  0  0  0  0  0  0  0  0
    3.8561  -10.9102    2.7522 F   0  0  0  0  0  0  0  0  0  0  0  0
    3.3207   -7.9443    2.1181 C   0  0  0  0  0  0  0  0  0  0  0  0
    1.8891   -8.2356    2.3466 C   0  0  0  0  0  0  0  0  0  0  0  0
    1.5008   -9.3713    3.1290 C   0  0  0  0  0  0  0  0  0  0  0  0
    0.1474   -9.7255    3.2668 C   0  0  0  0  0  0  0  0  0  0  0  0
   -0.8801   -8.9049    2.7576 C   0  0  0  0  0  0  0  0  0  0  0  0
   -0.5097   -7.7368    2.0624 C   0  0  0  0  0  0  0  0  0  0  0  0
    0.8398   -7.3990    1.8265 C   0  0  0  0  0  0  0  0  0  0  0  0
    1.0877   -6.2573    1.1343 F   0  0  0  0  0  0  0  0  0  0  0  0
    3.5329   -6.7120    1.5136 O   0  0  0  0  0  0  0  0  0  0  0  0
    4.8966   -6.5330    1.3948 C   0  0  0  0  0  0  0  0  0  0  0  0
    5.7790   -3.5927   -0.7904 C   0  0  0  0  0  0  0  0  0  0  0  0
    4.8742   -3.4614   -2.0354 C   0  0  0  0  0  0  0  0  0  0  0  0
    1.8150   -2.2218   -2.5996 H   0  0  0  0  0  0  0  0  0  0  0  0
    2.5709   -3.6348   -3.3368 H   0  0  0  0  0  0  0  0  0  0  0  0
    3.2639   -2.0226   -3.5827 H   0  0  0  0  0  0  0  0  0  0  0  0
    1.9463   -3.2134   -0.4430 H   0  0  0  0  0  0  0  0  0  0  0  0
    2.6843   -4.6560   -1.0983 H   0  0  0  0  0  0  0  0  0  0  0  0
    3.8617   -2.8625    1.0754 H   0  0  0  0  0  0  0  0  0  0  0  0
    3.2202   -4.4485    1.2995 H   0  0  0  0  0  0  0  0  0  0  0  0
    8.5698   -6.8039    1.3843 H   0  0  0  0  0  0  0  0  0  0  0  0
    2.1833   -9.9928    3.6696 H   0  0  0  0  0  0  0  0  0  0  0  0
   -0.0892  -10.6210    3.8111 H   0  0  0  0  0  0  0  0  0  0  0  0
   -1.9109   -9.1733    2.9396 H   0  0  0  0  0  0  0  0  0  0  0  0
   -1.2964   -7.0827    1.6902 H   0  0  0  0  0  0  0  0  0  0  0  0
    6.0488   -2.6090   -0.3996 H   0  0  0  0  0  0  0  0  0  0  0  0
    6.7029   -4.0855   -1.0782 H   0  0  0  0  0  0  0  0  0  0  0  0
    4.6951   -4.4416   -2.4840 H   0  0  0  0  0  0  0  0  0  0  0  0
    5.3827   -2.8514   -2.7819 H   0  0  0  0  0  0  0  0  0  0  0  0
  1  2  1  0
  1 28  1  0
  1 29  1  0
  1 30  1  0
  2 27  1  0
  2  3  1  0
  3  4  1  0
  3 31  1  0
  3 32  1  0
  4  5  1  0
  4 33  1  0
  4 34  1  0
  5  6  1  0
  5 26  1  0
  6 25  1  0
  6  7  2  0
  7  8  1  0
  8  9  2  0
  8 35  1  0
  9 10  1  0
 10 25  2  0
 10 11  1  0
 11 12  1  0
 11 16  2  0
 12 13  1  0
 12 14  1  0
 12 15  1  0
 16 17  1  0
 16 24  1  0
 17 22  1  0
 17 18  2  0
 18 19  1  0
 18 36  1  0
 19 20  2  0
 19 37  1  0
 20 21  1  0
 20 38  1  0
 21 22  2  0
 21 39  1  0
 22 23  1  0
 24 25  1  0
 26 27  1  0
 26 40  1  0
 26 41  1  0
 27 42  1  0
 27 43  1  0
M  END
>  <i_m_ct_stereo_status>  (67) 
1

>  <s_m_source_file>  (67) 
/var/tmp/pbs.5076255.sched01/tmp8nmo4hef/06hb_edth.sdf

>  <i_m_source_file_index>  (67) 
26

>  <i_lp_mmshare_version>  (67) 
48012

>  <i_f3d_flags>  (67) 
0

>  <s_epik_input>  (67) 
W0NIM11OMVtDSDJdW0NIMl1OKFtDSDJdW0NIMl0xKWMobltjSF1uMiljKGMyMylvYyhjM0MoRikoRilGKS1jNFtjSF1bY0hdW2NIXVtjSF1jNEY=

>  <s_epik_cmdline>  (67) 
J2VwaWtfcHl0aG9uJywgJy1waHQnLCAnMi4wJywgJy1waCcsICc3LjAnLCAnLXRuJywgJzgnLCAnLW1hJywgJzIwMCcsICctaW1hZScsICc8aW5maWxlLm1hZT4nLCAnLW9tYWUnLCAnPG91dGZpbGUubWFlPic=

>  <r_epik_Ionization_Penalty>  (67) 
0.775375

>  <r_epik_Ionization_Penalty_Charging>  (67) 
0

>  <r_epik_Ionization_Penalty_Neutral>  (67) 
0.775375

>  <r_epik_State_Penalty>  (67) 
0.804379

>  <r_epik_Charging_Adjusted_Penalty>  (67) 
0.804379

>  <i_epik_Tot_Q>  (67) 
0

>  <i_epik_Tot_abs_Q>  (67) 
0

>  <s_lp_Force_Field>  (67) 
OPLS3e

>  <r_lp_Energy>  (67) 
42.5716

>  <b_lp_Chiralities_Consistent>  (67) 
1

>  <s_lp_Variant>  (67) 
21:0-2

>  <s_i_glide_gridfile>  (67) 
pfpi4k_grid

>  <i_i_glide_lignum>  (67) 
26

>  <i_i_glide_rotatable_bonds>  (67) 
3

>  <r_i_docking_score>  (67) 
-2.78736

>  <r_i_glide_ligand_efficiency>  (67) 
-0.103236

>  <r_i_glide_ligand_efficiency_sa>  (67) 
-0.309707

>  <r_i_glide_ligand_efficiency_ln>  (67) 
-0.648852

>  <r_i_glide_gscore>  (67) 
-2.78736

>  <r_i_glide_lipo>  (67) 
-0.357427

>  <r_i_glide_hbond>  (67) 
0

>  <r_i_glide_metal>  (67) 
-0

>  <r_i_glide_rewards>  (67) 
-0.887581

>  <r_i_glide_evdw>  (67) 
-29.0677

>  <r_i_glide_ecoul>  (67) 
-0.852282

>  <r_i_glide_erotb>  (67) 
0.268211

>  <r_i_glide_esite>  (67) 
-0.22934

>  <r_i_glide_emodel>  (67) 
-33.9523

>  <r_i_glide_energy>  (67) 
-29.92

>  <r_i_glide_einternal>  (67) 
0.522802

>  <r_i_glide_intrahb_reward>  (67) 
-0

>  <i_i_glide_confnum>  (67) 
5

>  <i_i_glide_posenum>  (67) 
8

>  <r_i_glide_eff_state_penalty>  (67) 
0

>  <ligand_id>  (67) 
21

>  <original_smiles>  (67) 
CN1CCN(c2ncnc3c(C(F)(F)F)c(-c4ccccc4F)oc23)CC1

>  <smiles>  (67) 
[H]c1nc(N2C([H])([H])C([H])([H])N(C([H])([H])[H])C([H])([H])C2([H])[H])c2oc(-c3c([H])c([H])c([H])c([H])c3F)c(C(F)(F)F)c2n1

$$$$
21:1:1
     RDKit          3D

 43 46  0  0  1  0  0  0  0  0999 V2000
    0.1000  -10.1913    3.0622 C   0  0  0  0  0  0  0  0  0  0  0  0
    0.7259   -9.1023    3.7966 N   0  0  0  0  0  0  0  0  0  0  0  0
    0.5885   -7.8602    3.0367 C   0  0  0  0  0  0  0  0  0  0  0  0
    1.2755   -6.7048    3.7843 C   0  0  0  0  0  0  0  0  0  0  0  0
    0.7356   -6.5846    5.1363 N   0  0  0  0  0  0  0  0  0  0  0  0
    0.2084   -5.3864    5.6519 C   0  0  0  0  0  0  0  0  0  0  0  0
   -0.6480   -5.4427    6.6922 N   0  0  0  0  0  0  0  0  0  0  0  0
   -1.1718   -4.2985    7.1416 C   0  0  0  0  0  0  0  0  0  0  0  0
   -0.9773   -3.0513    6.6832 N   0  0  0  0  0  0  0  0  0  0  0  0
   -0.1122   -2.9659    5.6575 C   0  0  0  0  0  0  0  0  0  0  0  0
    0.3254   -1.8046    4.9431 C   0  0  0  0  0  0  0  0  0  0  0  0
   -0.1027   -0.3711    5.1737 C   0  0  0  0  0  0  0  0  0  0  0  0
   -1.0889   -0.2722    6.0655 F   0  0  0  0  0  0  0  0  0  0  0  0
    0.9231    0.3477    5.6234 F   0  0  0  0  0  0  0  0  0  0  0  0
   -0.5416    0.1486    4.0315 F   0  0  0  0  0  0  0  0  0  0  0  0
    1.2037   -2.3447    4.0021 C   0  0  0  0  0  0  0  0  0  0  0  0
    2.0251   -1.7695    2.9173 C   0  0  0  0  0  0  0  0  0  0  0  0
    2.2592   -0.3738    2.8523 C   0  0  0  0  0  0  0  0  0  0  0  0
    3.0499    0.1952    1.8464 C   0  0  0  0  0  0  0  0  0  0  0  0
    3.6396   -0.6172    0.8671 C   0  0  0  0  0  0  0  0  0  0  0  0
    3.4216   -2.0077    0.9026 C   0  0  0  0  0  0  0  0  0  0  0  0
    2.6243   -2.5815    1.9132 C   0  0  0  0  0  0  0  0  0  0  0  0
    2.4497   -3.9263    1.8848 F   0  0  0  0  0  0  0  0  0  0  0  0
    1.3255   -3.7125    4.1214 O   0  0  0  0  0  0  0  0  0  0  0  0
    0.4933   -4.1122    5.1336 C   0  0  0  0  0  0  0  0  0  0  0  0
    0.7388   -7.8265    5.9071 C   0  0  0  0  0  0  0  0  0  0  0  0
    0.0656   -8.9529    5.0986 C   0  0  0  0  0  0  0  0  0  0  0  0
    0.5660  -10.3160    2.0843 H   0  0  0  0  0  0  0  0  0  0  0  0
   -0.9660  -10.0122    2.9156 H   0  0  0  0  0  0  0  0  0  0  0  0
    0.2167  -11.1251    3.6112 H   0  0  0  0  0  0  0  0  0  0  0  0
    1.0484   -7.9783    2.0537 H   0  0  0  0  0  0  0  0  0  0  0  0
   -0.4641   -7.6281    2.8707 H   0  0  0  0  0  0  0  0  0  0  0  0
    2.3524   -6.8686    3.8443 H   0  0  0  0  0  0  0  0  0  0  0  0
    1.1235   -5.8069    3.1933 H   0  0  0  0  0  0  0  0  0  0  0  0
   -1.8645   -4.3837    7.9674 H   0  0  0  0  0  0  0  0  0  0  0  0
    1.8527    0.3173    3.5648 H   0  0  0  0  0  0  0  0  0  0  0  0
    3.1951    1.2616    1.8284 H   0  0  0  0  0  0  0  0  0  0  0  0
    4.2360   -0.1715    0.0827 H   0  0  0  0  0  0  0  0  0  0  0  0
    3.8624   -2.6361    0.1421 H   0  0  0  0  0  0  0  0  0  0  0  0
    1.7740   -8.0931    6.1283 H   0  0  0  0  0  0  0  0  0  0  0  0
    0.2413   -7.7260    6.8715 H   0  0  0  0  0  0  0  0  0  0  0  0
   -0.9967   -8.7399    4.9654 H   0  0  0  0  0  0  0  0  0  0  0  0
    0.1370   -9.8914    5.6517 H   0  0  0  0  0  0  0  0  0  0  0  0
  1  2  1  0
  1 28  1  0
  1 29  1  0
  1 30  1  0
  2 27  1  0
  2  3  1  0
  3  4  1  0
  3 31  1  0
  3 32  1  0
  4  5  1  0
  4 33  1  0
  4 34  1  0
  5  6  1  0
  5 26  1  0
  6 25  1  0
  6  7  2  0
  7  8  1  0
  8  9  2  0
  8 35  1  0
  9 10  1  0
 10 25  2  0
 10 11  1  0
 11 12  1  0
 11 16  2  0
 12 13  1  0
 12 14  1  0
 12 15  1  0
 16 17  1  0
 16 24  1  0
 17 22  1  0
 17 18  2  0
 18 19  1  0
 18 36  1  0
 19 20  2  0
 19 37  1  0
 20 21  1  0
 20 38  1  0
 21 22  2  0
 21 39  1  0
 22 23  1  0
 24 25  1  0
 26 27  1  0
 26 40  1  0
 26 41  1  0
 27 42  1  0
 27 43  1  0
M  END
>  <i_m_ct_stereo_status>  (68) 
1

>  <s_m_source_file>  (68) 
/var/tmp/pbs.5076255.sched01/tmp8nmo4hef/06hb_edth.sdf

>  <i_m_source_file_index>  (68) 
26

>  <i_lp_mmshare_version>  (68) 
48012

>  <i_f3d_flags>  (68) 
0

>  <s_epik_input>  (68) 
W0NIM11OMVtDSDJdW0NIMl1OKFtDSDJdW0NIMl0xKWMobltjSF1uMiljKGMyMylvYyhjM0MoRikoRilGKS1jNFtjSF1bY0hdW2NIXVtjSF1jNEY=

>  <s_epik_cmdline>  (68) 
J2VwaWtfcHl0aG9uJywgJy1waHQnLCAnMi4wJywgJy1waCcsICc3LjAnLCAnLXRuJywgJzgnLCAnLW1hJywgJzIwMCcsICctaW1hZScsICc8aW5maWxlLm1hZT4nLCAnLW9tYWUnLCAnPG91dGZpbGUubWFlPic=

>  <r_epik_Ionization_Penalty>  (68) 
0.775375

>  <r_epik_Ionization_Penalty_Charging>  (68) 
0

>  <r_epik_Ionization_Penalty_Neutral>  (68) 
0.775375

>  <r_epik_State_Penalty>  (68) 
0.804379

>  <r_epik_Charging_Adjusted_Penalty>  (68) 
0.804379

>  <i_epik_Tot_Q>  (68) 
0

>  <i_epik_Tot_abs_Q>  (68) 
0

>  <s_lp_Force_Field>  (68) 
OPLS3e

>  <r_lp_Energy>  (68) 
42.5716

>  <b_lp_Chiralities_Consistent>  (68) 
1

>  <s_lp_Variant>  (68) 
21:0-2

>  <s_i_glide_gridfile>  (68) 
pfpi4k_grid

>  <i_i_glide_lignum>  (68) 
26

>  <i_i_glide_rotatable_bonds>  (68) 
3

>  <r_i_docking_score>  (68) 
-2.32457

>  <r_i_glide_ligand_efficiency>  (68) 
-0.0860951

>  <r_i_glide_ligand_efficiency_sa>  (68) 
-0.258285

>  <r_i_glide_ligand_efficiency_ln>  (68) 
-0.541121

>  <r_i_glide_gscore>  (68) 
-2.32457

>  <r_i_glide_lipo>  (68) 
-0.0640596

>  <r_i_glide_hbond>  (68) 
0

>  <r_i_glide_metal>  (68) 
-0

>  <r_i_glide_rewards>  (68) 
-0.815867

>  <r_i_glide_evdw>  (68) 
-23.9069

>  <r_i_glide_ecoul>  (68) 
-2.65206

>  <r_i_glide_erotb>  (68) 
0.268211

>  <r_i_glide_esite>  (68) 
-0.119698

>  <r_i_glide_emodel>  (68) 
-30.879

>  <r_i_glide_energy>  (68) 
-26.5589

>  <r_i_glide_einternal>  (68) 
0.148671

>  <r_i_glide_intrahb_reward>  (68) 
-0

>  <i_i_glide_confnum>  (68) 
5

>  <i_i_glide_posenum>  (68) 
16

>  <r_i_glide_eff_state_penalty>  (68) 
0

>  <ligand_id>  (68) 
21

>  <original_smiles>  (68) 
CN1CCN(c2ncnc3c(C(F)(F)F)c(-c4ccccc4F)oc23)CC1

>  <smiles>  (68) 
[H]c1nc(N2C([H])([H])C([H])([H])N(C([H])([H])[H])C([H])([H])C2([H])[H])c2oc(-c3c([H])c([H])c([H])c([H])c3F)c(C(F)(F)F)c2n1

$$$$
21:1:2
     RDKit          3D

 43 46  0  0  1  0  0  0  0  0999 V2000
   -1.5474   -9.0645    2.4742 C   0  0  0  0  0  0  0  0  0  0  0  0
   -0.3850   -8.2719    2.8562 N   0  0  0  0  0  0  0  0  0  0  0  0
   -0.1185   -7.2561    1.8369 C   0  0  0  0  0  0  0  0  0  0  0  0
    1.1265   -6.4317    2.2189 C   0  0  0  0  0  0  0  0  0  0  0  0
    0.9557   -5.8586    3.5527 N   0  0  0  0  0  0  0  0  0  0  0  0
    1.1155   -4.4875    3.8305 C   0  0  0  0  0  0  0  0  0  0  0  0
    0.5155   -3.9714    4.9292 N   0  0  0  0  0  0  0  0  0  0  0  0
    0.6355   -2.6587    5.1359 C   0  0  0  0  0  0  0  0  0  0  0  0
    1.2663   -1.7328    4.3880 N   0  0  0  0  0  0  0  0  0  0  0  0
    1.8790   -2.2202    3.2952 C   0  0  0  0  0  0  0  0  0  0  0  0
    2.6518   -1.5250    2.2995 C   0  0  0  0  0  0  0  0  0  0  0  0
    2.9638   -0.0300    2.2735 C   0  0  0  0  0  0  0  0  0  0  0  0
    3.9905    0.2840    1.5045 F   0  0  0  0  0  0  0  0  0  0  0  0
    1.8751    0.6236    1.8524 F   0  0  0  0  0  0  0  0  0  0  0  0
    3.2263    0.3753    3.5314 F   0  0  0  0  0  0  0  0  0  0  0  0
    3.0000   -2.5611    1.4269 C   0  0  0  0  0  0  0  0  0  0  0  0
    3.7734   -2.6243    0.1640 C   0  0  0  0  0  0  0  0  0  0  0  0
    4.0042   -1.4490   -0.5944 C   0  0  0  0  0  0  0  0  0  0  0  0
    4.8196   -1.4759   -1.7452 C   0  0  0  0  0  0  0  0  0  0  0  0
    5.3282   -2.6940   -2.2389 C   0  0  0  0  0  0  0  0  0  0  0  0
    5.0230   -3.8770   -1.5404 C   0  0  0  0  0  0  0  0  0  0  0  0
    4.2769   -3.8646   -0.3431 C   0  0  0  0  0  0  0  0  0  0  0  0
    4.0349   -5.0479    0.2724 F   0  0  0  0  0  0  0  0  0  0  0  0
    2.5286   -3.7927    1.8473 O   0  0  0  0  0  0  0  0  0  0  0  0
    1.8173   -3.5914    3.0033 C   0  0  0  0  0  0  0  0  0  0  0  0
    0.5992   -6.8220    4.5902 C   0  0  0  0  0  0  0  0  0  0  0  0
   -0.6350   -7.6312    4.1503 C   0  0  0  0  0  0  0  0  0  0  0  0
   -1.3849   -9.5493    1.5116 H   0  0  0  0  0  0  0  0  0  0  0  0
   -2.4455   -8.4499    2.3961 H   0  0  0  0  0  0  0  0  0  0  0  0
   -1.7287   -9.8502    3.2090 H   0  0  0  0  0  0  0  0  0  0  0  0
    0.0411   -7.7355    0.8710 H   0  0  0  0  0  0  0  0  0  0  0  0
   -0.9872   -6.6067    1.7265 H   0  0  0  0  0  0  0  0  0  0  0  0
    2.0195   -7.0600    2.2027 H   0  0  0  0  0  0  0  0  0  0  0  0
    1.2696   -5.6767    1.4507 H   0  0  0  0  0  0  0  0  0  0  0  0
    0.1373   -2.2923    6.0176 H   0  0  0  0  0  0  0  0  0  0  0  0
    3.5553   -0.5112   -0.3457 H   0  0  0  0  0  0  0  0  0  0  0  0
    5.0094   -0.5486   -2.2578 H   0  0  0  0  0  0  0  0  0  0  0  0
    5.8982   -2.7126   -3.1572 H   0  0  0  0  0  0  0  0  0  0  0  0
    5.3732   -4.8282   -1.9352 H   0  0  0  0  0  0  0  0  0  0  0  0
    1.4504   -7.4848    4.7579 H   0  0  0  0  0  0  0  0  0  0  0  0
    0.3970   -6.3412    5.5465 H   0  0  0  0  0  0  0  0  0  0  0  0
   -1.5085   -6.9795    4.0893 H   0  0  0  0  0  0  0  0  0  0  0  0
   -0.8489   -8.3959    4.8982 H   0  0  0  0  0  0  0  0  0  0  0  0
  1  2  1  0
  1 28  1  0
  1 29  1  0
  1 30  1  0
  2 27  1  0
  2  3  1  0
  3  4  1  0
  3 31  1  0
  3 32  1  0
  4  5  1  0
  4 33  1  0
  4 34  1  0
  5  6  1  0
  5 26  1  0
  6 25  1  0
  6  7  2  0
  7  8  1  0
  8  9  2  0
  8 35  1  0
  9 10  1  0
 10 25  2  0
 10 11  1  0
 11 12  1  0
 11 16  2  0
 12 13  1  0
 12 14  1  0
 12 15  1  0
 16 17  1  0
 16 24  1  0
 17 22  1  0
 17 18  2  0
 18 19  1  0
 18 36  1  0
 19 20  2  0
 19 37  1  0
 20 21  1  0
 20 38  1  0
 21 22  2  0
 21 39  1  0
 22 23  1  0
 24 25  1  0
 26 27  1  0
 26 40  1  0
 26 41  1  0
 27 42  1  0
 27 43  1  0
M  END
>  <i_m_ct_stereo_status>  (69) 
1

>  <s_m_source_file>  (69) 
/var/tmp/pbs.5076255.sched01/tmp8nmo4hef/06hb_edth.sdf

>  <i_m_source_file_index>  (69) 
26

>  <i_lp_mmshare_version>  (69) 
48012

>  <i_f3d_flags>  (69) 
0

>  <s_epik_input>  (69) 
W0NIM11OMVtDSDJdW0NIMl1OKFtDSDJdW0NIMl0xKWMobltjSF1uMiljKGMyMylvYyhjM0MoRikoRilGKS1jNFtjSF1bY0hdW2NIXVtjSF1jNEY=

>  <s_epik_cmdline>  (69) 
J2VwaWtfcHl0aG9uJywgJy1waHQnLCAnMi4wJywgJy1waCcsICc3LjAnLCAnLXRuJywgJzgnLCAnLW1hJywgJzIwMCcsICctaW1hZScsICc8aW5maWxlLm1hZT4nLCAnLW9tYWUnLCAnPG91dGZpbGUubWFlPic=

>  <r_epik_Ionization_Penalty>  (69) 
0.775375

>  <r_epik_Ionization_Penalty_Charging>  (69) 
0

>  <r_epik_Ionization_Penalty_Neutral>  (69) 
0.775375

>  <r_epik_State_Penalty>  (69) 
0.804379

>  <r_epik_Charging_Adjusted_Penalty>  (69) 
0.804379

>  <i_epik_Tot_Q>  (69) 
0

>  <i_epik_Tot_abs_Q>  (69) 
0

>  <s_lp_Force_Field>  (69) 
OPLS3e

>  <r_lp_Energy>  (69) 
42.5716

>  <b_lp_Chiralities_Consistent>  (69) 
1

>  <s_lp_Variant>  (69) 
21:0-2

>  <s_i_glide_gridfile>  (69) 
pfpi4k_grid

>  <i_i_glide_lignum>  (69) 
26

>  <i_i_glide_rotatable_bonds>  (69) 
3

>  <r_i_docking_score>  (69) 
-2.31901

>  <r_i_glide_ligand_efficiency>  (69) 
-0.0858892

>  <r_i_glide_ligand_efficiency_sa>  (69) 
-0.257667

>  <r_i_glide_ligand_efficiency_ln>  (69) 
-0.539827

>  <r_i_glide_gscore>  (69) 
-2.31901

>  <r_i_glide_lipo>  (69) 
-0.309033

>  <r_i_glide_hbond>  (69) 
0

>  <r_i_glide_metal>  (69) 
-0

>  <r_i_glide_rewards>  (69) 
-0.849483

>  <r_i_glide_evdw>  (69) 
-27.5623

>  <r_i_glide_ecoul>  (69) 
0.151132

>  <r_i_glide_erotb>  (69) 
0.268211

>  <r_i_glide_esite>  (69) 
-0.0732569

>  <r_i_glide_emodel>  (69) 
-30.6034

>  <r_i_glide_energy>  (69) 
-27.4112

>  <r_i_glide_einternal>  (69) 
0.0999689

>  <r_i_glide_intrahb_reward>  (69) 
-0

>  <i_i_glide_confnum>  (69) 
2

>  <i_i_glide_posenum>  (69) 
15

>  <r_i_glide_eff_state_penalty>  (69) 
0

>  <ligand_id>  (69) 
21

>  <original_smiles>  (69) 
CN1CCN(c2ncnc3c(C(F)(F)F)c(-c4ccccc4F)oc23)CC1

>  <smiles>  (69) 
[H]c1nc(N2C([H])([H])C([H])([H])N(C([H])([H])[H])C([H])([H])C2([H])[H])c2oc(-c3c([H])c([H])c([H])c([H])c3F)c(C(F)(F)F)c2n1

$$$$
23:0:0
     RDKit          3D

 45 49  0  0  1  0  0  0  0  0999 V2000
    3.3637   -0.7810   -3.9817 C   0  0  0  0  0  0  0  0  0  0  0  0
    3.5926   -2.0919   -3.2156 C   0  0  2  0  0  0  0  0  0  0  0  0
    2.3689   -2.8134   -3.0887 O   0  0  0  0  0  0  0  0  0  0  0  0
    2.2355   -3.4297   -1.9036 C   0  0  0  0  0  0  0  0  0  0  0  0
    1.2870   -4.0995   -1.5124 O   0  0  0  0  0  0  0  0  0  0  0  0
    3.4971   -3.1731   -1.1113 C   0  0  1  0  0  0  0  0  0  0  0  0
    3.9794   -1.8881   -1.7458 C   0  0  1  0  0  0  0  0  0  0  0  0
    5.4474   -1.6741   -1.3934 C   0  0  0  0  0  0  0  0  0  0  0  0
    5.6608   -1.6621    0.1484 C   0  0  1  0  0  0  0  0  0  0  0  0
    5.2333   -0.3765    0.8788 C   0  0  0  0  0  0  0  0  0  0  0  0
    5.2331   -0.7703    2.3667 C   0  0  1  0  0  0  0  0  0  0  0  0
    4.0768   -0.2545    3.2500 C   0  0  0  0  0  0  0  0  0  0  0  0
    3.6526   -1.4329    4.0907 C   0  0  1  0  0  0  0  0  0  0  0  0
    2.8489   -2.4440    3.4683 O   0  0  0  0  0  0  0  0  0  0  0  0
    4.2555   -2.6940    3.5409 C   0  0  2  0  0  0  0  0  0  0  0  0
    4.6721   -3.8656    4.4065 C   0  0  0  0  0  0  0  0  0  0  0  0
    5.1994   -2.3049    2.4129 C   0  0  1  0  0  0  0  0  0  0  0  0
    4.9877   -2.8216    0.9481 C   0  0  2  0  0  0  0  0  0  0  0  0
    5.8252   -4.1168    0.7850 C   0  0  0  0  0  0  0  0  0  0  0  0
    3.5006   -3.0737    0.4407 C   0  0  1  0  0  0  0  0  0  0  0  0
    2.6160   -2.0419    0.8513 O   0  0  0  0  0  0  0  0  0  0  0  0
    4.2857   -0.2117   -4.0974 H   0  0  0  0  0  0  0  0  0  0  0  0
    2.6301   -0.1472   -3.4782 H   0  0  0  0  0  0  0  0  0  0  0  0
    2.9753   -0.9892   -4.9789 H   0  0  0  0  0  0  0  0  0  0  0  0
    4.3113   -2.7329   -3.7312 H   0  0  0  0  0  0  0  0  0  0  0  0
    4.1577   -3.9863   -1.4108 H   0  0  0  0  0  0  0  0  0  0  0  0
    3.4053   -1.0443   -1.3594 H   0  0  0  0  0  0  0  0  0  0  0  0
    6.0394   -2.4771   -1.8376 H   0  0  0  0  0  0  0  0  0  0  0  0
    5.8043   -0.7425   -1.8312 H   0  0  0  0  0  0  0  0  0  0  0  0
    6.7406   -1.7295    0.3044 H   0  0  0  0  0  0  0  0  0  0  0  0
    5.9149    0.4478    0.6680 H   0  0  0  0  0  0  0  0  0  0  0  0
    4.2430   -0.0533    0.5583 H   0  0  0  0  0  0  0  0  0  0  0  0
    6.1765   -0.4505    2.8140 H   0  0  0  0  0  0  0  0  0  0  0  0
    4.4043    0.5647    3.8857 H   0  0  0  0  0  0  0  0  0  0  0  0
    3.2258    0.1032    2.6676 H   0  0  0  0  0  0  0  0  0  0  0  0
    3.4908   -1.2910    5.1621 H   0  0  0  0  0  0  0  0  0  0  0  0
    5.6363   -3.6765    4.8934 H   0  0  0  0  0  0  0  0  0  0  0  0
    4.7489   -4.7751    3.8047 H   0  0  0  0  0  0  0  0  0  0  0  0
    3.9207   -4.0281    5.1867 H   0  0  0  0  0  0  0  0  0  0  0  0
    6.1986   -2.6015    2.7342 H   0  0  0  0  0  0  0  0  0  0  0  0
    5.4132   -4.9308    1.3822 H   0  0  0  0  0  0  0  0  0  0  0  0
    6.8591   -3.9778    1.1102 H   0  0  0  0  0  0  0  0  0  0  0  0
    5.8793   -4.4577   -0.2480 H   0  0  0  0  0  0  0  0  0  0  0  0
    3.1382   -4.0101    0.8675 H   0  0  0  0  0  0  0  0  0  0  0  0
    2.0320   -1.7698    0.1380 H   0  0  0  0  0  0  0  0  0  0  0  0
  1  2  1  0
  1 22  1  0
  1 23  1  0
  1 24  1  0
  2  7  1  0
  2  3  1  0
  2 25  1  6
  3  4  1  0
  4  5  2  0
  4  6  1  0
  6 20  1  0
  6  7  1  0
  6 26  1  1
  7  8  1  0
  7 27  1  1
  8  9  1  0
  8 28  1  0
  8 29  1  0
  9 18  1  0
  9 10  1  0
  9 30  1  6
 10 11  1  0
 10 31  1  0
 10 32  1  0
 11 17  1  0
 11 12  1  0
 11 33  1  1
 12 13  1  0
 12 34  1  0
 12 35  1  0
 13 15  1  0
 13 14  1  0
 13 36  1  1
 14 15  1  0
 15 16  1  1
 15 17  1  0
 16 37  1  0
 16 38  1  0
 16 39  1  0
 17 18  1  0
 17 40  1  1
 18 19  1  1
 18 20  1  0
 19 41  1  0
 19 42  1  0
 19 43  1  0
 20 21  1  0
 20 44  1  1
 21 45  1  0
M  END
>  <i_m_ct_stereo_status>  (70) 
1

>  <s_m_source_file>  (70) 
/var/tmp/pbs.5076255.sched01/tmp8nmo4hef/06hb_edth.sdf

>  <i_m_source_file_index>  (70) 
29

>  <i_lp_mmshare_version>  (70) 
48012

>  <i_f3d_flags>  (70) 
0

>  <s_epik_input>  (70) 
W0NIM11bQ0BASF0xT0MoPU8pW0NASF0oW0NAQEhdMltPSF0pW0NASF0xW0NIMl1bQ0BASF0oW0NIMl0zKVtDQEBdMihbQ0gzXSlbQ0BIXTRbQ0BASF0zW0NIMl1bQ0BASF0oTzUpW0NAXTQ1W0NIM10=

>  <s_epik_cmdline>  (70) 
J2VwaWtfcHl0aG9uJywgJy1waHQnLCAnMi4wJywgJy1waCcsICc3LjAnLCAnLXRuJywgJzgnLCAnLW1hJywgJzIwMCcsICctaW1hZScsICc8aW5maWxlLm1hZT4nLCAnLW9tYWUnLCAnPG91dGZpbGUubWFlPic=

>  <r_lp_tautomer_probability>  (70) 
1

>  <r_epik_Ionization_Penalty>  (70) 
1.28388e-07

>  <r_epik_Ionization_Penalty_Charging>  (70) 
0

>  <r_epik_Ionization_Penalty_Neutral>  (70) 
1.28388e-07

>  <r_epik_State_Penalty>  (70) 
-0

>  <r_epik_Charging_Adjusted_Penalty>  (70) 
0

>  <i_epik_Tot_Q>  (70) 
0

>  <i_epik_Tot_abs_Q>  (70) 
0

>  <s_epik_Chemistry_Notes>  (70) 
This compound has an ester and may undergo hydrolysis at high or low pH.

>  <s_lp_Force_Field>  (70) 
OPLS3e

>  <r_lp_Energy>  (70) 
19.8139

>  <b_lp_Chiralities_Consistent>  (70) 
1

>  <s_lp_Variant>  (70) 
23:0-1

>  <s_i_glide_gridfile>  (70) 
pfpi4k_grid

>  <i_i_glide_lignum>  (70) 
29

>  <i_i_glide_rotatable_bonds>  (70) 
1

>  <r_i_docking_score>  (70) 
-4.03282

>  <r_i_glide_ligand_efficiency>  (70) 
-0.192039

>  <r_i_glide_ligand_efficiency_sa>  (70) 
-0.529822

>  <r_i_glide_ligand_efficiency_ln>  (70) 
-0.997108

>  <r_i_glide_gscore>  (70) 
-4.03282

>  <r_i_glide_lipo>  (70) 
-0.85598

>  <r_i_glide_hbond>  (70) 
-0.00695628

>  <r_i_glide_metal>  (70) 
-0

>  <r_i_glide_rewards>  (70) 
-1.65041

>  <r_i_glide_evdw>  (70) 
-25.1275

>  <r_i_glide_ecoul>  (70) 
-1.75403

>  <r_i_glide_erotb>  (70) 
0

>  <r_i_glide_esite>  (70) 
0

>  <r_i_glide_emodel>  (70) 
-33.4576

>  <r_i_glide_energy>  (70) 
-26.8815

>  <r_i_glide_einternal>  (70) 
1.40072

>  <r_i_glide_intrahb_reward>  (70) 
-0

>  <i_i_glide_confnum>  (70) 
2

>  <i_i_glide_posenum>  (70) 
5

>  <r_i_glide_eff_state_penalty>  (70) 
0

>  <ligand_id>  (70) 
23

>  <original_smiles>  (70) 
CC1OC(=O)C2C1CC1CC3CC4OC4(C)C3C1(C)C2O

>  <smiles>  (70) 
[H]OC1([H])C2([H])C(=O)OC([H])(C([H])([H])[H])C2([H])C([H])([H])C2([H])C([H])([H])C3([H])C([H])([H])C4([H])OC4(C([H])([H])[H])C3([H])C12C([H])([H])[H]

$$$$
23:0:1
     RDKit          3D

 45 49  0  0  1  0  0  0  0  0999 V2000
    5.3664   -6.2015    3.7883 C   0  0  0  0  0  0  0  0  0  0  0  0
    4.3726   -5.0927    3.4205 C   0  0  2  0  0  0  0  0  0  0  0  0
    3.1004   -5.6714    3.1411 O   0  0  0  0  0  0  0  0  0  0  0  0
    2.4740   -5.1016    2.0920 C   0  0  0  0  0  0  0  0  0  0  0  0
    1.4240   -5.4665    1.5747 O   0  0  0  0  0  0  0  0  0  0  0  0
    3.3059   -3.9041    1.6648 C   0  0  1  0  0  0  0  0  0  0  0  0
    4.6726   -4.3891    2.0893 C   0  0  1  0  0  0  0  0  0  0  0  0
    5.6233   -3.2043    2.0746 C   0  0  0  0  0  0  0  0  0  0  0  0
    5.6698   -2.5190    0.6862 C   0  0  1  0  0  0  0  0  0  0  0  0
    6.4605   -3.2691   -0.4013 C   0  0  0  0  0  0  0  0  0  0  0  0
    6.0373   -2.5697   -1.7011 C   0  0  1  0  0  0  0  0  0  0  0  0
    5.7474   -3.4578   -2.9158 C   0  0  0  0  0  0  0  0  0  0  0  0
    4.4878   -2.9388   -3.5386 C   0  0  1  0  0  0  0  0  0  0  0  0
    3.2597   -3.2540   -2.8798 O   0  0  0  0  0  0  0  0  0  0  0  0
    3.8292   -1.9778   -2.6048 C   0  0  2  0  0  0  0  0  0  0  0  0
    3.0647   -0.7846   -3.1042 C   0  0  0  0  0  0  0  0  0  0  0  0
    4.7490   -1.7877   -1.4055 C   0  0  1  0  0  0  0  0  0  0  0  0
    4.2909   -2.1819    0.0397 C   0  0  2  0  0  0  0  0  0  0  0  0
    3.6889   -0.9281    0.7055 C   0  0  0  0  0  0  0  0  0  0  0  0
    3.2807   -3.3847    0.2039 C   0  0  1  0  0  0  0  0  0  0  0  0
    3.6556   -4.4882   -0.5863 O   0  0  0  0  0  0  0  0  0  0  0  0
    6.3568   -5.7949    3.9925 H   0  0  0  0  0  0  0  0  0  0  0  0
    5.4590   -6.9367    2.9875 H   0  0  0  0  0  0  0  0  0  0  0  0
    5.0307   -6.7340    4.6784 H   0  0  0  0  0  0  0  0  0  0  0  0
    4.2599   -4.3763    4.2363 H   0  0  0  0  0  0  0  0  0  0  0  0
    2.9802   -3.1015    2.3227 H   0  0  0  0  0  0  0  0  0  0  0  0
    5.0364   -5.1430    1.3864 H   0  0  0  0  0  0  0  0  0  0  0  0
    5.3083   -2.4803    2.8287 H   0  0  0  0  0  0  0  0  0  0  0  0
    6.6159   -3.5523    2.3383 H   0  0  0  0  0  0  0  0  0  0  0  0
    6.2080   -1.5811    0.8278 H   0  0  0  0  0  0  0  0  0  0  0  0
    7.5389   -3.2203   -0.2363 H   0  0  0  0  0  0  0  0  0  0  0  0
    6.1994   -4.3285   -0.4216 H   0  0  0  0  0  0  0  0  0  0  0  0
    6.8078   -1.8540   -1.9716 H   0  0  0  0  0  0  0  0  0  0  0  0
    6.5775   -3.4400   -3.6226 H   0  0  0  0  0  0  0  0  0  0  0  0
    5.5695   -4.5010   -2.6539 H   0  0  0  0  0  0  0  0  0  0  0  0
    4.4445   -2.7949   -4.6089 H   0  0  0  0  0  0  0  0  0  0  0  0
    3.7263    0.0504   -3.3397 H   0  0  0  0  0  0  0  0  0  0  0  0
    2.3609   -0.4719   -2.3340 H   0  0  0  0  0  0  0  0  0  0  0  0
    2.5034   -1.0567   -3.9982 H   0  0  0  0  0  0  0  0  0  0  0  0
    5.0386   -0.7349   -1.4029 H   0  0  0  0  0  0  0  0  0  0  0  0
    2.7484   -0.6584    0.2258 H   0  0  0  0  0  0  0  0  0  0  0  0
    4.3561   -0.0692    0.6221 H   0  0  0  0  0  0  0  0  0  0  0  0
    3.4925   -1.0815    1.7646 H   0  0  0  0  0  0  0  0  0  0  0  0
    2.2704   -3.0737   -0.0793 H   0  0  0  0  0  0  0  0  0  0  0  0
    3.3616   -4.3568   -1.4843 H   0  0  0  0  0  0  0  0  0  0  0  0
  1  2  1  0
  1 22  1  0
  1 23  1  0
  1 24  1  0
  2  7  1  0
  2  3  1  0
  2 25  1  1
  3  4  1  0
  4  5  2  0
  4  6  1  0
  6 20  1  0
  6  7  1  0
  6 26  1  1
  7  8  1  0
  7 27  1  6
  8  9  1  0
  8 28  1  0
  8 29  1  0
  9 18  1  0
  9 10  1  0
  9 30  1  1
 10 11  1  0
 10 31  1  0
 10 32  1  0
 11 17  1  0
 11 12  1  0
 11 33  1  6
 12 13  1  0
 12 34  1  0
 12 35  1  0
 13 15  1  0
 13 14  1  0
 13 36  1  6
 14 15  1  0
 15 16  1  6
 15 17  1  0
 16 37  1  0
 16 38  1  0
 16 39  1  0
 17 18  1  0
 17 40  1  1
 18 19  1  1
 18 20  1  0
 19 41  1  0
 19 42  1  0
 19 43  1  0
 20 21  1  0
 20 44  1  6
 21 45  1  0
M  END
>  <i_m_ct_stereo_status>  (71) 
1

>  <s_m_source_file>  (71) 
/var/tmp/pbs.5076255.sched01/tmp8nmo4hef/06hb_edth.sdf

>  <i_m_source_file_index>  (71) 
29

>  <i_lp_mmshare_version>  (71) 
48012

>  <i_f3d_flags>  (71) 
0

>  <s_epik_input>  (71) 
W0NIM11bQ0BASF0xT0MoPU8pW0NASF0oW0NAQEhdMltPSF0pW0NASF0xW0NIMl1bQ0BASF0oW0NIMl0zKVtDQEBdMihbQ0gzXSlbQ0BIXTRbQ0BASF0zW0NIMl1bQ0BASF0oTzUpW0NAXTQ1W0NIM10=

>  <s_epik_cmdline>  (71) 
J2VwaWtfcHl0aG9uJywgJy1waHQnLCAnMi4wJywgJy1waCcsICc3LjAnLCAnLXRuJywgJzgnLCAnLW1hJywgJzIwMCcsICctaW1hZScsICc8aW5maWxlLm1hZT4nLCAnLW9tYWUnLCAnPG91dGZpbGUubWFlPic=

>  <r_lp_tautomer_probability>  (71) 
1

>  <r_epik_Ionization_Penalty>  (71) 
1.28388e-07

>  <r_epik_Ionization_Penalty_Charging>  (71) 
0

>  <r_epik_Ionization_Penalty_Neutral>  (71) 
1.28388e-07

>  <r_epik_State_Penalty>  (71) 
-0

>  <r_epik_Charging_Adjusted_Penalty>  (71) 
0

>  <i_epik_Tot_Q>  (71) 
0

>  <i_epik_Tot_abs_Q>  (71) 
0

>  <s_epik_Chemistry_Notes>  (71) 
This compound has an ester and may undergo hydrolysis at high or low pH.

>  <s_lp_Force_Field>  (71) 
OPLS3e

>  <r_lp_Energy>  (71) 
19.8139

>  <b_lp_Chiralities_Consistent>  (71) 
1

>  <s_lp_Variant>  (71) 
23:0-1

>  <s_i_glide_gridfile>  (71) 
pfpi4k_grid

>  <i_i_glide_lignum>  (71) 
29

>  <i_i_glide_rotatable_bonds>  (71) 
1

>  <r_i_docking_score>  (71) 
-3.84047

>  <r_i_glide_ligand_efficiency>  (71) 
-0.18288

>  <r_i_glide_ligand_efficiency_sa>  (71) 
-0.504551

>  <r_i_glide_ligand_efficiency_ln>  (71) 
-0.949549

>  <r_i_glide_gscore>  (71) 
-3.84047

>  <r_i_glide_lipo>  (71) 
-0.600406

>  <r_i_glide_hbond>  (71) 
-0.10103

>  <r_i_glide_metal>  (71) 
-0

>  <r_i_glide_rewards>  (71) 
-1.91566

>  <r_i_glide_evdw>  (71) 
-20.3576

>  <r_i_glide_ecoul>  (71) 
-1.27595

>  <r_i_glide_erotb>  (71) 
0

>  <r_i_glide_esite>  (71) 
-0.0141071

>  <r_i_glide_emodel>  (71) 
-33.2202

>  <r_i_glide_energy>  (71) 
-21.6335

>  <r_i_glide_einternal>  (71) 
0.678255

>  <r_i_glide_intrahb_reward>  (71) 
-0.5

>  <i_i_glide_confnum>  (71) 
1

>  <i_i_glide_posenum>  (71) 
12

>  <r_i_glide_eff_state_penalty>  (71) 
0

>  <ligand_id>  (71) 
23

>  <original_smiles>  (71) 
CC1OC(=O)C2C1CC1CC3CC4OC4(C)C3C1(C)C2O

>  <smiles>  (71) 
[H]OC1([H])C2([H])C(=O)OC([H])(C([H])([H])[H])C2([H])C([H])([H])C2([H])C([H])([H])C3([H])C([H])([H])C4([H])OC4(C([H])([H])[H])C3([H])C12C([H])([H])[H]

$$$$
23:0:2
     RDKit          3D

 45 49  0  0  1  0  0  0  0  0999 V2000
    3.8138    0.3969   -3.9929 C   0  0  0  0  0  0  0  0  0  0  0  0
    4.2327   -1.0280   -3.7209 C   0  0  2  0  0  0  0  0  0  0  0  0
    3.3058   -1.8793   -4.3203 O   0  0  0  0  0  0  0  0  0  0  0  0
    3.0524   -2.9447   -3.5789 C   0  0  0  0  0  0  0  0  0  0  0  0
    2.2127   -3.7882   -3.8580 O   0  0  0  0  0  0  0  0  0  0  0  0
    3.9886   -2.9420   -2.3767 C   0  0  1  0  0  0  0  0  0  0  0  0
    4.1912   -1.4591   -2.2502 C   0  0  1  0  0  0  0  0  0  0  0  0
    5.4147   -1.2333   -1.3767 C   0  0  0  0  0  0  0  0  0  0  0  0
    5.2501   -1.8643    0.0273 C   0  0  1  0  0  0  0  0  0  0  0  0
    4.2977   -1.1426    1.0004 C   0  0  0  0  0  0  0  0  0  0  0  0
    4.0638   -2.1790    2.1176 C   0  0  1  0  0  0  0  0  0  0  0  0
    2.6366   -2.3360    2.6802 C   0  0  0  0  0  0  0  0  0  0  0  0
    2.4093   -3.8335    2.7926 C   0  0  1  0  0  0  0  0  0  0  0  0
    2.1526   -4.5893    1.6029 O   0  0  0  0  0  0  0  0  0  0  0  0
    3.4956   -4.5774    2.0622 C   0  0  2  0  0  0  0  0  0  0  0  0
    4.0184   -5.9361    2.4661 C   0  0  0  0  0  0  0  0  0  0  0  0
    4.5028   -3.5474    1.5637 C   0  0  1  0  0  0  0  0  0  0  0  0
    4.7958   -3.3474    0.0405 C   0  0  2  0  0  0  0  0  0  0  0  0
    5.9888   -4.2529   -0.3192 C   0  0  0  0  0  0  0  0  0  0  0  0
    3.6340   -3.5828   -1.0068 C   0  0  1  0  0  0  0  0  0  0  0  0
    2.3778   -3.0982   -0.5893 O   0  0  0  0  0  0  0  0  0  0  0  0
    4.4662    1.1274   -3.5111 H   0  0  0  0  0  0  0  0  0  0  0  0
    2.8108    0.4859   -3.5820 H   0  0  0  0  0  0  0  0  0  0  0  0
    3.7546    0.6197   -5.0596 H   0  0  0  0  0  0  0  0  0  0  0  0
    5.1575   -1.2806   -4.2129 H   0  0  0  0  0  0  0  0  0  0  0  0
    4.9040   -3.4043   -2.7457 H   0  0  0  0  0  0  0  0  0  0  0  0
    3.3197   -0.9975   -1.7807 H   0  0  0  0  0  0  0  0  0  0  0  0
    6.2892   -1.6459   -1.8757 H   0  0  0  0  0  0  0  0  0  0  0  0
    5.5854   -0.1775   -1.2691 H   0  0  0  0  0  0  0  0  0  0  0  0
    6.2330   -1.8018    0.4976 H   0  0  0  0  0  0  0  0  0  0  0  0
    4.7272   -0.2126    1.3837 H   0  0  0  0  0  0  0  0  0  0  0  0
    3.3595   -0.8814    0.5134 H   0  0  0  0  0  0  0  0  0  0  0  0
    4.7318   -1.9445    2.9454 H   0  0  0  0  0  0  0  0  0  0  0  0
    2.5423   -1.8633    3.6633 H   0  0  0  0  0  0  0  0  0  0  0  0
    1.8757   -1.9176    2.0259 H   0  0  0  0  0  0  0  0  0  0  0  0
    1.9593   -4.2251    3.6956 H   0  0  0  0  0  0  0  0  0  0  0  0
    4.7317   -5.8451    3.2851 H   0  0  0  0  0  0  0  0  0  0  0  0
    4.4872   -6.4329    1.6150 H   0  0  0  0  0  0  0  0  0  0  0  0
    3.1827   -6.5527    2.8025 H   0  0  0  0  0  0  0  0  0  0  0  0
    5.4468   -3.7780    2.0687 H   0  0  0  0  0  0  0  0  0  0  0  0
    5.7043   -5.3019   -0.2803 H   0  0  0  0  0  0  0  0  0  0  0  0
    6.8363   -4.1185    0.3596 H   0  0  0  0  0  0  0  0  0  0  0  0
    6.3542   -4.0359   -1.3183 H   0  0  0  0  0  0  0  0  0  0  0  0
    3.5096   -4.6544   -1.1164 H   0  0  0  0  0  0  0  0  0  0  0  0
    2.3015   -2.1594   -0.7193 H   0  0  0  0  0  0  0  0  0  0  0  0
  1  2  1  0
  1 22  1  0
  1 23  1  0
  1 24  1  0
  2  7  1  0
  2  3  1  0
  2 25  1  6
  3  4  1  0
  4  5  2  0
  4  6  1  0
  6 20  1  0
  6  7  1  0
  6 26  1  6
  7  8  1  0
  7 27  1  1
  8  9  1  0
  8 28  1  0
  8 29  1  0
  9 18  1  0
  9 10  1  0
  9 30  1  1
 10 11  1  0
 10 31  1  0
 10 32  1  0
 11 17  1  0
 11 12  1  0
 11 33  1  1
 12 13  1  0
 12 34  1  0
 12 35  1  0
 13 15  1  0
 13 14  1  0
 13 36  1  1
 14 15  1  0
 15 16  1  1
 15 17  1  0
 16 37  1  0
 16 38  1  0
 16 39  1  0
 17 18  1  0
 17 40  1  1
 18 19  1  6
 18 20  1  0
 19 41  1  0
 19 42  1  0
 19 43  1  0
 20 21  1  0
 20 44  1  6
 21 45  1  0
M  END
>  <i_m_ct_stereo_status>  (72) 
1

>  <s_m_source_file>  (72) 
/var/tmp/pbs.5076255.sched01/tmp8nmo4hef/06hb_edth.sdf

>  <i_m_source_file_index>  (72) 
29

>  <i_lp_mmshare_version>  (72) 
48012

>  <i_f3d_flags>  (72) 
0

>  <s_epik_input>  (72) 
W0NIM11bQ0BASF0xT0MoPU8pW0NASF0oW0NAQEhdMltPSF0pW0NASF0xW0NIMl1bQ0BASF0oW0NIMl0zKVtDQEBdMihbQ0gzXSlbQ0BIXTRbQ0BASF0zW0NIMl1bQ0BASF0oTzUpW0NAXTQ1W0NIM10=

>  <s_epik_cmdline>  (72) 
J2VwaWtfcHl0aG9uJywgJy1waHQnLCAnMi4wJywgJy1waCcsICc3LjAnLCAnLXRuJywgJzgnLCAnLW1hJywgJzIwMCcsICctaW1hZScsICc8aW5maWxlLm1hZT4nLCAnLW9tYWUnLCAnPG91dGZpbGUubWFlPic=

>  <r_lp_tautomer_probability>  (72) 
1

>  <r_epik_Ionization_Penalty>  (72) 
1.28388e-07

>  <r_epik_Ionization_Penalty_Charging>  (72) 
0

>  <r_epik_Ionization_Penalty_Neutral>  (72) 
1.28388e-07

>  <r_epik_State_Penalty>  (72) 
-0

>  <r_epik_Charging_Adjusted_Penalty>  (72) 
0

>  <i_epik_Tot_Q>  (72) 
0

>  <i_epik_Tot_abs_Q>  (72) 
0

>  <s_epik_Chemistry_Notes>  (72) 
This compound has an ester and may undergo hydrolysis at high or low pH.

>  <s_lp_Force_Field>  (72) 
OPLS3e

>  <r_lp_Energy>  (72) 
19.8139

>  <b_lp_Chiralities_Consistent>  (72) 
1

>  <s_lp_Variant>  (72) 
23:0-1

>  <s_i_glide_gridfile>  (72) 
pfpi4k_grid

>  <i_i_glide_lignum>  (72) 
29

>  <i_i_glide_rotatable_bonds>  (72) 
1

>  <r_i_docking_score>  (72) 
-3.37924

>  <r_i_glide_ligand_efficiency>  (72) 
-0.160916

>  <r_i_glide_ligand_efficiency_sa>  (72) 
-0.443955

>  <r_i_glide_ligand_efficiency_ln>  (72) 
-0.83551

>  <r_i_glide_gscore>  (72) 
-3.37924

>  <r_i_glide_lipo>  (72) 
-0.306

>  <r_i_glide_hbond>  (72) 
-0.273853

>  <r_i_glide_metal>  (72) 
-0

>  <r_i_glide_rewards>  (72) 
-1.72561

>  <r_i_glide_evdw>  (72) 
-20.057

>  <r_i_glide_ecoul>  (72) 
-0.472851

>  <r_i_glide_erotb>  (72) 
0

>  <r_i_glide_esite>  (72) 
0

>  <r_i_glide_emodel>  (72) 
-26.1915

>  <r_i_glide_energy>  (72) 
-20.5299

>  <r_i_glide_einternal>  (72) 
0.3207

>  <r_i_glide_intrahb_reward>  (72) 
-0

>  <i_i_glide_confnum>  (72) 
1

>  <i_i_glide_posenum>  (72) 
19

>  <r_i_glide_eff_state_penalty>  (72) 
0

>  <ligand_id>  (72) 
23

>  <original_smiles>  (72) 
CC1OC(=O)C2C1CC1CC3CC4OC4(C)C3C1(C)C2O

>  <smiles>  (72) 
[H]OC1([H])C2([H])C(=O)OC([H])(C([H])([H])[H])C2([H])C([H])([H])C2([H])C([H])([H])C3([H])C([H])([H])C4([H])OC4(C([H])([H])[H])C3([H])C12C([H])([H])[H]

$$$$
24:0:0
     RDKit          3D

 48 52  0  0  1  0  0  0  0  0999 V2000
    2.0090   -0.7271    2.1731 C   0  0  0  0  0  0  0  0  0  0  0  0
    3.0240   -1.5319    2.5269 C   0  0  0  0  0  0  0  0  0  0  0  0
    3.3565   -2.7031    1.7273 C   0  0  0  0  0  0  0  0  0  0  0  0
    3.1455   -2.9854    0.4359 C   0  0  0  0  0  0  0  0  0  0  0  0
    3.9565   -4.2204   -0.1660 C   0  0  1  0  0  0  0  0  0  0  0  0
    4.4359   -3.6590   -1.5134 C   0  0  1  0  0  0  0  0  0  0  0  0
    3.3836   -3.2765   -2.3808 O   0  0  0  0  0  0  0  0  0  0  0  0
    5.4126   -2.4316   -1.0854 C   0  0  1  0  0  0  0  0  0  0  0  0
    4.9982   -1.0523   -1.6219 C   0  0  0  0  0  0  0  0  0  0  0  0
    5.8787   -2.3429    0.4893 C   0  0  0  0  0  0  0  0  0  0  0  0
    5.5992   -3.6132    1.4517 C   0  0  2  0  0  0  0  0  0  0  0  0
    5.4295   -4.6025    0.3718 C   0  0  1  0  0  0  0  0  0  0  0  0
    5.8628   -5.9366    0.6330 O   0  0  0  0  0  0  0  0  0  0  0  0
    4.2093   -3.7521    2.2822 C   0  0  1  0  0  0  0  0  0  0  0  0
    4.2316   -3.7446    3.7867 C   0  0  2  0  0  0  0  0  0  0  0  0
    4.8216   -2.4107    4.2517 C   0  0  0  0  0  0  0  0  0  0  0  0
    3.8389   -1.2572    3.8212 C   0  0  1  0  0  0  0  0  0  0  0  0
    4.5685    0.0925    3.7582 C   0  0  0  0  0  0  0  0  0  0  0  0
    4.7337   -5.0591    4.0136 O   0  0  0  0  0  0  0  0  0  0  0  0
    4.2191   -5.9274    3.0791 C   0  0  0  0  0  0  0  0  0  0  0  0
    4.3917   -7.1419    3.0079 O   0  0  0  0  0  0  0  0  0  0  0  0
    3.4190   -5.0969    2.0637 C   0  0  2  0  0  0  0  0  0  0  0  0
    3.2204   -5.4352    0.4907 C   0  0  1  0  0  0  0  0  0  0  0  0
    1.8480   -5.4619    0.1376 O   0  0  0  0  0  0  0  0  0  0  0  0
    1.7465    0.1318    2.7716 H   0  0  0  0  0  0  0  0  0  0  0  0
    1.4210   -0.9177    1.2878 H   0  0  0  0  0  0  0  0  0  0  0  0
    2.5853   -2.3323   -0.2148 H   0  0  0  0  0  0  0  0  0  0  0  0
    4.9955   -4.4168   -2.0684 H   0  0  0  0  0  0  0  0  0  0  0  0
    2.9539   -4.0697   -2.6742 H   0  0  0  0  0  0  0  0  0  0  0  0
    6.3317   -2.6462   -1.6312 H   0  0  0  0  0  0  0  0  0  0  0  0
    4.0653   -0.6971   -1.1830 H   0  0  0  0  0  0  0  0  0  0  0  0
    4.8828   -1.0598   -2.7072 H   0  0  0  0  0  0  0  0  0  0  0  0
    5.7670   -0.3162   -1.3841 H   0  0  0  0  0  0  0  0  0  0  0  0
    6.9564   -2.1777    0.4872 H   0  0  0  0  0  0  0  0  0  0  0  0
    5.4845   -1.4311    0.9396 H   0  0  0  0  0  0  0  0  0  0  0  0
    6.4711   -3.8504    2.0620 H   0  0  0  0  0  0  0  0  0  0  0  0
    6.2479   -4.4955   -0.3435 H   0  0  0  0  0  0  0  0  0  0  0  0
    5.3474   -6.3137    1.3335 H   0  0  0  0  0  0  0  0  0  0  0  0
    3.2095   -3.7652    4.1718 H   0  0  0  0  0  0  0  0  0  0  0  0
    4.9639   -2.4017    5.3350 H   0  0  0  0  0  0  0  0  0  0  0  0
    5.8070   -2.2599    3.8049 H   0  0  0  0  0  0  0  0  0  0  0  0
    3.0914   -1.1869    4.6120 H   0  0  0  0  0  0  0  0  0  0  0  0
    3.8673    0.9212    3.6392 H   0  0  0  0  0  0  0  0  0  0  0  0
    5.2638    0.1243    2.9179 H   0  0  0  0  0  0  0  0  0  0  0  0
    5.1381    0.2765    4.6712 H   0  0  0  0  0  0  0  0  0  0  0  0
    2.4253   -5.0167    2.5050 H   0  0  0  0  0  0  0  0  0  0  0  0
    3.5946   -6.4163    0.1896 H   0  0  0  0  0  0  0  0  0  0  0  0
    1.8181   -5.5137   -0.8089 H   0  0  0  0  0  0  0  0  0  0  0  0
  1  2  2  0
  1 25  1  0
  1 26  1  0
  2 17  1  0
  2  3  1  0
 14  3  1  6
  3  4  2  0
  5  4  1  1
  4 27  1  0
  5 12  1  0
  5 23  1  0
  5  6  1  0
  6  7  1  0
  6  8  1  0
  6 28  1  6
  7 29  1  0
  8  9  1  0
  8 10  1  0
  8 30  1  6
  9 31  1  0
  9 32  1  0
  9 33  1  0
 10 11  1  0
 10 34  1  0
 10 35  1  0
 11 12  1  0
 11 14  1  0
 11 36  1  1
 12 13  1  0
 12 37  1  6
 13 38  1  0
 14 22  1  0
 14 15  1  0
 15 16  1  0
 15 19  1  0
 15 39  1  1
 16 17  1  0
 16 40  1  0
 16 41  1  0
 17 18  1  0
 17 42  1  1
 18 43  1  0
 18 44  1  0
 18 45  1  0
 19 20  1  0
 20 21  2  0
 20 22  1  0
 22 23  1  0
 22 46  1  1
 23 24  1  0
 23 47  1  1
 24 48  1  0
M  END
>  <i_m_ct_stereo_status>  (73) 
1

>  <s_m_source_file>  (73) 
/var/tmp/pbs.5076255.sched01/tmp8nmo4hef/06hb_edth.sdf

>  <i_m_source_file_index>  (73) 
30

>  <i_lp_mmshare_version>  (73) 
48012

>  <i_f3d_flags>  (73) 
0

>  <s_epik_input>  (73) 
W09IXVtDQEBIXTFbQ0BIXTJDKD1PKU9bQ0BASF0oW0NIMl1bQ0BASF0oW0NIM10pQzM9W0NIMl0pW0NAQF0yKEMzPVtDSF1bQ0BAXTE0NSlbQ0BASF0oW0NASF01W09IXSlbQ0gyXVtDQEhdKFtDSDNdKVtDQEBIXTRbT0hd

>  <s_epik_cmdline>  (73) 
J2VwaWtfcHl0aG9uJywgJy1waHQnLCAnMi4wJywgJy1waCcsICc3LjAnLCAnLXRuJywgJzgnLCAnLW1hJywgJzIwMCcsICctaW1hZScsICc8aW5maWxlLm1hZT4nLCAnLW9tYWUnLCAnPG91dGZpbGUubWFlPic=

>  <r_lp_tautomer_probability>  (73) 
1

>  <r_epik_Ionization_Penalty>  (73) 
2.10434e-07

>  <r_epik_Ionization_Penalty_Charging>  (73) 
0

>  <r_epik_Ionization_Penalty_Neutral>  (73) 
2.10434e-07

>  <r_epik_State_Penalty>  (73) 
-0

>  <r_epik_Charging_Adjusted_Penalty>  (73) 
0

>  <i_epik_Tot_Q>  (73) 
0

>  <i_epik_Tot_abs_Q>  (73) 
0

>  <s_epik_Chemistry_Notes>  (73) 
This compound has an ester and may undergo hydrolysis at high or low pH.

>  <s_lp_Force_Field>  (73) 
OPLS3e

>  <r_lp_Energy>  (73) 
178.204

>  <b_lp_Chiralities_Consistent>  (73) 
1

>  <s_lp_Variant>  (73) 
24:0-1

>  <s_i_glide_gridfile>  (73) 
pfpi4k_grid

>  <i_i_glide_lignum>  (73) 
30

>  <i_i_glide_rotatable_bonds>  (73) 
3

>  <r_i_docking_score>  (73) 
-4.13554

>  <r_i_glide_ligand_efficiency>  (73) 
-0.172314

>  <r_i_glide_ligand_efficiency_sa>  (73) 
-0.49704

>  <r_i_glide_ligand_efficiency_ln>  (73) 
-0.989825

>  <r_i_glide_gscore>  (73) 
-4.13554

>  <r_i_glide_lipo>  (73) 
-0.283071

>  <r_i_glide_hbond>  (73) 
-0.54761

>  <r_i_glide_metal>  (73) 
-0

>  <r_i_glide_rewards>  (73) 
-1.14279

>  <r_i_glide_evdw>  (73) 
-23.1123

>  <r_i_glide_ecoul>  (73) 
-6.70973

>  <r_i_glide_erotb>  (73) 
0

>  <r_i_glide_esite>  (73) 
0

>  <r_i_glide_emodel>  (73) 
-36.8627

>  <r_i_glide_energy>  (73) 
-29.822

>  <r_i_glide_einternal>  (73) 
0.70474

>  <r_i_glide_intrahb_reward>  (73) 
-0

>  <i_i_glide_confnum>  (73) 
1

>  <i_i_glide_posenum>  (73) 
3

>  <r_i_glide_eff_state_penalty>  (73) 
0

>  <ligand_id>  (73) 
24

>  <original_smiles>  (73) 
C=C1C2=CC34C(O)C(C)CC(C3O)C23C(CC1C)OC(=O)C3C4O

>  <smiles>  (73) 
[H]OC1([H])C2([H])C(=O)OC3([H])C([H])([H])C([H])(C([H])([H])[H])C(=C([H])[H])C4=C([H])C15C([H])(O[H])C([H])(C([H])([H])[H])C([H])([H])C([H])(C5([H])O[H])C432

$$$$
24:0:1
     RDKit          3D

 48 52  0  0  1  0  0  0  0  0999 V2000
    6.5850   -5.8848    4.3197 C   0  0  0  0  0  0  0  0  0  0  0  0
    5.7801   -6.3478    3.3528 C   0  0  0  0  0  0  0  0  0  0  0  0
    4.8058   -5.4733    2.7163 C   0  0  0  0  0  0  0  0  0  0  0  0
    4.7764   -4.1438    2.5591 C   0  0  0  0  0  0  0  0  0  0  0  0
    3.7341   -3.5790    1.4923 C   0  0  1  0  0  0  0  0  0  0  0  0
    4.5756   -2.5297    0.7505 C   0  0  1  0  0  0  0  0  0  0  0  0
    5.0758   -1.5052    1.5932 O   0  0  0  0  0  0  0  0  0  0  0  0
    5.7459   -3.4159    0.0485 C   0  0  1  0  0  0  0  0  0  0  0  0
    7.1917   -3.0510    0.4296 C   0  0  0  0  0  0  0  0  0  0  0  0
    5.5399   -5.0430    0.0300 C   0  0  0  0  0  0  0  0  0  0  0  0
    4.1012   -5.6586    0.4025 C   0  0  2  0  0  0  0  0  0  0  0  0
    3.3435   -4.4217    0.1676 C   0  0  1  0  0  0  0  0  0  0  0  0
    2.0224   -4.6135   -0.3225 O   0  0  0  0  0  0  0  0  0  0  0  0
    3.7156   -6.0440    1.9279 C   0  0  1  0  0  0  0  0  0  0  0  0
    3.4334   -7.4762    2.2863 C   0  0  2  0  0  0  0  0  0  0  0  0
    4.6730   -8.3139    1.9733 C   0  0  0  0  0  0  0  0  0  0  0  0
    5.8352   -7.8430    2.9244 C   0  0  1  0  0  0  0  0  0  0  0  0
    7.2068   -8.2218    2.3462 C   0  0  0  0  0  0  0  0  0  0  0  0
    2.1343   -7.6070    1.7139 O   0  0  0  0  0  0  0  0  0  0  0  0
    1.4220   -6.4456    1.8930 C   0  0  0  0  0  0  0  0  0  0  0  0
    0.2324   -6.2574    1.6357 O   0  0  0  0  0  0  0  0  0  0  0  0
    2.3899   -5.3951    2.4751 C   0  0  2  0  0  0  0  0  0  0  0  0
    2.3791   -3.7839    2.2370 C   0  0  1  0  0  0  0  0  0  0  0  0
    2.3520   -3.1072    3.4841 O   0  0  0  0  0  0  0  0  0  0  0  0
    7.2975   -6.5321    4.8140 H   0  0  0  0  0  0  0  0  0  0  0  0
    6.5397   -4.8531    4.6451 H   0  0  0  0  0  0  0  0  0  0  0  0
    5.5123   -3.4900    2.9983 H   0  0  0  0  0  0  0  0  0  0  0  0
    3.9722   -2.0204   -0.0089 H   0  0  0  0  0  0  0  0  0  0  0  0
    4.3496   -0.9578    1.8457 H   0  0  0  0  0  0  0  0  0  0  0  0
    5.6826   -3.1230   -1.0009 H   0  0  0  0  0  0  0  0  0  0  0  0
    7.4017   -3.2893    1.4704 H   0  0  0  0  0  0  0  0  0  0  0  0
    7.3912   -1.9904    0.2680 H   0  0  0  0  0  0  0  0  0  0  0  0
    7.8950   -3.6096   -0.1880 H   0  0  0  0  0  0  0  0  0  0  0  0
    5.7061   -5.3431   -0.9990 H   0  0  0  0  0  0  0  0  0  0  0  0
    6.3320   -5.5358    0.5976 H   0  0  0  0  0  0  0  0  0  0  0  0
    3.8073   -6.4382   -0.3013 H   0  0  0  0  0  0  0  0  0  0  0  0
    3.6278   -3.9758   -0.7909 H   0  0  0  0  0  0  0  0  0  0  0  0
    2.0913   -4.9410   -1.2146 H   0  0  0  0  0  0  0  0  0  0  0  0
    3.2738   -7.5601    3.3642 H   0  0  0  0  0  0  0  0  0  0  0  0
    4.4710   -9.3768    2.1166 H   0  0  0  0  0  0  0  0  0  0  0  0
    4.9545   -8.1906    0.9277 H   0  0  0  0  0  0  0  0  0  0  0  0
    5.7075   -8.4004    3.8555 H   0  0  0  0  0  0  0  0  0  0  0  0
    8.0055   -8.0692    3.0728 H   0  0  0  0  0  0  0  0  0  0  0  0
    7.4430   -7.6243    1.4652 H   0  0  0  0  0  0  0  0  0  0  0  0
    7.2241   -9.2717    2.0566 H   0  0  0  0  0  0  0  0  0  0  0  0
    2.3400   -5.5474    3.5564 H   0  0  0  0  0  0  0  0  0  0  0  0
    1.5212   -3.4030    1.6924 H   0  0  0  0  0  0  0  0  0  0  0  0
    2.3690   -2.1777    3.3164 H   0  0  0  0  0  0  0  0  0  0  0  0
  1  2  2  0
  1 25  1  0
  1 26  1  0
  2 17  1  0
  2  3  1  0
 14  3  1  1
  3  4  2  0
  5  4  1  1
  4 27  1  0
  5 12  1  0
  5 23  1  0
  5  6  1  0
  6  7  1  0
  6  8  1  0
  6 28  1  6
  7 29  1  0
  8  9  1  0
  8 10  1  0
  8 30  1  6
  9 31  1  0
  9 32  1  0
  9 33  1  0
 10 11  1  0
 10 34  1  0
 10 35  1  0
 11 12  1  0
 11 14  1  0
 11 36  1  6
 12 13  1  0
 12 37  1  6
 13 38  1  0
 14 22  1  0
 14 15  1  0
 15 16  1  0
 15 19  1  0
 15 39  1  1
 16 17  1  0
 16 40  1  0
 16 41  1  0
 17 18  1  0
 17 42  1  1
 18 43  1  0
 18 44  1  0
 18 45  1  0
 19 20  1  0
 20 21  2  0
 20 22  1  0
 22 23  1  0
 22 46  1  1
 23 24  1  0
 23 47  1  6
 24 48  1  0
M  END
>  <i_m_ct_stereo_status>  (74) 
1

>  <s_m_source_file>  (74) 
/var/tmp/pbs.5076255.sched01/tmp8nmo4hef/06hb_edth.sdf

>  <i_m_source_file_index>  (74) 
30

>  <i_lp_mmshare_version>  (74) 
48012

>  <i_f3d_flags>  (74) 
0

>  <s_epik_input>  (74) 
W09IXVtDQEBIXTFbQ0BIXTJDKD1PKU9bQ0BASF0oW0NIMl1bQ0BASF0oW0NIM10pQzM9W0NIMl0pW0NAQF0yKEMzPVtDSF1bQ0BAXTE0NSlbQ0BASF0oW0NASF01W09IXSlbQ0gyXVtDQEhdKFtDSDNdKVtDQEBIXTRbT0hd

>  <s_epik_cmdline>  (74) 
J2VwaWtfcHl0aG9uJywgJy1waHQnLCAnMi4wJywgJy1waCcsICc3LjAnLCAnLXRuJywgJzgnLCAnLW1hJywgJzIwMCcsICctaW1hZScsICc8aW5maWxlLm1hZT4nLCAnLW9tYWUnLCAnPG91dGZpbGUubWFlPic=

>  <r_lp_tautomer_probability>  (74) 
1

>  <r_epik_Ionization_Penalty>  (74) 
2.10434e-07

>  <r_epik_Ionization_Penalty_Charging>  (74) 
0

>  <r_epik_Ionization_Penalty_Neutral>  (74) 
2.10434e-07

>  <r_epik_State_Penalty>  (74) 
-0

>  <r_epik_Charging_Adjusted_Penalty>  (74) 
0

>  <i_epik_Tot_Q>  (74) 
0

>  <i_epik_Tot_abs_Q>  (74) 
0

>  <s_epik_Chemistry_Notes>  (74) 
This compound has an ester and may undergo hydrolysis at high or low pH.

>  <s_lp_Force_Field>  (74) 
OPLS3e

>  <r_lp_Energy>  (74) 
178.204

>  <b_lp_Chiralities_Consistent>  (74) 
1

>  <s_lp_Variant>  (74) 
24:0-1

>  <s_i_glide_gridfile>  (74) 
pfpi4k_grid

>  <i_i_glide_lignum>  (74) 
30

>  <i_i_glide_rotatable_bonds>  (74) 
3

>  <r_i_docking_score>  (74) 
-3.96594

>  <r_i_glide_ligand_efficiency>  (74) 
-0.165248

>  <r_i_glide_ligand_efficiency_sa>  (74) 
-0.476656

>  <r_i_glide_ligand_efficiency_ln>  (74) 
-0.949232

>  <r_i_glide_gscore>  (74) 
-3.96594

>  <r_i_glide_lipo>  (74) 
-0.463334

>  <r_i_glide_hbond>  (74) 
-0.255943

>  <r_i_glide_metal>  (74) 
-0

>  <r_i_glide_rewards>  (74) 
-1.14279

>  <r_i_glide_evdw>  (74) 
-18.6265

>  <r_i_glide_ecoul>  (74) 
-7.49515

>  <r_i_glide_erotb>  (74) 
0

>  <r_i_glide_esite>  (74) 
-0.048277

>  <r_i_glide_emodel>  (74) 
-32.588

>  <r_i_glide_energy>  (74) 
-26.1217

>  <r_i_glide_einternal>  (74) 
1.05372

>  <r_i_glide_intrahb_reward>  (74) 
-0

>  <i_i_glide_confnum>  (74) 
2

>  <i_i_glide_posenum>  (74) 
1

>  <r_i_glide_eff_state_penalty>  (74) 
0

>  <ligand_id>  (74) 
24

>  <original_smiles>  (74) 
C=C1C2=CC34C(O)C(C)CC(C3O)C23C(CC1C)OC(=O)C3C4O

>  <smiles>  (74) 
[H]OC1([H])C2([H])C(=O)OC3([H])C([H])([H])C([H])(C([H])([H])[H])C(=C([H])[H])C4=C([H])C15C([H])(O[H])C([H])(C([H])([H])[H])C([H])([H])C([H])(C5([H])O[H])C432

$$$$
24:0:2
     RDKit          3D

 48 52  0  0  1  0  0  0  0  0999 V2000
    6.4206   -6.9127    4.5798 C   0  0  0  0  0  0  0  0  0  0  0  0
    5.6014   -7.1864    3.5489 C   0  0  0  0  0  0  0  0  0  0  0  0
    4.7717   -6.1423    2.9655 C   0  0  0  0  0  0  0  0  0  0  0  0
    4.9127   -4.8073    2.9319 C   0  0  0  0  0  0  0  0  0  0  0  0
    3.9987   -4.0231    1.8932 C   0  0  1  0  0  0  0  0  0  0  0  0
    4.9993   -3.0331    1.2707 C   0  0  1  0  0  0  0  0  0  0  0  0
    5.5805   -2.1500    2.2123 O   0  0  0  0  0  0  0  0  0  0  0  0
    6.0771   -4.0019    0.5239 C   0  0  1  0  0  0  0  0  0  0  0  0
    7.5432   -3.8680    0.9657 C   0  0  0  0  0  0  0  0  0  0  0  0
    5.6650   -5.5766    0.3474 C   0  0  0  0  0  0  0  0  0  0  0  0
    4.1461   -6.0259    0.6198 C   0  0  2  0  0  0  0  0  0  0  0  0
    3.5574   -4.6813    0.4831 C   0  0  1  0  0  0  0  0  0  0  0  0
    2.2346   -4.6362   -0.0413 O   0  0  0  0  0  0  0  0  0  0  0  0
    3.6572   -6.4992    2.0903 C   0  0  1  0  0  0  0  0  0  0  0  0
    3.1852   -7.9131    2.3069 C   0  0  2  0  0  0  0  0  0  0  0  0
    4.3237   -8.8686    1.9610 C   0  0  0  0  0  0  0  0  0  0  0  0
    5.4887   -8.6339    2.9906 C   0  0  1  0  0  0  0  0  0  0  0  0
    6.8244   -9.1338    2.4233 C   0  0  0  0  0  0  0  0  0  0  0  0
    1.9109   -7.8284    1.6818 O   0  0  0  0  0  0  0  0  0  0  0  0
    1.3389   -6.6108    1.9427 C   0  0  0  0  0  0  0  0  0  0  0  0
    0.2003   -6.2558    1.6659 O   0  0  0  0  0  0  0  0  0  0  0  0
    2.4011   -5.7394    2.6576 C   0  0  2  0  0  0  0  0  0  0  0  0
    2.5895   -4.1197    2.5652 C   0  0  1  0  0  0  0  0  0  0  0  0
    2.5751   -3.5420    3.8631 O   0  0  0  0  0  0  0  0  0  0  0  0
    7.0211   -7.6889    5.0339 H   0  0  0  0  0  0  0  0  0  0  0  0
    6.4966   -5.9168    4.9916 H   0  0  0  0  0  0  0  0  0  0  0  0
    5.7116   -4.3002    3.4491 H   0  0  0  0  0  0  0  0  0  0  0  0
    4.5020   -2.3859    0.5418 H   0  0  0  0  0  0  0  0  0  0  0  0
    4.9150   -1.5379    2.4868 H   0  0  0  0  0  0  0  0  0  0  0  0
    6.0985   -3.6092   -0.4934 H   0  0  0  0  0  0  0  0  0  0  0  0
    7.6858   -4.2360    1.9822 H   0  0  0  0  0  0  0  0  0  0  0  0
    7.8814   -2.8325    0.9054 H   0  0  0  0  0  0  0  0  0  0  0  0
    8.1969   -4.4559    0.3211 H   0  0  0  0  0  0  0  0  0  0  0  0
    5.8158   -5.8200   -0.7007 H   0  0  0  0  0  0  0  0  0  0  0  0
    6.3604   -6.2137    0.8985 H   0  0  0  0  0  0  0  0  0  0  0  0
    3.7970   -6.6851   -0.1705 H   0  0  0  0  0  0  0  0  0  0  0  0
    3.9381   -4.2000   -0.4222 H   0  0  0  0  0  0  0  0  0  0  0  0
    2.2748   -4.8731   -0.9595 H   0  0  0  0  0  0  0  0  0  0  0  0
    2.9697   -8.0668    3.3680 H   0  0  0  0  0  0  0  0  0  0  0  0
    3.9810   -9.9047    1.9967 H   0  0  0  0  0  0  0  0  0  0  0  0
    4.6617   -8.6899    0.9396 H   0  0  0  0  0  0  0  0  0  0  0  0
    5.2504   -9.2521    3.8596 H   0  0  0  0  0  0  0  0  0  0  0  0
    7.6020   -9.1496    3.1870 H   0  0  0  0  0  0  0  0  0  0  0  0
    7.1697   -8.4956    1.6095 H   0  0  0  0  0  0  0  0  0  0  0  0
    6.7251  -10.1486    2.0352 H   0  0  0  0  0  0  0  0  0  0  0  0
    2.2786   -5.9805    3.7136 H   0  0  0  0  0  0  0  0  0  0  0  0
    1.7964   -3.6066    2.0245 H   0  0  0  0  0  0  0  0  0  0  0  0
    3.2497   -3.9574    4.3773 H   0  0  0  0  0  0  0  0  0  0  0  0
  1  2  2  0
  1 25  1  0
  1 26  1  0
  2 17  1  0
  2  3  1  0
 14  3  1  1
  3  4  2  0
  5  4  1  1
  4 27  1  0
  5 12  1  0
  5 23  1  0
  5  6  1  0
  6  7  1  0
  6  8  1  0
  6 28  1  6
  7 29  1  0
  8  9  1  0
  8 10  1  0
  8 30  1  6
  9 31  1  0
  9 32  1  0
  9 33  1  0
 10 11  1  0
 10 34  1  0
 10 35  1  0
 11 12  1  0
 11 14  1  0
 11 36  1  6
 12 13  1  0
 12 37  1  6
 13 38  1  0
 14 22  1  0
 14 15  1  0
 15 16  1  0
 15 19  1  0
 15 39  1  1
 16 17  1  0
 16 40  1  0
 16 41  1  0
 17 18  1  0
 17 42  1  1
 18 43  1  0
 18 44  1  0
 18 45  1  0
 19 20  1  0
 20 21  2  0
 20 22  1  0
 22 23  1  0
 22 46  1  1
 23 24  1  0
 23 47  1  6
 24 48  1  0
M  END
>  <i_m_ct_stereo_status>  (75) 
1

>  <s_m_source_file>  (75) 
/var/tmp/pbs.5076255.sched01/tmp8nmo4hef/06hb_edth.sdf

>  <i_m_source_file_index>  (75) 
30

>  <i_lp_mmshare_version>  (75) 
48012

>  <i_f3d_flags>  (75) 
0

>  <s_epik_input>  (75) 
W09IXVtDQEBIXTFbQ0BIXTJDKD1PKU9bQ0BASF0oW0NIMl1bQ0BASF0oW0NIM10pQzM9W0NIMl0pW0NAQF0yKEMzPVtDSF1bQ0BAXTE0NSlbQ0BASF0oW0NASF01W09IXSlbQ0gyXVtDQEhdKFtDSDNdKVtDQEBIXTRbT0hd

>  <s_epik_cmdline>  (75) 
J2VwaWtfcHl0aG9uJywgJy1waHQnLCAnMi4wJywgJy1waCcsICc3LjAnLCAnLXRuJywgJzgnLCAnLW1hJywgJzIwMCcsICctaW1hZScsICc8aW5maWxlLm1hZT4nLCAnLW9tYWUnLCAnPG91dGZpbGUubWFlPic=

>  <r_lp_tautomer_probability>  (75) 
1

>  <r_epik_Ionization_Penalty>  (75) 
2.10434e-07

>  <r_epik_Ionization_Penalty_Charging>  (75) 
0

>  <r_epik_Ionization_Penalty_Neutral>  (75) 
2.10434e-07

>  <r_epik_State_Penalty>  (75) 
-0

>  <r_epik_Charging_Adjusted_Penalty>  (75) 
0

>  <i_epik_Tot_Q>  (75) 
0

>  <i_epik_Tot_abs_Q>  (75) 
0

>  <s_epik_Chemistry_Notes>  (75) 
This compound has an ester and may undergo hydrolysis at high or low pH.

>  <s_lp_Force_Field>  (75) 
OPLS3e

>  <r_lp_Energy>  (75) 
178.204

>  <b_lp_Chiralities_Consistent>  (75) 
1

>  <s_lp_Variant>  (75) 
24:0-1

>  <s_i_glide_gridfile>  (75) 
pfpi4k_grid

>  <i_i_glide_lignum>  (75) 
30

>  <i_i_glide_rotatable_bonds>  (75) 
3

>  <r_i_docking_score>  (75) 
-3.84145

>  <r_i_glide_ligand_efficiency>  (75) 
-0.16006

>  <r_i_glide_ligand_efficiency_sa>  (75) 
-0.461694

>  <r_i_glide_ligand_efficiency_ln>  (75) 
-0.919435

>  <r_i_glide_gscore>  (75) 
-3.84145

>  <r_i_glide_lipo>  (75) 
-0.536814

>  <r_i_glide_hbond>  (75) 
-0.266155

>  <r_i_glide_metal>  (75) 
-0

>  <r_i_glide_rewards>  (75) 
-1.14279

>  <r_i_glide_evdw>  (75) 
-20.0361

>  <r_i_glide_ecoul>  (75) 
-5.6414

>  <r_i_glide_erotb>  (75) 
0

>  <r_i_glide_esite>  (75) 
-0.0476772

>  <r_i_glide_emodel>  (75) 
-31.9744

>  <r_i_glide_energy>  (75) 
-25.6775

>  <r_i_glide_einternal>  (75) 
0.821866

>  <r_i_glide_intrahb_reward>  (75) 
-0

>  <i_i_glide_confnum>  (75) 
2

>  <i_i_glide_posenum>  (75) 
7

>  <r_i_glide_eff_state_penalty>  (75) 
0

>  <ligand_id>  (75) 
24

>  <original_smiles>  (75) 
C=C1C2=CC34C(O)C(C)CC(C3O)C23C(CC1C)OC(=O)C3C4O

>  <smiles>  (75) 
[H]OC1([H])C2([H])C(=O)OC3([H])C([H])([H])C([H])(C([H])([H])[H])C(=C([H])[H])C4=C([H])C15C([H])(O[H])C([H])(C([H])([H])[H])C([H])([H])C([H])(C5([H])O[H])C432

$$$$
25:0:0
     RDKit          3D

 49 53  0  0  1  0  0  0  0  0999 V2000
    2.2273   -3.6113   -0.9990 C   0  0  0  0  0  0  0  0  0  0  0  0
    3.7566   -3.4949   -1.1532 C   0  0  2  0  0  0  0  0  0  0  0  0
    4.6185   -4.5439   -0.3500 C   0  0  2  0  0  0  0  0  0  0  0  0
    3.9222   -5.6563    0.4921 C   0  0  0  0  0  0  0  0  0  0  0  0
    4.8113   -6.2771    1.6170 C   0  0  0  0  0  0  0  0  0  0  0  0
    5.2215   -5.4603    2.9099 C   0  0  1  0  0  0  0  0  0  0  0  0
    6.6297   -5.8484    3.3897 C   0  0  0  0  0  0  0  0  0  0  0  0
    4.9860   -3.9127    2.9860 C   0  0  2  0  0  0  0  0  0  0  0  0
    5.3164   -3.1142    4.1310 O   0  0  0  0  0  0  0  0  0  0  0  0
    3.9534   -3.5418    4.0274 C   0  0  2  0  0  0  0  0  0  0  0  0
    3.4009   -4.3367    5.1956 C   0  0  0  0  0  0  0  0  0  0  0  0
    3.0711   -2.8198    3.2100 O   0  0  0  0  0  0  0  0  0  0  0  0
    3.4076   -3.2520    1.7976 O   0  0  0  0  0  0  0  0  0  0  0  0
    4.8182   -3.1412    1.6746 C   0  0  1  0  0  0  0  0  0  0  0  0
    4.8634   -1.6053    1.5168 C   0  0  0  0  0  0  0  0  0  0  0  0
    4.0917   -1.1844    0.2114 C   0  0  0  0  0  0  0  0  0  0  0  0
    4.3141   -2.0093   -1.1171 C   0  0  2  0  0  0  0  0  0  0  0  0
    3.7011   -1.2144   -2.2991 C   0  0  0  0  0  0  0  0  0  0  0  0
    5.8217   -2.0707   -1.3822 C   0  0  0  0  0  0  0  0  0  0  0  0
    6.5591   -2.9329   -0.3539 C   0  0  0  0  0  0  0  0  0  0  0  0
    5.6110   -3.8017    0.5093 C   0  0  2  0  0  0  0  0  0  0  0  0
    1.8669   -3.2306   -0.0456 H   0  0  0  0  0  0  0  0  0  0  0  0
    1.8994   -4.6456   -1.1027 H   0  0  0  0  0  0  0  0  0  0  0  0
    1.7099   -3.0554   -1.7802 H   0  0  0  0  0  0  0  0  0  0  0  0
    3.9082   -3.8162   -2.1840 H   0  0  0  0  0  0  0  0  0  0  0  0
    5.2195   -5.0727   -1.0907 H   0  0  0  0  0  0  0  0  0  0  0  0
    2.9644   -5.3538    0.9133 H   0  0  0  0  0  0  0  0  0  0  0  0
    3.6679   -6.4557   -0.2039 H   0  0  0  0  0  0  0  0  0  0  0  0
    4.2966   -7.1736    1.9640 H   0  0  0  0  0  0  0  0  0  0  0  0
    5.7145   -6.6650    1.1432 H   0  0  0  0  0  0  0  0  0  0  0  0
    4.5722   -5.8992    3.6624 H   0  0  0  0  0  0  0  0  0  0  0  0
    7.4044   -5.4694    2.7233 H   0  0  0  0  0  0  0  0  0  0  0  0
    6.7366   -6.9329    3.4550 H   0  0  0  0  0  0  0  0  0  0  0  0
    6.8197   -5.4444    4.3857 H   0  0  0  0  0  0  0  0  0  0  0  0
    2.9075   -3.6720    5.9053 H   0  0  0  0  0  0  0  0  0  0  0  0
    4.2108   -4.8404    5.7206 H   0  0  0  0  0  0  0  0  0  0  0  0
    2.6877   -5.0878    4.8546 H   0  0  0  0  0  0  0  0  0  0  0  0
    4.4192   -1.0834    2.3647 H   0  0  0  0  0  0  0  0  0  0  0  0
    5.8884   -1.2346    1.5043 H   0  0  0  0  0  0  0  0  0  0  0  0
    3.0213   -1.1534    0.4196 H   0  0  0  0  0  0  0  0  0  0  0  0
    4.3557   -0.1444    0.0151 H   0  0  0  0  0  0  0  0  0  0  0  0
    4.1843   -0.2424   -2.4261 H   0  0  0  0  0  0  0  0  0  0  0  0
    2.6370   -1.0226   -2.1538 H   0  0  0  0  0  0  0  0  0  0  0  0
    3.8108   -1.7534   -3.2411 H   0  0  0  0  0  0  0  0  0  0  0  0
    6.0059   -2.4833   -2.3759 H   0  0  0  0  0  0  0  0  0  0  0  0
    6.2155   -1.0591   -1.3808 H   0  0  0  0  0  0  0  0  0  0  0  0
    7.2368   -3.5932   -0.8944 H   0  0  0  0  0  0  0  0  0  0  0  0
    7.2196   -2.3335    0.2698 H   0  0  0  0  0  0  0  0  0  0  0  0
    6.3442   -4.4898    0.9203 H   0  0  0  0  0  0  0  0  0  0  0  0
  1  2  1  0
  1 22  1  0
  1 23  1  0
  1 24  1  0
  2 17  1  0
  2  3  1  0
  2 25  1  6
  3 21  1  0
  3  4  1  0
  3 26  1  6
  4  5  1  0
  4 27  1  0
  4 28  1  0
  5  6  1  0
  5 29  1  0
  5 30  1  0
  6  7  1  0
  6  8  1  0
  6 31  1  1
  7 32  1  0
  7 33  1  0
  7 34  1  0
  8 10  1  0
  8 14  1  0
  8  9  1  1
  9 10  1  0
 10 11  1  1
 10 12  1  0
 11 35  1  0
 11 36  1  0
 11 37  1  0
 12 13  1  0
 14 13  1  6
 14 21  1  0
 14 15  1  0
 15 16  1  0
 15 38  1  0
 15 39  1  0
 16 17  1  0
 16 40  1  0
 16 41  1  0
 17 18  1  6
 17 19  1  0
 18 42  1  0
 18 43  1  0
 18 44  1  0
 19 20  1  0
 19 45  1  0
 19 46  1  0
 20 21  1  0
 20 47  1  0
 20 48  1  0
 21 49  1  1
M  END
>  <i_m_ct_stereo_status>  (76) 
1

>  <s_m_source_file>  (76) 
/var/tmp/pbs.5076255.sched01/tmp8nmo4hef/06hb_edth.sdf

>  <i_m_source_file_index>  (76) 
31

>  <i_lp_mmshare_version>  (76) 
48012

>  <i_f3d_flags>  (76) 
0

>  <s_epik_input>  (76) 
W0NIM11bQ0BASF0xW0NIMl1bQ0gyXVtDQEBIXShbQ0BASF0oW0NIM10pW0NAQF0oW0NIM10pKFtDSDJdW0NIMl0yKVtDSDJdW0NIMl0zKVtDQEBIXTNbQ0BdMihbQ0BAXTE0NSlPT1tDQEBdNShPNClbQ0gzXQ==

>  <s_epik_cmdline>  (76) 
J2VwaWtfcHl0aG9uJywgJy1waHQnLCAnMi4wJywgJy1waCcsICc3LjAnLCAnLXRuJywgJzgnLCAnLW1hJywgJzIwMCcsICctaW1hZScsICc8aW5maWxlLm1hZT4nLCAnLW9tYWUnLCAnPG91dGZpbGUubWFlPic=

>  <r_lp_tautomer_probability>  (76) 
1

>  <r_epik_Ionization_Penalty>  (76) 
2.60485e-14

>  <r_epik_Ionization_Penalty_Charging>  (76) 
0

>  <r_epik_Ionization_Penalty_Neutral>  (76) 
2.60485e-14

>  <r_epik_State_Penalty>  (76) 
-0

>  <r_epik_Charging_Adjusted_Penalty>  (76) 
0

>  <i_epik_Tot_Q>  (76) 
0

>  <i_epik_Tot_abs_Q>  (76) 
0

>  <s_lp_Force_Field>  (76) 
OPLS3e

>  <r_lp_Energy>  (76) 
90.6956

>  <b_lp_Chiralities_Consistent>  (76) 
1

>  <s_lp_Variant>  (76) 
25:0-1

>  <s_i_glide_gridfile>  (76) 
pfpi4k_grid

>  <i_i_glide_lignum>  (76) 
31

>  <i_i_glide_rotatable_bonds>  (76) 
0

>  <r_i_docking_score>  (76) 
-2.76334

>  <r_i_glide_ligand_efficiency>  (76) 
-0.131588

>  <r_i_glide_ligand_efficiency_sa>  (76) 
-0.36304

>  <r_i_glide_ligand_efficiency_ln>  (76) 
-0.68323

>  <r_i_glide_gscore>  (76) 
-2.76334

>  <r_i_glide_lipo>  (76) 
-0.329325

>  <r_i_glide_hbond>  (76) 
0

>  <r_i_glide_metal>  (76) 
-0

>  <r_i_glide_rewards>  (76) 
-1.41537

>  <r_i_glide_evdw>  (76) 
-21.6572

>  <r_i_glide_ecoul>  (76) 
0.42807

>  <r_i_glide_erotb>  (76) 
0

>  <r_i_glide_esite>  (76) 
0

>  <r_i_glide_emodel>  (76) 
-24.6176

>  <r_i_glide_energy>  (76) 
-21.2291

>  <r_i_glide_einternal>  (76) 
0

>  <r_i_glide_intrahb_reward>  (76) 
-0

>  <i_i_glide_confnum>  (76) 
2

>  <i_i_glide_posenum>  (76) 
13

>  <r_i_glide_eff_state_penalty>  (76) 
0

>  <ligand_id>  (76) 
25

>  <original_smiles>  (76) 
CC1C2CCC(C)C34OC3(C)OOC43CCC1(C)CCC23

>  <smiles>  (76) 
[H]C([H])([H])C12OOC34C([H])([H])C([H])([H])C5(C([H])([H])[H])C([H])([H])C([H])([H])C3([H])C([H])(C([H])([H])C([H])([H])C([H])(C([H])([H])[H])C14O2)C5([H])C([H])([H])[H]

$$$$
25:0:1
     RDKit          3D

 49 53  0  0  1  0  0  0  0  0999 V2000
    2.3546   -3.8128   -0.9232 C   0  0  0  0  0  0  0  0  0  0  0  0
    3.8846   -3.8309   -0.7144 C   0  0  2  0  0  0  0  0  0  0  0  0
    4.3870   -4.5069    0.6172 C   0  0  2  0  0  0  0  0  0  0  0  0
    3.3641   -5.1554    1.6026 C   0  0  0  0  0  0  0  0  0  0  0  0
    3.8803   -5.3021    3.0698 C   0  0  0  0  0  0  0  0  0  0  0  0
    4.0966   -4.0491    4.0153 C   0  0  1  0  0  0  0  0  0  0  0  0
    5.2774   -4.2618    4.9669 C   0  0  0  0  0  0  0  0  0  0  0  0
    4.0720   -2.5966    3.4336 C   0  0  2  0  0  0  0  0  0  0  0  0
    4.2501   -1.4199    4.2331 O   0  0  0  0  0  0  0  0  0  0  0  0
    2.8964   -1.7965    3.9483 C   0  0  2  0  0  0  0  0  0  0  0  0
    1.9866   -2.0337    5.1393 C   0  0  0  0  0  0  0  0  0  0  0  0
    2.3294   -1.4322    2.7198 O   0  0  0  0  0  0  0  0  0  0  0  0
    2.9109   -2.4109    1.7200 O   0  0  0  0  0  0  0  0  0  0  0  0
    4.3148   -2.4137    1.9358 C   0  0  1  0  0  0  0  0  0  0  0  0
    4.6094   -1.0737    1.2293 C   0  0  0  0  0  0  0  0  0  0  0  0
    4.2191   -1.1834   -0.2893 C   0  0  0  0  0  0  0  0  0  0  0  0
    4.6248   -2.4762   -1.0981 C   0  0  2  0  0  0  0  0  0  0  0  0
    4.3927   -2.1951   -2.6045 C   0  0  0  0  0  0  0  0  0  0  0  0
    6.1358   -2.7012   -0.9160 C   0  0  0  0  0  0  0  0  0  0  0  0
    6.4834   -3.1079    0.5176 C   0  0  0  0  0  0  0  0  0  0  0  0
    5.2501   -3.5183    1.3600 C   0  0  2  0  0  0  0  0  0  0  0  0
    1.8451   -3.0652   -0.3184 H   0  0  0  0  0  0  0  0  0  0  0  0
    1.9191   -4.7871   -0.7070 H   0  0  0  0  0  0  0  0  0  0  0  0
    2.1023   -3.6003   -1.9625 H   0  0  0  0  0  0  0  0  0  0  0  0
    4.2224   -4.5399   -1.4705 H   0  0  0  0  0  0  0  0  0  0  0  0
    5.0614   -5.3117    0.3218 H   0  0  0  0  0  0  0  0  0  0  0  0
    2.3913   -4.6653    1.6117 H   0  0  0  0  0  0  0  0  0  0  0  0
    3.1521   -6.1554    1.2215 H   0  0  0  0  0  0  0  0  0  0  0  0
    3.1801   -5.9600    3.5855 H   0  0  0  0  0  0  0  0  0  0  0  0
    4.8045   -5.8826    3.0335 H   0  0  0  0  0  0  0  0  0  0  0  0
    3.2398   -4.1210    4.6777 H   0  0  0  0  0  0  0  0  0  0  0  0
    6.2155   -4.2342    4.4214 H   0  0  0  0  0  0  0  0  0  0  0  0
    5.2198   -5.2302    5.4631 H   0  0  0  0  0  0  0  0  0  0  0  0
    5.3125   -3.4913    5.7368 H   0  0  0  0  0  0  0  0  0  0  0  0
    1.4443   -1.1211    5.3856 H   0  0  0  0  0  0  0  0  0  0  0  0
    2.5783   -2.3142    6.0086 H   0  0  0  0  0  0  0  0  0  0  0  0
    1.2697   -2.8295    4.9338 H   0  0  0  0  0  0  0  0  0  0  0  0
    4.0587   -0.2406    1.6668 H   0  0  0  0  0  0  0  0  0  0  0  0
    5.6522   -0.7808    1.3490 H   0  0  0  0  0  0  0  0  0  0  0  0
    3.1409   -1.0411   -0.3896 H   0  0  0  0  0  0  0  0  0  0  0  0
    4.6548   -0.3167   -0.7880 H   0  0  0  0  0  0  0  0  0  0  0  0
    5.0097   -1.3681   -2.9602 H   0  0  0  0  0  0  0  0  0  0  0  0
    3.3537   -1.9315   -2.8148 H   0  0  0  0  0  0  0  0  0  0  0  0
    4.6433   -3.0698   -3.2086 H   0  0  0  0  0  0  0  0  0  0  0  0
    6.4699   -3.4856   -1.5953 H   0  0  0  0  0  0  0  0  0  0  0  0
    6.6934   -1.8106   -1.1908 H   0  0  0  0  0  0  0  0  0  0  0  0
    7.1646   -3.9568    0.4667 H   0  0  0  0  0  0  0  0  0  0  0  0
    7.0594   -2.3340    1.0207 H   0  0  0  0  0  0  0  0  0  0  0  0
    5.7668   -4.0078    2.1795 H   0  0  0  0  0  0  0  0  0  0  0  0
  1  2  1  0
  1 22  1  0
  1 23  1  0
  1 24  1  0
  2 17  1  0
  2  3  1  0
  2 25  1  6
  3 21  1  0
  3  4  1  0
  3 26  1  6
  4  5  1  0
  4 27  1  0
  4 28  1  0
  5  6  1  0
  5 29  1  0
  5 30  1  0
  6  7  1  0
  6  8  1  0
  6 31  1  1
  7 32  1  0
  7 33  1  0
  7 34  1  0
  8 10  1  0
  8 14  1  0
  8  9  1  1
  9 10  1  0
 10 11  1  1
 10 12  1  0
 11 35  1  0
 11 36  1  0
 11 37  1  0
 12 13  1  0
 14 13  1  6
 14 21  1  0
 14 15  1  0
 15 16  1  0
 15 38  1  0
 15 39  1  0
 16 17  1  0
 16 40  1  0
 16 41  1  0
 17 18  1  6
 17 19  1  0
 18 42  1  0
 18 43  1  0
 18 44  1  0
 19 20  1  0
 19 45  1  0
 19 46  1  0
 20 21  1  0
 20 47  1  0
 20 48  1  0
 21 49  1  1
M  END
>  <i_m_ct_stereo_status>  (77) 
1

>  <s_m_source_file>  (77) 
/var/tmp/pbs.5076255.sched01/tmp8nmo4hef/06hb_edth.sdf

>  <i_m_source_file_index>  (77) 
31

>  <i_lp_mmshare_version>  (77) 
48012

>  <i_f3d_flags>  (77) 
0

>  <s_epik_input>  (77) 
W0NIM11bQ0BASF0xW0NIMl1bQ0gyXVtDQEBIXShbQ0BASF0oW0NIM10pW0NAQF0oW0NIM10pKFtDSDJdW0NIMl0yKVtDSDJdW0NIMl0zKVtDQEBIXTNbQ0BdMihbQ0BAXTE0NSlPT1tDQEBdNShPNClbQ0gzXQ==

>  <s_epik_cmdline>  (77) 
J2VwaWtfcHl0aG9uJywgJy1waHQnLCAnMi4wJywgJy1waCcsICc3LjAnLCAnLXRuJywgJzgnLCAnLW1hJywgJzIwMCcsICctaW1hZScsICc8aW5maWxlLm1hZT4nLCAnLW9tYWUnLCAnPG91dGZpbGUubWFlPic=

>  <r_lp_tautomer_probability>  (77) 
1

>  <r_epik_Ionization_Penalty>  (77) 
2.60485e-14

>  <r_epik_Ionization_Penalty_Charging>  (77) 
0

>  <r_epik_Ionization_Penalty_Neutral>  (77) 
2.60485e-14

>  <r_epik_State_Penalty>  (77) 
-0

>  <r_epik_Charging_Adjusted_Penalty>  (77) 
0

>  <i_epik_Tot_Q>  (77) 
0

>  <i_epik_Tot_abs_Q>  (77) 
0

>  <s_lp_Force_Field>  (77) 
OPLS3e

>  <r_lp_Energy>  (77) 
90.6956

>  <b_lp_Chiralities_Consistent>  (77) 
1

>  <s_lp_Variant>  (77) 
25:0-1

>  <s_i_glide_gridfile>  (77) 
pfpi4k_grid

>  <i_i_glide_lignum>  (77) 
31

>  <i_i_glide_rotatable_bonds>  (77) 
0

>  <r_i_docking_score>  (77) 
-2.63936

>  <r_i_glide_ligand_efficiency>  (77) 
-0.125684

>  <r_i_glide_ligand_efficiency_sa>  (77) 
-0.346752

>  <r_i_glide_ligand_efficiency_ln>  (77) 
-0.652576

>  <r_i_glide_gscore>  (77) 
-2.63936

>  <r_i_glide_lipo>  (77) 
-0.336941

>  <r_i_glide_hbond>  (77) 
0

>  <r_i_glide_metal>  (77) 
-0

>  <r_i_glide_rewards>  (77) 
-1.41537

>  <r_i_glide_evdw>  (77) 
-20.5754

>  <r_i_glide_ecoul>  (77) 
0.944788

>  <r_i_glide_erotb>  (77) 
0

>  <r_i_glide_esite>  (77) 
0

>  <r_i_glide_emodel>  (77) 
-22.8734

>  <r_i_glide_energy>  (77) 
-19.6307

>  <r_i_glide_einternal>  (77) 
0

>  <r_i_glide_intrahb_reward>  (77) 
-0

>  <i_i_glide_confnum>  (77) 
1

>  <i_i_glide_posenum>  (77) 
6

>  <r_i_glide_eff_state_penalty>  (77) 
0

>  <ligand_id>  (77) 
25

>  <original_smiles>  (77) 
CC1C2CCC(C)C34OC3(C)OOC43CCC1(C)CCC23

>  <smiles>  (77) 
[H]C([H])([H])C12OOC34C([H])([H])C([H])([H])C5(C([H])([H])[H])C([H])([H])C([H])([H])C3([H])C([H])(C([H])([H])C([H])([H])C([H])(C([H])([H])[H])C14O2)C5([H])C([H])([H])[H]

$$$$
25:0:2
     RDKit          3D

 49 53  0  0  1  0  0  0  0  0999 V2000
    2.3800   -3.4576   -1.1976 C   0  0  0  0  0  0  0  0  0  0  0  0
    3.9143   -3.4350   -1.0241 C   0  0  2  0  0  0  0  0  0  0  0  0
    4.5133   -4.5035   -0.0338 C   0  0  2  0  0  0  0  0  0  0  0  0
    3.5774   -5.5447    0.6561 C   0  0  0  0  0  0  0  0  0  0  0  0
    4.1600   -6.1784    1.9603 C   0  0  0  0  0  0  0  0  0  0  0  0
    4.3298   -5.3472    3.2962 C   0  0  1  0  0  0  0  0  0  0  0  0
    5.5728   -5.7897    4.0822 C   0  0  0  0  0  0  0  0  0  0  0  0
    4.1771   -3.7907    3.2910 C   0  0  2  0  0  0  0  0  0  0  0  0
    4.3003   -2.9827    4.4663 O   0  0  0  0  0  0  0  0  0  0  0  0
    2.9667   -3.3331    4.0753 C   0  0  2  0  0  0  0  0  0  0  0  0
    2.1213   -4.0569    5.1047 C   0  0  0  0  0  0  0  0  0  0  0  0
    2.3298   -2.5837    3.0718 O   0  0  0  0  0  0  0  0  0  0  0  0
    2.9387   -3.0799    1.7773 O   0  0  0  0  0  0  0  0  0  0  0  0
    4.3467   -3.0538    1.9641 C   0  0  1  0  0  0  0  0  0  0  0  0
    4.5227   -1.5291    1.7941 C   0  0  0  0  0  0  0  0  0  0  0  0
    4.0872   -1.1036    0.3443 C   0  0  0  0  0  0  0  0  0  0  0  0
    4.5457   -1.9789   -0.8878 C   0  0  2  0  0  0  0  0  0  0  0  0
    4.2446   -1.1815   -2.1816 C   0  0  0  0  0  0  0  0  0  0  0  0
    6.0725   -2.1360   -0.8053 C   0  0  0  0  0  0  0  0  0  0  0  0
    6.5029   -3.0112    0.3705 C   0  0  0  0  0  0  0  0  0  0  0  0
    5.3335   -3.7942    1.0112 C   0  0  2  0  0  0  0  0  0  0  0  0
    1.8444   -3.0486   -0.3467 H   0  0  0  0  0  0  0  0  0  0  0  0
    2.0058   -4.4703   -1.3514 H   0  0  0  0  0  0  0  0  0  0  0  0
    2.0761   -2.8884   -2.0756 H   0  0  0  0  0  0  0  0  0  0  0  0
    4.2681   -3.7936   -1.9912 H   0  0  0  0  0  0  0  0  0  0  0  0
    5.2296   -5.0894   -0.6110 H   0  0  0  0  0  0  0  0  0  0  0  0
    2.5725   -5.1732    0.8512 H   0  0  0  0  0  0  0  0  0  0  0  0
    3.4275   -6.3482   -0.0643 H   0  0  0  0  0  0  0  0  0  0  0  0
    3.5269   -7.0353    2.2023 H   0  0  0  0  0  0  0  0  0  0  0  0
    5.1197   -6.6343    1.7052 H   0  0  0  0  0  0  0  0  0  0  0  0
    3.5068   -5.7246    3.8939 H   0  0  0  0  0  0  0  0  0  0  0  0
    6.4982   -5.4798    3.5950 H   0  0  0  0  0  0  0  0  0  0  0  0
    5.5920   -6.8780    4.1903 H   0  0  0  0  0  0  0  0  0  0  0  0
    5.5627   -5.3656    5.0889 H   0  0  0  0  0  0  0  0  0  0  0  0
    1.5297   -3.3477    5.6778 H   0  0  0  0  0  0  0  0  0  0  0  0
    2.7651   -4.5916    5.8044 H   0  0  0  0  0  0  0  0  0  0  0  0
    1.4583   -4.7788    4.6283 H   0  0  0  0  0  0  0  0  0  0  0  0
    3.9342   -0.9610    2.5136 H   0  0  0  0  0  0  0  0  0  0  0  0
    5.5442   -1.2201    2.0036 H   0  0  0  0  0  0  0  0  0  0  0  0
    3.0005   -1.0087    0.3114 H   0  0  0  0  0  0  0  0  0  0  0  0
    4.4491   -0.0859    0.1932 H   0  0  0  0  0  0  0  0  0  0  0  0
    4.8031   -0.2450   -2.2188 H   0  0  0  0  0  0  0  0  0  0  0  0
    3.1865   -0.9286   -2.2702 H   0  0  0  0  0  0  0  0  0  0  0  0
    4.5230   -1.7543   -3.0676 H   0  0  0  0  0  0  0  0  0  0  0  0
    6.4438   -2.5790   -1.7300 H   0  0  0  0  0  0  0  0  0  0  0  0
    6.5463   -1.1595   -0.7110 H   0  0  0  0  0  0  0  0  0  0  0  0
    7.2397   -3.7232    0.0015 H   0  0  0  0  0  0  0  0  0  0  0  0
    7.0421   -2.4299    1.1151 H   0  0  0  0  0  0  0  0  0  0  0  0
    5.9134   -4.5054    1.5868 H   0  0  0  0  0  0  0  0  0  0  0  0
  1  2  1  0
  1 22  1  0
  1 23  1  0
  1 24  1  0
  2 17  1  0
  2  3  1  0
  2 25  1  6
  3 21  1  0
  3  4  1  0
  3 26  1  6
  4  5  1  0
  4 27  1  0
  4 28  1  0
  5  6  1  0
  5 29  1  0
  5 30  1  0
  6  7  1  0
  6  8  1  0
  6 31  1  1
  7 32  1  0
  7 33  1  0
  7 34  1  0
  8 10  1  0
  8 14  1  0
  8  9  1  1
  9 10  1  0
 10 11  1  1
 10 12  1  0
 11 35  1  0
 11 36  1  0
 11 37  1  0
 12 13  1  0
 14 13  1  6
 14 21  1  0
 14 15  1  0
 15 16  1  0
 15 38  1  0
 15 39  1  0
 16 17  1  0
 16 40  1  0
 16 41  1  0
 17 18  1  6
 17 19  1  0
 18 42  1  0
 18 43  1  0
 18 44  1  0
 19 20  1  0
 19 45  1  0
 19 46  1  0
 20 21  1  0
 20 47  1  0
 20 48  1  0
 21 49  1  1
M  END
>  <i_m_ct_stereo_status>  (78) 
1

>  <s_m_source_file>  (78) 
/var/tmp/pbs.5076255.sched01/tmp8nmo4hef/06hb_edth.sdf

>  <i_m_source_file_index>  (78) 
31

>  <i_lp_mmshare_version>  (78) 
48012

>  <i_f3d_flags>  (78) 
0

>  <s_epik_input>  (78) 
W0NIM11bQ0BASF0xW0NIMl1bQ0gyXVtDQEBIXShbQ0BASF0oW0NIM10pW0NAQF0oW0NIM10pKFtDSDJdW0NIMl0yKVtDSDJdW0NIMl0zKVtDQEBIXTNbQ0BdMihbQ0BAXTE0NSlPT1tDQEBdNShPNClbQ0gzXQ==

>  <s_epik_cmdline>  (78) 
J2VwaWtfcHl0aG9uJywgJy1waHQnLCAnMi4wJywgJy1waCcsICc3LjAnLCAnLXRuJywgJzgnLCAnLW1hJywgJzIwMCcsICctaW1hZScsICc8aW5maWxlLm1hZT4nLCAnLW9tYWUnLCAnPG91dGZpbGUubWFlPic=

>  <r_lp_tautomer_probability>  (78) 
1

>  <r_epik_Ionization_Penalty>  (78) 
2.60485e-14

>  <r_epik_Ionization_Penalty_Charging>  (78) 
0

>  <r_epik_Ionization_Penalty_Neutral>  (78) 
2.60485e-14

>  <r_epik_State_Penalty>  (78) 
-0

>  <r_epik_Charging_Adjusted_Penalty>  (78) 
0

>  <i_epik_Tot_Q>  (78) 
0

>  <i_epik_Tot_abs_Q>  (78) 
0

>  <s_lp_Force_Field>  (78) 
OPLS3e

>  <r_lp_Energy>  (78) 
90.6956

>  <b_lp_Chiralities_Consistent>  (78) 
1

>  <s_lp_Variant>  (78) 
25:0-1

>  <s_i_glide_gridfile>  (78) 
pfpi4k_grid

>  <i_i_glide_lignum>  (78) 
31

>  <i_i_glide_rotatable_bonds>  (78) 
0

>  <r_i_docking_score>  (78) 
-2.59389

>  <r_i_glide_ligand_efficiency>  (78) 
-0.123519

>  <r_i_glide_ligand_efficiency_sa>  (78) 
-0.340779

>  <r_i_glide_ligand_efficiency_ln>  (78) 
-0.641335

>  <r_i_glide_gscore>  (78) 
-2.59389

>  <r_i_glide_lipo>  (78) 
-0.231123

>  <r_i_glide_hbond>  (78) 
0

>  <r_i_glide_metal>  (78) 
-0

>  <r_i_glide_rewards>  (78) 
-1.41562

>  <r_i_glide_evdw>  (78) 
-21.3877

>  <r_i_glide_ecoul>  (78) 
0.814877

>  <r_i_glide_erotb>  (78) 
0

>  <r_i_glide_esite>  (78) 
0

>  <r_i_glide_emodel>  (78) 
-23.7571

>  <r_i_glide_energy>  (78) 
-20.5728

>  <r_i_glide_einternal>  (78) 
0

>  <r_i_glide_intrahb_reward>  (78) 
-0

>  <i_i_glide_confnum>  (78) 
2

>  <i_i_glide_posenum>  (78) 
28

>  <r_i_glide_eff_state_penalty>  (78) 
0

>  <ligand_id>  (78) 
25

>  <original_smiles>  (78) 
CC1C2CCC(C)C34OC3(C)OOC43CCC1(C)CCC23

>  <smiles>  (78) 
[H]C([H])([H])C12OOC34C([H])([H])C([H])([H])C5(C([H])([H])[H])C([H])([H])C([H])([H])C3([H])C([H])(C([H])([H])C([H])([H])C([H])(C([H])([H])[H])C14O2)C5([H])C([H])([H])[H]

$$$$
26:0:0
     RDKit          3D

 60 63  0  0  1  0  0  0  0  0999 V2000
    3.6684   -1.9031    4.0921 C   0  0  0  0  0  0  0  0  0  0  0  0
    3.2167   -3.1914    4.8189 C   0  0  0  0  0  0  0  0  0  0  0  0
    3.3365   -2.8730    6.3187 C   0  0  0  0  0  0  0  0  0  0  0  0
    3.9082   -4.5469    4.3880 C   0  0  2  0  0  0  0  0  0  0  0  0
    5.4435   -4.3779    4.2751 C   0  0  0  0  0  0  0  0  0  0  0  0
    6.1885   -5.6789    3.9875 C   0  0  0  0  0  0  0  0  0  0  0  0
    5.6541   -6.3380    2.7078 C   0  0  1  0  0  0  0  0  0  0  0  0
    6.5268   -7.5541    2.3481 C   0  0  0  0  0  0  0  0  0  0  0  0
    4.1627   -6.6600    2.9290 C   0  0  2  0  0  0  0  0  0  0  0  0
    3.6286   -7.6798    1.8961 C   0  0  0  0  0  0  0  0  0  0  0  0
    2.1102   -7.9202    1.8526 C   0  0  0  0  0  0  0  0  0  0  0  0
    1.1611   -6.6996    1.6769 C   0  0  1  0  0  0  0  0  0  0  0  0
   -0.2212   -7.2389    1.3149 C   0  0  0  0  0  0  0  0  0  0  0  0
    0.9937   -5.8870    2.8190 O   0  0  0  0  0  0  0  0  0  0  0  0
    2.1540   -6.0161    3.7049 O   0  0  0  0  0  0  0  0  0  0  0  0
    3.2960   -5.3679    3.1623 C   0  0  1  0  0  0  0  0  0  0  0  0
    2.9720   -4.4288    1.9365 C   0  0  1  0  0  0  0  0  0  0  0  0
    4.1018   -3.5979    1.6841 O   0  0  0  0  0  0  0  0  0  0  0  0
    3.8264   -2.5583    0.7523 C   0  0  1  0  0  0  0  0  0  0  0  0
    5.0032   -1.5660    0.7483 C   0  0  0  0  0  0  0  0  0  0  0  0
    3.4255   -3.1557   -0.6106 C   0  0  1  0  0  0  0  0  0  0  0  0
    4.5796   -3.7550   -1.4325 C   0  0  0  0  0  0  0  0  0  0  0  0
    5.4188   -2.7690   -1.9750 O   0  0  0  0  0  0  0  0  0  0  0  0
    2.3668   -4.0882   -0.3889 O   0  0  0  0  0  0  0  0  0  0  0  0
    2.6064   -5.0974    0.5493 C   0  0  2  0  0  0  0  0  0  0  0  0
    1.4559   -5.8847    0.5545 O   0  0  0  0  0  0  0  0  0  0  0  0
    4.7427   -1.7524    4.1109 H   0  0  0  0  0  0  0  0  0  0  0  0
    3.2892   -0.9961    4.5737 H   0  0  0  0  0  0  0  0  0  0  0  0
    3.3258   -1.8678    3.0688 H   0  0  0  0  0  0  0  0  0  0  0  0
    2.1565   -3.2820    4.6229 H   0  0  0  0  0  0  0  0  0  0  0  0
    4.3682   -2.8321    6.6513 H   0  0  0  0  0  0  0  0  0  0  0  0
    2.7986   -3.5818    6.9337 H   0  0  0  0  0  0  0  0  0  0  0  0
    2.9072   -1.8958    6.5333 H   0  0  0  0  0  0  0  0  0  0  0  0
    3.7540   -5.2013    5.2415 H   0  0  0  0  0  0  0  0  0  0  0  0
    5.7136   -3.6793    3.4845 H   0  0  0  0  0  0  0  0  0  0  0  0
    5.8268   -3.9585    5.2088 H   0  0  0  0  0  0  0  0  0  0  0  0
    7.2460   -5.4633    3.8517 H   0  0  0  0  0  0  0  0  0  0  0  0
    6.1205   -6.3637    4.8354 H   0  0  0  0  0  0  0  0  0  0  0  0
    5.7277   -5.6322    1.8824 H   0  0  0  0  0  0  0  0  0  0  0  0
    6.4429   -8.3456    3.0935 H   0  0  0  0  0  0  0  0  0  0  0  0
    7.5717   -7.2558    2.2863 H   0  0  0  0  0  0  0  0  0  0  0  0
    6.2590   -7.9660    1.3761 H   0  0  0  0  0  0  0  0  0  0  0  0
    4.1083   -7.2192    3.8641 H   0  0  0  0  0  0  0  0  0  0  0  0
    4.0038   -7.4836    0.8975 H   0  0  0  0  0  0  0  0  0  0  0  0
    4.0798   -8.6468    2.1196 H   0  0  0  0  0  0  0  0  0  0  0  0
    1.9540   -8.5652    0.9904 H   0  0  0  0  0  0  0  0  0  0  0  0
    1.8099   -8.5521    2.6974 H   0  0  0  0  0  0  0  0  0  0  0  0
   -0.9527   -6.4328    1.2422 H   0  0  0  0  0  0  0  0  0  0  0  0
   -0.5840   -8.0145    2.0042 H   0  0  0  0  0  0  0  0  0  0  0  0
   -0.1449   -7.7045    0.3337 H   0  0  0  0  0  0  0  0  0  0  0  0
    2.1320   -3.7714    2.1950 H   0  0  0  0  0  0  0  0  0  0  0  0
    2.9379   -2.0151    1.0880 H   0  0  0  0  0  0  0  0  0  0  0  0
    4.8445   -0.7613    0.0370 H   0  0  0  0  0  0  0  0  0  0  0  0
    5.9629   -2.0360    0.5274 H   0  0  0  0  0  0  0  0  0  0  0  0
    5.1123   -1.1023    1.7246 H   0  0  0  0  0  0  0  0  0  0  0  0
    3.0083   -2.3542   -1.2203 H   0  0  0  0  0  0  0  0  0  0  0  0
    5.1660   -4.4543   -0.8324 H   0  0  0  0  0  0  0  0  0  0  0  0
    4.1843   -4.2822   -2.2998 H   0  0  0  0  0  0  0  0  0  0  0  0
    5.7921   -2.2734   -1.2308 H   0  0  0  0  0  0  0  0  0  0  0  0
    3.4231   -5.6905    0.1509 H   0  0  0  0  0  0  0  0  0  0  0  0
  1  2  1  0
  1 27  1  0
  1 28  1  0
  1 29  1  0
  2  3  1  0
  2  4  1  0
  2 30  1  0
  3 31  1  0
  3 32  1  0
  3 33  1  0
  4 16  1  0
  4  5  1  0
  4 34  1  1
  5  6  1  0
  5 35  1  0
  5 36  1  0
  6  7  1  0
  6 37  1  0
  6 38  1  0
  7  8  1  0
  7  9  1  0
  7 39  1  6
  8 40  1  0
  8 41  1  0
  8 42  1  0
  9 16  1  0
  9 10  1  0
  9 43  1  1
 10 11  1  0
 10 44  1  0
 10 45  1  0
 11 12  1  0
 11 46  1  0
 11 47  1  0
 12 26  1  0
 12 13  1  6
 12 14  1  0
 13 48  1  0
 13 49  1  0
 13 50  1  0
 14 15  1  0
 16 15  1  1
 16 17  1  0
 17 25  1  0
 17 18  1  0
 17 51  1  1
 18 19  1  0
 19 20  1  0
 19 21  1  0
 19 52  1  1
 20 53  1  0
 20 54  1  0
 20 55  1  0
 21 22  1  0
 21 24  1  0
 21 56  1  6
 22 23  1  0
 22 57  1  0
 22 58  1  0
 23 59  1  0
 24 25  1  0
 25 26  1  0
 25 60  1  6
M  END
>  <i_m_ct_stereo_status>  (79) 
1

>  <s_m_source_file>  (79) 
/var/tmp/pbs.5076255.sched01/tmp8nmo4hef/06hb_edth.sdf

>  <i_m_source_file_index>  (79) 
32

>  <i_lp_mmshare_version>  (79) 
48012

>  <i_f3d_flags>  (79) 
0

>  <s_epik_input>  (79) 
W0NIM11bQ0hdKFtDSDNdKVtDQEBIXTFbQ0gyXVtDSDJdW0NAQEhdKFtDSDNdKVtDQEBIXShbQ0BdMTIzKVtDSDJdW0NIMl1bQ0BAXShbQ0gzXSkoT08yKU9bQ0BASF00W0NAQEhdM09bQ0BASF0oW0NIM10pW0NASF0oTzQpW0NIMl1bT0hd

>  <s_epik_cmdline>  (79) 
J2VwaWtfcHl0aG9uJywgJy1waHQnLCAnMi4wJywgJy1waCcsICc3LjAnLCAnLXRuJywgJzgnLCAnLW1hJywgJzIwMCcsICctaW1hZScsICc8aW5maWxlLm1hZT4nLCAnLW9tYWUnLCAnPG91dGZpbGUubWFlPic=

>  <r_lp_tautomer_probability>  (79) 
1

>  <r_epik_Ionization_Penalty>  (79) 
5.3832e-08

>  <r_epik_Ionization_Penalty_Charging>  (79) 
0

>  <r_epik_Ionization_Penalty_Neutral>  (79) 
5.3832e-08

>  <r_epik_State_Penalty>  (79) 
-0

>  <r_epik_Charging_Adjusted_Penalty>  (79) 
0

>  <i_epik_Tot_Q>  (79) 
0

>  <i_epik_Tot_abs_Q>  (79) 
0

>  <s_epik_Chemistry_Notes>  (79) 
This compound contains an acetal/aminal-like group ( X-CH(R)-Y where X, Y are N, S, or O) that may be acid/base labile, releasing an aldehyde.

>  <s_lp_Force_Field>  (79) 
OPLS3e

>  <r_lp_Energy>  (79) 
47.2687

>  <b_lp_Chiralities_Consistent>  (79) 
1

>  <s_lp_Variant>  (79) 
26:0-1

>  <s_i_glide_gridfile>  (79) 
pfpi4k_grid

>  <i_i_glide_lignum>  (79) 
32

>  <i_i_glide_rotatable_bonds>  (79) 
3

>  <r_i_docking_score>  (79) 
-2.42331

>  <r_i_glide_ligand_efficiency>  (79) 
-0.0932044

>  <r_i_glide_ligand_efficiency_sa>  (79) 
-0.276118

>  <r_i_glide_ligand_efficiency_ln>  (79) 
-0.569107

>  <r_i_glide_gscore>  (79) 
-2.42331

>  <r_i_glide_lipo>  (79) 
-0.122198

>  <r_i_glide_hbond>  (79) 
-0.156111

>  <r_i_glide_metal>  (79) 
-0

>  <r_i_glide_rewards>  (79) 
-0.883088

>  <r_i_glide_evdw>  (79) 
-18.2669

>  <r_i_glide_ecoul>  (79) 
-2.58558

>  <r_i_glide_erotb>  (79) 
0.140559

>  <r_i_glide_esite>  (79) 
-0.101297

>  <r_i_glide_emodel>  (79) 
-20.6131

>  <r_i_glide_energy>  (79) 
-20.8524

>  <r_i_glide_einternal>  (79) 
2.70835

>  <r_i_glide_intrahb_reward>  (79) 
-0

>  <i_i_glide_confnum>  (79) 
2

>  <i_i_glide_posenum>  (79) 
2

>  <r_i_glide_eff_state_penalty>  (79) 
0

>  <ligand_id>  (79) 
26

>  <original_smiles>  (79) 
CC(C)C1CCC(C)C2CCC3(C)OOC12C1OC(C)C(CO)OC1O3

>  <smiles>  (79) 
[H]OC([H])([H])C1([H])OC2([H])OC3(C([H])([H])[H])OOC4(C2([H])OC1([H])C([H])([H])[H])C([H])(C([H])(C([H])([H])[H])C([H])([H])[H])C([H])([H])C([H])([H])C([H])(C([H])([H])[H])C4([H])C([H])([H])C3([H])[H]

$$$$
26:0:1
     RDKit          3D

 60 63  0  0  1  0  0  0  0  0999 V2000
   -1.3942   -7.8184    2.1946 C   0  0  0  0  0  0  0  0  0  0  0  0
   -0.7513   -8.7335    3.2438 C   0  0  0  0  0  0  0  0  0  0  0  0
   -1.1324   -8.2144    4.6440 C   0  0  0  0  0  0  0  0  0  0  0  0
    0.7786   -9.0129    3.0373 C   0  0  2  0  0  0  0  0  0  0  0  0
    1.3322   -9.9131    4.1632 C   0  0  0  0  0  0  0  0  0  0  0  0
    2.7861  -10.3498    3.9522 C   0  0  0  0  0  0  0  0  0  0  0  0
    3.7060   -9.1373    3.7409 C   0  0  1  0  0  0  0  0  0  0  0  0
    5.1748   -9.5947    3.6829 C   0  0  0  0  0  0  0  0  0  0  0  0
    3.2243   -8.3736    2.4925 C   0  0  2  0  0  0  0  0  0  0  0  0
    4.2965   -7.3816    1.9645 C   0  0  0  0  0  0  0  0  0  0  0  0
    3.8812   -6.3756    0.8735 C   0  0  0  0  0  0  0  0  0  0  0  0
    2.6279   -5.4772    1.1167 C   0  0  1  0  0  0  0  0  0  0  0  0
    2.6786   -4.3321    0.0772 C   0  0  0  0  0  0  0  0  0  0  0  0
    1.3740   -6.1320    1.0028 O   0  0  0  0  0  0  0  0  0  0  0  0
    1.5121   -7.5606    1.2898 O   0  0  0  0  0  0  0  0  0  0  0  0
    1.7639   -7.8112    2.6693 C   0  0  1  0  0  0  0  0  0  0  0  0
    1.5457   -6.5651    3.6205 C   0  0  1  0  0  0  0  0  0  0  0  0
    1.5039   -7.0094    4.9676 O   0  0  0  0  0  0  0  0  0  0  0  0
    1.0532   -5.9925    5.8765 C   0  0  1  0  0  0  0  0  0  0  0  0
    0.7809   -6.6385    7.2445 C   0  0  0  0  0  0  0  0  0  0  0  0
    1.9964   -4.7996    5.8298 C   0  0  1  0  0  0  0  0  0  0  0  0
    3.3506   -5.0136    6.5412 C   0  0  0  0  0  0  0  0  0  0  0  0
    3.1991   -4.9471    7.9392 O   0  0  0  0  0  0  0  0  0  0  0  0
    2.1692   -4.3856    4.4742 O   0  0  0  0  0  0  0  0  0  0  0  0
    2.5865   -5.3783    3.5700 C   0  0  2  0  0  0  0  0  0  0  0  0
    2.6831   -4.7463    2.3302 O   0  0  0  0  0  0  0  0  0  0  0  0
   -0.8821   -6.8706    2.0704 H   0  0  0  0  0  0  0  0  0  0  0  0
   -2.4310   -7.5838    2.4492 H   0  0  0  0  0  0  0  0  0  0  0  0
   -1.3858   -8.3245    1.2302 H   0  0  0  0  0  0  0  0  0  0  0  0
   -1.2478   -9.6977    3.1475 H   0  0  0  0  0  0  0  0  0  0  0  0
   -0.7303   -7.2598    4.8350 H   0  0  0  0  0  0  0  0  0  0  0  0
   -0.9310   -8.9325    5.4501 H   0  0  0  0  0  0  0  0  0  0  0  0
   -2.1883   -8.0650    4.7110 H   0  0  0  0  0  0  0  0  0  0  0  0
    0.7975   -9.6417    2.1545 H   0  0  0  0  0  0  0  0  0  0  0  0
    1.2803   -9.4225    5.1353 H   0  0  0  0  0  0  0  0  0  0  0  0
    0.7095  -10.8055    4.2462 H   0  0  0  0  0  0  0  0  0  0  0  0
    3.1227  -10.9096    4.8239 H   0  0  0  0  0  0  0  0  0  0  0  0
    2.8560  -11.0318    3.1030 H   0  0  0  0  0  0  0  0  0  0  0  0
    3.6111   -8.4744    4.5988 H   0  0  0  0  0  0  0  0  0  0  0  0
    5.3783  -10.1989    2.7979 H   0  0  0  0  0  0  0  0  0  0  0  0
    5.4174  -10.1891    4.5617 H   0  0  0  0  0  0  0  0  0  0  0  0
    5.8591   -8.7462    3.6836 H   0  0  0  0  0  0  0  0  0  0  0  0
    3.1581   -9.1095    1.6921 H   0  0  0  0  0  0  0  0  0  0  0  0
    4.7905   -6.8671    2.7794 H   0  0  0  0  0  0  0  0  0  0  0  0
    5.1102   -7.9713    1.5371 H   0  0  0  0  0  0  0  0  0  0  0  0
    4.7392   -5.7111    0.7714 H   0  0  0  0  0  0  0  0  0  0  0  0
    3.8268   -6.8786   -0.0952 H   0  0  0  0  0  0  0  0  0  0  0  0
    1.8140   -3.6827    0.1658 H   0  0  0  0  0  0  0  0  0  0  0  0
    2.7448   -4.6603   -0.9553 H   0  0  0  0  0  0  0  0  0  0  0  0
    3.5656   -3.7209    0.2552 H   0  0  0  0  0  0  0  0  0  0  0  0
    0.5808   -6.1047    3.4049 H   0  0  0  0  0  0  0  0  0  0  0  0
    0.1007   -5.6055    5.5083 H   0  0  0  0  0  0  0  0  0  0  0  0
    0.4442   -5.8882    7.9691 H   0  0  0  0  0  0  0  0  0  0  0  0
    1.6645   -7.1408    7.6508 H   0  0  0  0  0  0  0  0  0  0  0  0
    0.0025   -7.3869    7.1753 H   0  0  0  0  0  0  0  0  0  0  0  0
    1.4993   -3.9588    6.3342 H   0  0  0  0  0  0  0  0  0  0  0  0
    3.7910   -5.9680    6.2478 H   0  0  0  0  0  0  0  0  0  0  0  0
    4.0353   -4.2225    6.2483 H   0  0  0  0  0  0  0  0  0  0  0  0
    2.6810   -5.7016    8.2221 H   0  0  0  0  0  0  0  0  0  0  0  0
    3.5733   -5.6837    3.8775 H   0  0  0  0  0  0  0  0  0  0  0  0
  1  2  1  0
  1 27  1  0
  1 28  1  0
  1 29  1  0
  2  3  1  0
  2  4  1  0
  2 30  1  0
  3 31  1  0
  3 32  1  0
  3 33  1  0
  4 16  1  0
  4  5  1  0
  4 34  1  6
  5  6  1  0
  5 35  1  0
  5 36  1  0
  6  7  1  0
  6 37  1  0
  6 38  1  0
  7  8  1  0
  7  9  1  0
  7 39  1  1
  8 40  1  0
  8 41  1  0
  8 42  1  0
  9 16  1  0
  9 10  1  0
  9 43  1  6
 10 11  1  0
 10 44  1  0
 10 45  1  0
 11 12  1  0
 11 46  1  0
 11 47  1  0
 12 26  1  0
 12 13  1  6
 12 14  1  0
 13 48  1  0
 13 49  1  0
 13 50  1  0
 14 15  1  0
 16 15  1  6
 16 17  1  0
 17 25  1  0
 17 18  1  0
 17 51  1  6
 18 19  1  0
 19 20  1  0
 19 21  1  0
 19 52  1  6
 20 53  1  0
 20 54  1  0
 20 55  1  0
 21 22  1  0
 21 24  1  0
 21 56  1  1
 22 23  1  0
 22 57  1  0
 22 58  1  0
 23 59  1  0
 24 25  1  0
 25 26  1  0
 25 60  1  1
M  END
>  <i_m_ct_stereo_status>  (80) 
1

>  <s_m_source_file>  (80) 
/var/tmp/pbs.5076255.sched01/tmp8nmo4hef/06hb_edth.sdf

>  <i_m_source_file_index>  (80) 
32

>  <i_lp_mmshare_version>  (80) 
48012

>  <i_f3d_flags>  (80) 
0

>  <s_epik_input>  (80) 
W0NIM11bQ0hdKFtDSDNdKVtDQEBIXTFbQ0gyXVtDSDJdW0NAQEhdKFtDSDNdKVtDQEBIXShbQ0BdMTIzKVtDSDJdW0NIMl1bQ0BAXShbQ0gzXSkoT08yKU9bQ0BASF00W0NAQEhdM09bQ0BASF0oW0NIM10pW0NASF0oTzQpW0NIMl1bT0hd

>  <s_epik_cmdline>  (80) 
J2VwaWtfcHl0aG9uJywgJy1waHQnLCAnMi4wJywgJy1waCcsICc3LjAnLCAnLXRuJywgJzgnLCAnLW1hJywgJzIwMCcsICctaW1hZScsICc8aW5maWxlLm1hZT4nLCAnLW9tYWUnLCAnPG91dGZpbGUubWFlPic=

>  <r_lp_tautomer_probability>  (80) 
1

>  <r_epik_Ionization_Penalty>  (80) 
5.3832e-08

>  <r_epik_Ionization_Penalty_Charging>  (80) 
0

>  <r_epik_Ionization_Penalty_Neutral>  (80) 
5.3832e-08

>  <r_epik_State_Penalty>  (80) 
-0

>  <r_epik_Charging_Adjusted_Penalty>  (80) 
0

>  <i_epik_Tot_Q>  (80) 
0

>  <i_epik_Tot_abs_Q>  (80) 
0

>  <s_epik_Chemistry_Notes>  (80) 
This compound contains an acetal/aminal-like group ( X-CH(R)-Y where X, Y are N, S, or O) that may be acid/base labile, releasing an aldehyde.

>  <s_lp_Force_Field>  (80) 
OPLS3e

>  <r_lp_Energy>  (80) 
47.2687

>  <b_lp_Chiralities_Consistent>  (80) 
1

>  <s_lp_Variant>  (80) 
26:0-1

>  <s_i_glide_gridfile>  (80) 
pfpi4k_grid

>  <i_i_glide_lignum>  (80) 
32

>  <i_i_glide_rotatable_bonds>  (80) 
3

>  <r_i_docking_score>  (80) 
-2.03438

>  <r_i_glide_ligand_efficiency>  (80) 
-0.0782454

>  <r_i_glide_ligand_efficiency_sa>  (80) 
-0.231802

>  <r_i_glide_ligand_efficiency_ln>  (80) 
-0.477768

>  <r_i_glide_gscore>  (80) 
-2.03438

>  <r_i_glide_lipo>  (80) 
-0.11765

>  <r_i_glide_hbond>  (80) 
-0.136439

>  <r_i_glide_metal>  (80) 
-0

>  <r_i_glide_rewards>  (80) 
-0.883088

>  <r_i_glide_evdw>  (80) 
-18.1395

>  <r_i_glide_ecoul>  (80) 
-0.705688

>  <r_i_glide_erotb>  (80) 
0.140559

>  <r_i_glide_esite>  (80) 
-0.0249348

>  <r_i_glide_emodel>  (80) 
-19.2484

>  <r_i_glide_energy>  (80) 
-18.8452

>  <r_i_glide_einternal>  (80) 
3.24686

>  <r_i_glide_intrahb_reward>  (80) 
-0

>  <i_i_glide_confnum>  (80) 
1

>  <i_i_glide_posenum>  (80) 
16

>  <r_i_glide_eff_state_penalty>  (80) 
0

>  <ligand_id>  (80) 
26

>  <original_smiles>  (80) 
CC(C)C1CCC(C)C2CCC3(C)OOC12C1OC(C)C(CO)OC1O3

>  <smiles>  (80) 
[H]OC([H])([H])C1([H])OC2([H])OC3(C([H])([H])[H])OOC4(C2([H])OC1([H])C([H])([H])[H])C([H])(C([H])(C([H])([H])[H])C([H])([H])[H])C([H])([H])C([H])([H])C([H])(C([H])([H])[H])C4([H])C([H])([H])C3([H])[H]

$$$$
26:0:2
     RDKit          3D

 60 63  0  0  1  0  0  0  0  0999 V2000
   -1.4040   -7.8577    2.2504 C   0  0  0  0  0  0  0  0  0  0  0  0
   -0.7670   -8.8507    3.2262 C   0  0  0  0  0  0  0  0  0  0  0  0
   -1.0934   -8.3653    4.6590 C   0  0  0  0  0  0  0  0  0  0  0  0
    0.7446   -9.1866    2.9291 C   0  0  2  0  0  0  0  0  0  0  0  0
    1.3016  -10.1926    3.9694 C   0  0  0  0  0  0  0  0  0  0  0  0
    2.7222  -10.6767    3.6598 C   0  0  0  0  0  0  0  0  0  0  0  0
    3.6915   -9.4964    3.4895 C   0  0  1  0  0  0  0  0  0  0  0  0
    5.1321  -10.0148    3.3354 C   0  0  0  0  0  0  0  0  0  0  0  0
    3.1940   -8.6235    2.3155 C   0  0  2  0  0  0  0  0  0  0  0  0
    4.2920   -7.6477    1.8097 C   0  0  0  0  0  0  0  0  0  0  0  0
    3.8917   -6.5484    0.8126 C   0  0  0  0  0  0  0  0  0  0  0  0
    2.6875   -5.6097    1.1625 C   0  0  1  0  0  0  0  0  0  0  0  0
    2.7522   -4.4063    0.2031 C   0  0  0  0  0  0  0  0  0  0  0  0
    1.4018   -6.1976    1.0510 O   0  0  0  0  0  0  0  0  0  0  0  0
    1.4698   -7.6489    1.2470 O   0  0  0  0  0  0  0  0  0  0  0  0
    1.7656   -8.0168    2.5850 C   0  0  1  0  0  0  0  0  0  0  0  0
    1.6459   -6.8244    3.6236 C   0  0  1  0  0  0  0  0  0  0  0  0
    1.6138   -7.3690    4.9419 O   0  0  0  0  0  0  0  0  0  0  0  0
    1.2725   -6.3971    5.9418 C   0  0  1  0  0  0  0  0  0  0  0  0
    1.0466   -7.1041    7.2913 C   0  0  0  0  0  0  0  0  0  0  0  0
    2.2934   -5.2671    5.9212 C   0  0  1  0  0  0  0  0  0  0  0  0
    3.6543   -5.5515    6.6014 C   0  0  0  0  0  0  0  0  0  0  0  0
    4.1898   -6.8158    6.2801 O   0  0  0  0  0  0  0  0  0  0  0  0
    2.4300   -4.7491    4.6008 O   0  0  0  0  0  0  0  0  0  0  0  0
    2.7442   -5.6950    3.6132 C   0  0  2  0  0  0  0  0  0  0  0  0
    2.8185   -4.9749    2.4163 O   0  0  0  0  0  0  0  0  0  0  0  0
   -0.8496   -6.9362    2.1494 H   0  0  0  0  0  0  0  0  0  0  0  0
   -2.4172   -7.5918    2.5566 H   0  0  0  0  0  0  0  0  0  0  0  0
   -1.4707   -8.3134    1.2676 H   0  0  0  0  0  0  0  0  0  0  0  0
   -1.3047   -9.7880    3.1057 H   0  0  0  0  0  0  0  0  0  0  0  0
   -0.6152   -7.4357    4.8698 H   0  0  0  0  0  0  0  0  0  0  0  0
   -0.8350   -9.1117    5.4203 H   0  0  0  0  0  0  0  0  0  0  0  0
   -2.1706   -8.2048    4.7930 H   0  0  0  0  0  0  0  0  0  0  0  0
    0.6997   -9.7690    2.0134 H   0  0  0  0  0  0  0  0  0  0  0  0
    1.3108   -9.7684    4.9731 H   0  0  0  0  0  0  0  0  0  0  0  0
    0.6446  -11.0568    4.0166 H   0  0  0  0  0  0  0  0  0  0  0  0
    3.0693  -11.3106    4.4743 H   0  0  0  0  0  0  0  0  0  0  0  0
    2.7266  -11.3020    2.7646 H   0  0  0  0  0  0  0  0  0  0  0  0
    3.6627   -8.8901    4.3918 H   0  0  0  0  0  0  0  0  0  0  0  0
    5.2702  -10.5647    2.4041 H   0  0  0  0  0  0  0  0  0  0  0  0
    5.3826  -10.6783    4.1606 H   0  0  0  0  0  0  0  0  0  0  0  0
    5.8566   -9.1999    3.3637 H   0  0  0  0  0  0  0  0  0  0  0  0
    3.0629   -9.3027    1.4702 H   0  0  0  0  0  0  0  0  0  0  0  0
    4.8464   -7.2174    2.6407 H   0  0  0  0  0  0  0  0  0  0  0  0
    5.0610   -8.2450    1.3103 H   0  0  0  0  0  0  0  0  0  0  0  0
    4.7744   -5.9162    0.7237 H   0  0  0  0  0  0  0  0  0  0  0  0
    3.7970   -6.9773   -0.1861 H   0  0  0  0  0  0  0  0  0  0  0  0
    1.9253   -3.7215    0.3777 H   0  0  0  0  0  0  0  0  0  0  0  0
    2.7542   -4.6809   -0.8507 H   0  0  0  0  0  0  0  0  0  0  0  0
    3.6737   -3.8484    0.3822 H   0  0  0  0  0  0  0  0  0  0  0  0
    0.7028   -6.3057    3.4750 H   0  0  0  0  0  0  0  0  0  0  0  0
    0.3251   -5.9380    5.6552 H   0  0  0  0  0  0  0  0  0  0  0  0
    0.7745   -6.3883    8.0701 H   0  0  0  0  0  0  0  0  0  0  0  0
    1.9253   -7.6558    7.6331 H   0  0  0  0  0  0  0  0  0  0  0  0
    0.2344   -7.8176    7.2132 H   0  0  0  0  0  0  0  0  0  0  0  0
    1.8532   -4.4422    6.4929 H   0  0  0  0  0  0  0  0  0  0  0  0
    4.3685   -4.7658    6.3494 H   0  0  0  0  0  0  0  0  0  0  0  0
    3.5089   -5.5245    7.6842 H   0  0  0  0  0  0  0  0  0  0  0  0
    3.5454   -7.4907    6.5122 H   0  0  0  0  0  0  0  0  0  0  0  0
    3.7356   -6.0552    3.8529 H   0  0  0  0  0  0  0  0  0  0  0  0
  1  2  1  0
  1 27  1  0
  1 28  1  0
  1 29  1  0
  2  3  1  0
  2  4  1  0
  2 30  1  0
  3 31  1  0
  3 32  1  0
  3 33  1  0
  4 16  1  0
  4  5  1  0
  4 34  1  6
  5  6  1  0
  5 35  1  0
  5 36  1  0
  6  7  1  0
  6 37  1  0
  6 38  1  0
  7  8  1  0
  7  9  1  0
  7 39  1  1
  8 40  1  0
  8 41  1  0
  8 42  1  0
  9 16  1  0
  9 10  1  0
  9 43  1  6
 10 11  1  0
 10 44  1  0
 10 45  1  0
 11 12  1  0
 11 46  1  0
 11 47  1  0
 12 26  1  0
 12 13  1  6
 12 14  1  0
 13 48  1  0
 13 49  1  0
 13 50  1  0
 14 15  1  0
 16 15  1  6
 16 17  1  0
 17 25  1  0
 17 18  1  0
 17 51  1  6
 18 19  1  0
 19 20  1  0
 19 21  1  0
 19 52  1  6
 20 53  1  0
 20 54  1  0
 20 55  1  0
 21 22  1  0
 21 24  1  0
 21 56  1  1
 22 23  1  0
 22 57  1  0
 22 58  1  0
 23 59  1  0
 24 25  1  0
 25 26  1  0
 25 60  1  1
M  END
>  <i_m_ct_stereo_status>  (81) 
1

>  <s_m_source_file>  (81) 
/var/tmp/pbs.5076255.sched01/tmp8nmo4hef/06hb_edth.sdf

>  <i_m_source_file_index>  (81) 
32

>  <i_lp_mmshare_version>  (81) 
48012

>  <i_f3d_flags>  (81) 
0

>  <s_epik_input>  (81) 
W0NIM11bQ0hdKFtDSDNdKVtDQEBIXTFbQ0gyXVtDSDJdW0NAQEhdKFtDSDNdKVtDQEBIXShbQ0BdMTIzKVtDSDJdW0NIMl1bQ0BAXShbQ0gzXSkoT08yKU9bQ0BASF00W0NAQEhdM09bQ0BASF0oW0NIM10pW0NASF0oTzQpW0NIMl1bT0hd

>  <s_epik_cmdline>  (81) 
J2VwaWtfcHl0aG9uJywgJy1waHQnLCAnMi4wJywgJy1waCcsICc3LjAnLCAnLXRuJywgJzgnLCAnLW1hJywgJzIwMCcsICctaW1hZScsICc8aW5maWxlLm1hZT4nLCAnLW9tYWUnLCAnPG91dGZpbGUubWFlPic=

>  <r_lp_tautomer_probability>  (81) 
1

>  <r_epik_Ionization_Penalty>  (81) 
5.3832e-08

>  <r_epik_Ionization_Penalty_Charging>  (81) 
0

>  <r_epik_Ionization_Penalty_Neutral>  (81) 
5.3832e-08

>  <r_epik_State_Penalty>  (81) 
-0

>  <r_epik_Charging_Adjusted_Penalty>  (81) 
0

>  <i_epik_Tot_Q>  (81) 
0

>  <i_epik_Tot_abs_Q>  (81) 
0

>  <s_epik_Chemistry_Notes>  (81) 
This compound contains an acetal/aminal-like group ( X-CH(R)-Y where X, Y are N, S, or O) that may be acid/base labile, releasing an aldehyde.

>  <s_lp_Force_Field>  (81) 
OPLS3e

>  <r_lp_Energy>  (81) 
47.2687

>  <b_lp_Chiralities_Consistent>  (81) 
1

>  <s_lp_Variant>  (81) 
26:0-1

>  <s_i_glide_gridfile>  (81) 
pfpi4k_grid

>  <i_i_glide_lignum>  (81) 
32

>  <i_i_glide_rotatable_bonds>  (81) 
3

>  <r_i_docking_score>  (81) 
-2.00927

>  <r_i_glide_ligand_efficiency>  (81) 
-0.0772797

>  <r_i_glide_ligand_efficiency_sa>  (81) 
-0.228941

>  <r_i_glide_ligand_efficiency_ln>  (81) 
-0.471871

>  <r_i_glide_gscore>  (81) 
-2.00927

>  <r_i_glide_lipo>  (81) 
-0.120934

>  <r_i_glide_hbond>  (81) 
-0.107281

>  <r_i_glide_metal>  (81) 
-0

>  <r_i_glide_rewards>  (81) 
-0.883088

>  <r_i_glide_evdw>  (81) 
-18.3641

>  <r_i_glide_ecoul>  (81) 
-0.675055

>  <r_i_glide_erotb>  (81) 
0.140559

>  <r_i_glide_esite>  (81) 
-0.0190674

>  <r_i_glide_emodel>  (81) 
-18.4195

>  <r_i_glide_energy>  (81) 
-19.0391

>  <r_i_glide_einternal>  (81) 
4.80455

>  <r_i_glide_intrahb_reward>  (81) 
-0

>  <i_i_glide_confnum>  (81) 
3

>  <i_i_glide_posenum>  (81) 
3

>  <r_i_glide_eff_state_penalty>  (81) 
0

>  <ligand_id>  (81) 
26

>  <original_smiles>  (81) 
CC(C)C1CCC(C)C2CCC3(C)OOC12C1OC(C)C(CO)OC1O3

>  <smiles>  (81) 
[H]OC([H])([H])C1([H])OC2([H])OC3(C([H])([H])[H])OOC4(C2([H])OC1([H])C([H])([H])[H])C([H])(C([H])(C([H])([H])[H])C([H])([H])[H])C([H])([H])C([H])([H])C([H])(C([H])([H])[H])C4([H])C([H])([H])C3([H])[H]

$$$$
27:0:0
     RDKit          3D

 31 34  0  0  1  0  0  0  0  0999 V2000
    2.2406   -3.0450   -3.9084 Cl  0  0  0  0  0  0  0  0  0  0  0  0
    3.6106   -3.0052   -2.8778 C   0  0  0  0  0  0  0  0  0  0  0  0
    4.8626   -3.3981   -3.3698 C   0  0  0  0  0  0  0  0  0  0  0  0
    5.9790   -3.3510   -2.5168 C   0  0  0  0  0  0  0  0  0  0  0  0
    5.8462   -2.9349   -1.1768 C   0  0  0  0  0  0  0  0  0  0  0  0
    4.5798   -2.5303   -0.6808 C   0  0  0  0  0  0  0  0  0  0  0  0
    3.4697   -2.5760   -1.5522 C   0  0  0  0  0  0  0  0  0  0  0  0
    4.3978   -1.9963    0.6882 C   0  0  0  0  0  0  0  0  0  0  0  0
    3.6867   -0.7769    0.8953 C   0  0  0  0  0  0  0  0  0  0  0  0
    3.5210   -0.2650    2.1615 C   0  0  0  0  0  0  0  0  0  0  0  0
    4.0659   -0.9833    3.1743 N   0  0  0  0  0  0  0  0  0  0  0  0
    4.0492   -0.6870    4.4972 N   0  0  0  0  0  0  0  0  0  0  0  0
    4.7152   -1.7330    5.0116 C   0  0  0  0  0  0  0  0  0  0  0  0
    5.1455   -2.6869    4.1197 N   0  0  0  0  0  0  0  0  0  0  0  0
    4.7238   -2.1391    3.0289 C   0  0  0  0  0  0  0  0  0  0  0  0
    4.9026   -2.6601    1.7777 N   0  0  0  0  0  0  0  0  0  0  0  0
    5.5965   -3.9676    1.5819 C   0  0  0  0  0  0  0  0  0  0  0  0
    6.9883   -3.8124    0.9341 C   0  0  0  0  0  0  0  0  0  0  0  0
    7.0761   -2.8811   -0.2867 C   0  0  0  0  0  0  0  0  0  0  0  0
    4.9639   -3.7409   -4.3898 H   0  0  0  0  0  0  0  0  0  0  0  0
    6.9448   -3.6367   -2.9020 H   0  0  0  0  0  0  0  0  0  0  0  0
    2.4983   -2.2570   -1.2052 H   0  0  0  0  0  0  0  0  0  0  0  0
    3.2438   -0.2561    0.0525 H   0  0  0  0  0  0  0  0  0  0  0  0
    2.9834    0.6556    2.3922 H   0  0  0  0  0  0  0  0  0  0  0  0
    4.8951   -1.7996    6.0742 H   0  0  0  0  0  0  0  0  0  0  0  0
    5.6735   -4.5181    2.5226 H   0  0  0  0  0  0  0  0  0  0  0  0
    4.9447   -4.5790    0.9605 H   0  0  0  0  0  0  0  0  0  0  0  0
    7.7103   -3.4899    1.6800 H   0  0  0  0  0  0  0  0  0  0  0  0
    7.3085   -4.8055    0.6247 H   0  0  0  0  0  0  0  0  0  0  0  0
    7.9705   -3.1098   -0.8709 H   0  0  0  0  0  0  0  0  0  0  0  0
    7.2000   -1.8548    0.0576 H   0  0  0  0  0  0  0  0  0  0  0  0
  1  2  1  0
  2  7  2  0
  2  3  1  0
  3  4  2  0
  3 20  1  0
  4  5  1  0
  4 21  1  0
  5 19  1  0
  5  6  2  0
  6  7  1  0
  6  8  1  0
  7 22  1  0
  8 16  2  0
  8  9  1  0
  9 10  2  0
  9 23  1  0
 10 11  1  0
 10 24  1  0
 11 15  1  0
 11 12  1  0
 12 13  2  0
 13 14  1  0
 13 25  1  0
 14 15  2  0
 15 16  1  0
 16 17  1  0
 17 18  1  0
 17 26  1  0
 17 27  1  0
 18 19  1  0
 18 28  1  0
 18 29  1  0
 19 30  1  0
 19 31  1  0
M  CHG  1  16   1
M  END
>  <i_m_ct_stereo_status>  (82) 
1

>  <s_m_source_file>  (82) 
/var/tmp/pbs.5076255.sched01/tmp8nmo4hef/06hb_edth.sdf

>  <i_m_source_file_index>  (82) 
33

>  <i_lp_mmshare_version>  (82) 
48012

>  <i_f3d_flags>  (82) 
0

>  <s_epik_input>  (82) 
W2NIXTFbY0hdYyhDbClbY0hdYyhjMTIpYzNuKFtDSDJdW0NIMl1bQ0gyXTIpYzRbbitdKFtjSF1bY0hdMyluW2NIXW40

>  <s_epik_cmdline>  (82) 
J2VwaWtfcHl0aG9uJywgJy1waHQnLCAnMi4wJywgJy1waCcsICc3LjAnLCAnLXRuJywgJzgnLCAnLW1hJywgJzIwMCcsICctaW1hZScsICc8aW5maWxlLm1hZT4nLCAnLW9tYWUnLCAnPG91dGZpbGUubWFlPic=

>  <r_lp_tautomer_probability>  (82) 
1

>  <r_epik_Ionization_Penalty>  (82) 
2.81929e-13

>  <r_epik_Ionization_Penalty_Charging>  (82) 
0

>  <r_epik_Ionization_Penalty_Neutral>  (82) 
2.81929e-13

>  <r_epik_State_Penalty>  (82) 
-0

>  <r_epik_Charging_Adjusted_Penalty>  (82) 
0

>  <i_epik_Tot_Q>  (82) 
1

>  <i_epik_Tot_abs_Q>  (82) 
1

>  <s_lp_Force_Field>  (82) 
OPLS3e

>  <r_lp_Energy>  (82) 
41.5818

>  <b_lp_Chiralities_Consistent>  (82) 
1

>  <s_lp_Variant>  (82) 
27:0-1

>  <s_i_glide_gridfile>  (82) 
pfpi4k_grid

>  <i_i_glide_lignum>  (82) 
33

>  <i_i_glide_rotatable_bonds>  (82) 
0

>  <r_i_docking_score>  (82) 
-4.11672

>  <r_i_glide_ligand_efficiency>  (82) 
-0.21667

>  <r_i_glide_ligand_efficiency_sa>  (82) 
-0.578162

>  <r_i_glide_ligand_efficiency_ln>  (82) 
-1.04368

>  <r_i_glide_gscore>  (82) 
-4.11672

>  <r_i_glide_lipo>  (82) 
-0.934772

>  <r_i_glide_hbond>  (82) 
0

>  <r_i_glide_metal>  (82) 
-0

>  <r_i_glide_rewards>  (82) 
-1.71695

>  <r_i_glide_evdw>  (82) 
-22.0502

>  <r_i_glide_ecoul>  (82) 
-2.41665

>  <r_i_glide_erotb>  (82) 
0

>  <r_i_glide_esite>  (82) 
0

>  <r_i_glide_emodel>  (82) 
-30.7582

>  <r_i_glide_energy>  (82) 
-24.4668

>  <r_i_glide_einternal>  (82) 
0

>  <r_i_glide_intrahb_reward>  (82) 
-0

>  <i_i_glide_confnum>  (82) 
1

>  <i_i_glide_posenum>  (82) 
5

>  <r_i_glide_eff_state_penalty>  (82) 
0

>  <ligand_id>  (82) 
27

>  <original_smiles>  (82) 
Clc1ccc2c(c1)-c1cc[n+]3ncnc-3n1CCC2

>  <smiles>  (82) 
[H]c1nc2n(n1)c([H])c([H])c1[n+]2C([H])([H])C([H])([H])C([H])([H])c2c([H])c([H])c(Cl)c([H])c2-1

$$$$
27:0:1
     RDKit          3D

 31 34  0  0  1  0  0  0  0  0999 V2000
    3.0848   -0.6640   -3.2625 Cl  0  0  0  0  0  0  0  0  0  0  0  0
    4.1150   -1.5798   -2.2367 C   0  0  0  0  0  0  0  0  0  0  0  0
    5.0147   -2.4809   -2.8253 C   0  0  0  0  0  0  0  0  0  0  0  0
    5.9077   -3.2042   -2.0188 C   0  0  0  0  0  0  0  0  0  0  0  0
    5.8774   -3.0691   -0.6140 C   0  0  0  0  0  0  0  0  0  0  0  0
    4.9675   -2.1636   -0.0065 C   0  0  0  0  0  0  0  0  0  0  0  0
    4.0936   -1.4231   -0.8395 C   0  0  0  0  0  0  0  0  0  0  0  0
    4.9565   -1.9237    1.4559 C   0  0  0  0  0  0  0  0  0  0  0  0
    4.9824   -0.5862    1.9478 C   0  0  0  0  0  0  0  0  0  0  0  0
    4.9816   -0.3401    3.3028 C   0  0  0  0  0  0  0  0  0  0  0  0
    4.9652   -1.4264    4.1113 N   0  0  0  0  0  0  0  0  0  0  0  0
    4.9742   -1.4506    5.4689 N   0  0  0  0  0  0  0  0  0  0  0  0
    4.9480   -2.7710    5.7190 C   0  0  0  0  0  0  0  0  0  0  0  0
    4.9232   -3.5989    4.6227 N   0  0  0  0  0  0  0  0  0  0  0  0
    4.9373   -2.6983    3.6934 C   0  0  0  0  0  0  0  0  0  0  0  0
    4.9277   -2.9606    2.3505 N   0  0  0  0  0  0  0  0  0  0  0  0
    4.8437   -4.3584    1.8424 C   0  0  0  0  0  0  0  0  0  0  0  0
    6.1703   -4.8402    1.2215 C   0  0  0  0  0  0  0  0  0  0  0  0
    6.8533   -3.8630    0.2465 C   0  0  0  0  0  0  0  0  0  0  0  0
    5.0254   -2.5893   -3.8967 H   0  0  0  0  0  0  0  0  0  0  0  0
    6.6257   -3.8474   -2.5060 H   0  0  0  0  0  0  0  0  0  0  0  0
    3.4003   -0.7172   -0.3983 H   0  0  0  0  0  0  0  0  0  0  0  0
    4.9881    0.2407    1.2407 H   0  0  0  0  0  0  0  0  0  0  0  0
    4.9920    0.6455    3.7582 H   0  0  0  0  0  0  0  0  0  0  0  0
    4.9462   -3.1387    6.7362 H   0  0  0  0  0  0  0  0  0  0  0  0
    4.5209   -5.0411    2.6328 H   0  0  0  0  0  0  0  0  0  0  0  0
    4.0357   -4.3804    1.1109 H   0  0  0  0  0  0  0  0  0  0  0  0
    6.8759   -5.1191    2.0043 H   0  0  0  0  0  0  0  0  0  0  0  0
    5.9490   -5.7618    0.6802 H   0  0  0  0  0  0  0  0  0  0  0  0
    7.5620   -4.4082   -0.3730 H   0  0  0  0  0  0  0  0  0  0  0  0
    7.4659   -3.1589    0.8083 H   0  0  0  0  0  0  0  0  0  0  0  0
  1  2  1  0
  2  7  2  0
  2  3  1  0
  3  4  2  0
  3 20  1  0
  4  5  1  0
  4 21  1  0
  5 19  1  0
  5  6  2  0
  6  7  1  0
  6  8  1  0
  7 22  1  0
  8 16  2  0
  8  9  1  0
  9 10  2  0
  9 23  1  0
 10 11  1  0
 10 24  1  0
 11 15  1  0
 11 12  1  0
 12 13  2  0
 13 14  1  0
 13 25  1  0
 14 15  2  0
 15 16  1  0
 16 17  1  0
 17 18  1  0
 17 26  1  0
 17 27  1  0
 18 19  1  0
 18 28  1  0
 18 29  1  0
 19 30  1  0
 19 31  1  0
M  CHG  1  16   1
M  END
>  <i_m_ct_stereo_status>  (83) 
1

>  <s_m_source_file>  (83) 
/var/tmp/pbs.5076255.sched01/tmp8nmo4hef/06hb_edth.sdf

>  <i_m_source_file_index>  (83) 
33

>  <i_lp_mmshare_version>  (83) 
48012

>  <i_f3d_flags>  (83) 
0

>  <s_epik_input>  (83) 
W2NIXTFbY0hdYyhDbClbY0hdYyhjMTIpYzNuKFtDSDJdW0NIMl1bQ0gyXTIpYzRbbitdKFtjSF1bY0hdMyluW2NIXW40

>  <s_epik_cmdline>  (83) 
J2VwaWtfcHl0aG9uJywgJy1waHQnLCAnMi4wJywgJy1waCcsICc3LjAnLCAnLXRuJywgJzgnLCAnLW1hJywgJzIwMCcsICctaW1hZScsICc8aW5maWxlLm1hZT4nLCAnLW9tYWUnLCAnPG91dGZpbGUubWFlPic=

>  <r_lp_tautomer_probability>  (83) 
1

>  <r_epik_Ionization_Penalty>  (83) 
2.81929e-13

>  <r_epik_Ionization_Penalty_Charging>  (83) 
0

>  <r_epik_Ionization_Penalty_Neutral>  (83) 
2.81929e-13

>  <r_epik_State_Penalty>  (83) 
-0

>  <r_epik_Charging_Adjusted_Penalty>  (83) 
0

>  <i_epik_Tot_Q>  (83) 
1

>  <i_epik_Tot_abs_Q>  (83) 
1

>  <s_lp_Force_Field>  (83) 
OPLS3e

>  <r_lp_Energy>  (83) 
41.5818

>  <b_lp_Chiralities_Consistent>  (83) 
1

>  <s_lp_Variant>  (83) 
27:0-1

>  <s_i_glide_gridfile>  (83) 
pfpi4k_grid

>  <i_i_glide_lignum>  (83) 
33

>  <i_i_glide_rotatable_bonds>  (83) 
0

>  <r_i_docking_score>  (83) 
-3.95328

>  <r_i_glide_ligand_efficiency>  (83) 
-0.208068

>  <r_i_glide_ligand_efficiency_sa>  (83) 
-0.555208

>  <r_i_glide_ligand_efficiency_ln>  (83) 
-1.00224

>  <r_i_glide_gscore>  (83) 
-3.95328

>  <r_i_glide_lipo>  (83) 
-0.984508

>  <r_i_glide_hbond>  (83) 
0

>  <r_i_glide_metal>  (83) 
-0

>  <r_i_glide_rewards>  (83) 
-1.76982

>  <r_i_glide_evdw>  (83) 
-21.7544

>  <r_i_glide_ecoul>  (83) 
-0.741538

>  <r_i_glide_erotb>  (83) 
0

>  <r_i_glide_esite>  (83) 
0

>  <r_i_glide_emodel>  (83) 
-28.5376

>  <r_i_glide_energy>  (83) 
-22.496

>  <r_i_glide_einternal>  (83) 
0

>  <r_i_glide_intrahb_reward>  (83) 
-0

>  <i_i_glide_confnum>  (83) 
1

>  <i_i_glide_posenum>  (83) 
25

>  <r_i_glide_eff_state_penalty>  (83) 
0

>  <ligand_id>  (83) 
27

>  <original_smiles>  (83) 
Clc1ccc2c(c1)-c1cc[n+]3ncnc-3n1CCC2

>  <smiles>  (83) 
[H]c1nc2n(n1)c([H])c([H])c1[n+]2C([H])([H])C([H])([H])C([H])([H])c2c([H])c([H])c(Cl)c([H])c2-1

$$$$
27:0:2
     RDKit          3D

 31 34  0  0  1  0  0  0  0  0999 V2000
    3.8078   -0.1585   -4.0791 Cl  0  0  0  0  0  0  0  0  0  0  0  0
    4.1462   -1.4600   -3.0010 C   0  0  0  0  0  0  0  0  0  0  0  0
    4.3755   -2.7451   -3.5151 C   0  0  0  0  0  0  0  0  0  0  0  0
    4.6594   -3.8058   -2.6394 C   0  0  0  0  0  0  0  0  0  0  0  0
    4.6842   -3.6035   -1.2437 C   0  0  0  0  0  0  0  0  0  0  0  0
    4.4608   -2.3093   -0.7126 C   0  0  0  0  0  0  0  0  0  0  0  0
    4.2041   -1.2490   -1.6107 C   0  0  0  0  0  0  0  0  0  0  0  0
    4.5648   -2.0154    0.7335 C   0  0  0  0  0  0  0  0  0  0  0  0
    5.3542   -0.9143    1.1821 C   0  0  0  0  0  0  0  0  0  0  0  0
    5.4733   -0.6554    2.5266 C   0  0  0  0  0  0  0  0  0  0  0  0
    4.8138   -1.4804    3.3681 N   0  0  0  0  0  0  0  0  0  0  0  0
    4.7880   -1.4305    4.7244 N   0  0  0  0  0  0  0  0  0  0  0  0
    3.9992   -2.4754    5.0160 C   0  0  0  0  0  0  0  0  0  0  0  0
    3.5135   -3.1934    3.9506 N   0  0  0  0  0  0  0  0  0  0  0  0
    4.0619   -2.5177    2.9925 C   0  0  0  0  0  0  0  0  0  0  0  0
    3.9262   -2.7970    1.6614 N   0  0  0  0  0  0  0  0  0  0  0  0
    3.0564   -3.9166    1.2035 C   0  0  0  0  0  0  0  0  0  0  0  0
    3.8665   -5.1096    0.6607 C   0  0  0  0  0  0  0  0  0  0  0  0
    4.9997   -4.7680   -0.3209 C   0  0  0  0  0  0  0  0  0  0  0  0
    4.3317   -2.9175   -4.5755 H   0  0  0  0  0  0  0  0  0  0  0  0
    4.8499   -4.7832   -3.0595 H   0  0  0  0  0  0  0  0  0  0  0  0
    4.0509   -0.2608   -1.2217 H   0  0  0  0  0  0  0  0  0  0  0  0
    5.8611   -0.2767    0.4650 H   0  0  0  0  0  0  0  0  0  0  0  0
    6.0630    0.1502    2.9560 H   0  0  0  0  0  0  0  0  0  0  0  0
    3.7752   -2.7142    6.0430 H   0  0  0  0  0  0  0  0  0  0  0  0
    2.3839   -4.2444    1.9999 H   0  0  0  0  0  0  0  0  0  0  0  0
    2.4007   -3.5075    0.4373 H   0  0  0  0  0  0  0  0  0  0  0  0
    4.2711   -5.7029    1.4797 H   0  0  0  0  0  0  0  0  0  0  0  0
    3.1656   -5.7614    0.1395 H   0  0  0  0  0  0  0  0  0  0  0  0
    5.2434   -5.6500   -0.9146 H   0  0  0  0  0  0  0  0  0  0  0  0
    5.9045   -4.5243    0.2356 H   0  0  0  0  0  0  0  0  0  0  0  0
  1  2  1  0
  2  7  2  0
  2  3  1  0
  3  4  2  0
  3 20  1  0
  4  5  1  0
  4 21  1  0
  5 19  1  0
  5  6  2  0
  6  7  1  0
  6  8  1  0
  7 22  1  0
  8 16  2  0
  8  9  1  0
  9 10  2  0
  9 23  1  0
 10 11  1  0
 10 24  1  0
 11 15  1  0
 11 12  1  0
 12 13  2  0
 13 14  1  0
 13 25  1  0
 14 15  2  0
 15 16  1  0
 16 17  1  0
 17 18  1  0
 17 26  1  0
 17 27  1  0
 18 19  1  0
 18 28  1  0
 18 29  1  0
 19 30  1  0
 19 31  1  0
M  CHG  1  16   1
M  END
>  <i_m_ct_stereo_status>  (84) 
1

>  <s_m_source_file>  (84) 
/var/tmp/pbs.5076255.sched01/tmp8nmo4hef/06hb_edth.sdf

>  <i_m_source_file_index>  (84) 
33

>  <i_lp_mmshare_version>  (84) 
48012

>  <i_f3d_flags>  (84) 
0

>  <s_epik_input>  (84) 
W2NIXTFbY0hdYyhDbClbY0hdYyhjMTIpYzNuKFtDSDJdW0NIMl1bQ0gyXTIpYzRbbitdKFtjSF1bY0hdMyluW2NIXW40

>  <s_epik_cmdline>  (84) 
J2VwaWtfcHl0aG9uJywgJy1waHQnLCAnMi4wJywgJy1waCcsICc3LjAnLCAnLXRuJywgJzgnLCAnLW1hJywgJzIwMCcsICctaW1hZScsICc8aW5maWxlLm1hZT4nLCAnLW9tYWUnLCAnPG91dGZpbGUubWFlPic=

>  <r_lp_tautomer_probability>  (84) 
1

>  <r_epik_Ionization_Penalty>  (84) 
2.81929e-13

>  <r_epik_Ionization_Penalty_Charging>  (84) 
0

>  <r_epik_Ionization_Penalty_Neutral>  (84) 
2.81929e-13

>  <r_epik_State_Penalty>  (84) 
-0

>  <r_epik_Charging_Adjusted_Penalty>  (84) 
0

>  <i_epik_Tot_Q>  (84) 
1

>  <i_epik_Tot_abs_Q>  (84) 
1

>  <s_lp_Force_Field>  (84) 
OPLS3e

>  <r_lp_Energy>  (84) 
41.5818

>  <b_lp_Chiralities_Consistent>  (84) 
1

>  <s_lp_Variant>  (84) 
27:0-1

>  <s_i_glide_gridfile>  (84) 
pfpi4k_grid

>  <i_i_glide_lignum>  (84) 
33

>  <i_i_glide_rotatable_bonds>  (84) 
0

>  <r_i_docking_score>  (84) 
-3.63144

>  <r_i_glide_ligand_efficiency>  (84) 
-0.191128

>  <r_i_glide_ligand_efficiency_sa>  (84) 
-0.510007

>  <r_i_glide_ligand_efficiency_ln>  (84) 
-0.920647

>  <r_i_glide_gscore>  (84) 
-3.63144

>  <r_i_glide_lipo>  (84) 
-0.65037

>  <r_i_glide_hbond>  (84) 
0

>  <r_i_glide_metal>  (84) 
-0

>  <r_i_glide_rewards>  (84) 
-1.64206

>  <r_i_glide_evdw>  (84) 
-24.6388

>  <r_i_glide_ecoul>  (84) 
-0.711434

>  <r_i_glide_erotb>  (84) 
0

>  <r_i_glide_esite>  (84) 
-0.000349688

>  <r_i_glide_emodel>  (84) 
-30.8976

>  <r_i_glide_energy>  (84) 
-25.3502

>  <r_i_glide_einternal>  (84) 
0

>  <r_i_glide_intrahb_reward>  (84) 
-0

>  <i_i_glide_confnum>  (84) 
1

>  <i_i_glide_posenum>  (84) 
21

>  <r_i_glide_eff_state_penalty>  (84) 
0

>  <ligand_id>  (84) 
27

>  <original_smiles>  (84) 
Clc1ccc2c(c1)-c1cc[n+]3ncnc-3n1CCC2

>  <smiles>  (84) 
[H]c1nc2n(n1)c([H])c([H])c1[n+]2C([H])([H])C([H])([H])C([H])([H])c2c([H])c([H])c(Cl)c([H])c2-1

$$$$
28:0:0
     RDKit          3D

 32 34  0  0  1  0  0  0  0  0999 V2000
    0.3246   -8.9963    4.3343 F   0  0  0  0  0  0  0  0  0  0  0  0
   -0.4544   -8.0812    3.7625 C   0  0  0  0  0  0  0  0  0  0  0  0
   -1.4912   -8.6784    3.1621 F   0  0  0  0  0  0  0  0  0  0  0  0
   -0.9249   -7.2550    4.7030 F   0  0  0  0  0  0  0  0  0  0  0  0
    0.3493   -7.2672    2.7660 C   0  0  0  0  0  0  0  0  0  0  0  0
    0.0632   -7.2557    1.3851 C   0  0  0  0  0  0  0  0  0  0  0  0
    0.8004   -6.5196    0.5039 N   0  0  0  0  0  0  0  0  0  0  0  0
    1.8468   -5.8351    1.0248 C   0  0  0  0  0  0  0  0  0  0  0  0
    2.6148   -5.1112    0.0927 N   0  0  0  0  0  0  0  0  0  0  0  0
    3.7398   -4.2879    0.5258 C   0  0  2  0  0  0  0  0  0  0  0  0
    3.3308   -2.9727    1.2296 C   0  0  0  0  0  0  0  0  0  0  0  0
    4.0898   -1.9038    0.4129 C   0  0  1  0  0  0  0  0  0  0  0  0
    5.3737   -2.6369    0.0438 C   0  0  0  0  0  0  0  0  0  0  0  0
    4.6125   -3.7780   -0.6338 C   0  0  2  0  0  0  0  0  0  0  0  0
    3.7515   -2.9873   -1.6477 C   0  0  0  0  0  0  0  0  0  0  0  0
    3.4143   -1.7503   -0.8948 N   0  0  0  0  0  0  0  0  0  0  0  0
    2.1142   -5.8426    2.4115 C   0  0  0  0  0  0  0  0  0  0  0  0
    1.3633   -6.5443    3.2808 N   0  0  0  0  0  0  0  0  0  0  0  0
    2.5377   -5.3811   -0.8838 H   0  0  0  0  0  0  0  0  0  0  0  0
   -0.7425   -7.8256    0.9470 H   0  0  0  0  0  0  0  0  0  0  0  0
    4.3830   -4.8802    1.1787 H   0  0  0  0  0  0  0  0  0  0  0  0
    2.2554   -2.7808    1.2337 H   0  0  0  0  0  0  0  0  0  0  0  0
    3.6642   -2.9720    2.2696 H   0  0  0  0  0  0  0  0  0  0  0  0
    4.2163   -0.9561    0.9310 H   0  0  0  0  0  0  0  0  0  0  0  0
    5.9989   -2.0732   -0.6448 H   0  0  0  0  0  0  0  0  0  0  0  0
    5.9710   -2.9337    0.9031 H   0  0  0  0  0  0  0  0  0  0  0  0
    5.2387   -4.5531   -1.0743 H   0  0  0  0  0  0  0  0  0  0  0  0
    4.3199   -2.7495   -2.5431 H   0  0  0  0  0  0  0  0  0  0  0  0
    2.8523   -3.5121   -1.9696 H   0  0  0  0  0  0  0  0  0  0  0  0
    3.7617   -0.9550   -1.3905 H   0  0  0  0  0  0  0  0  0  0  0  0
    2.9167   -5.2892    2.8756 H   0  0  0  0  0  0  0  0  0  0  0  0
    2.4147   -1.6425   -0.7602 H   0  0  0  0  0  0  0  0  0  0  0  0
  1  2  1  0
  2  3  1  0
  2  4  1  0
  2  5  1  0
  5 18  2  0
  5  6  1  0
  6 20  1  0
  6  7  2  0
  7  8  1  0
  8 17  2  0
  8  9  1  0
  9 10  1  0
  9 19  1  0
 10 14  1  0
 10 11  1  0
 10 21  1  1
 11 12  1  0
 11 22  1  0
 11 23  1  0
 12 16  1  0
 12 13  1  0
 12 24  1  1
 13 14  1  0
 13 25  1  0
 13 26  1  0
 14 15  1  0
 14 27  1  6
 15 16  1  0
 15 28  1  0
 15 29  1  0
 16 30  1  0
 16 32  1  0
 17 31  1  0
 17 18  1  0
M  CHG  1  16   1
M  END
>  <i_m_ct_stereo_status>  (85) 
1

>  <s_m_source_file>  (85) 
/var/tmp/pbs.5076255.sched01/tmp8nmo4hef/06hb_edth.sdf

>  <i_m_source_file_index>  (85) 
34

>  <i_lp_mmshare_version>  (85) 
48012

>  <i_f3d_flags>  (85) 
0

>  <s_epik_input>  (85) 
RkMoRikoRiljMVtjSF1bbkhdL2MoW2NIXW4xKT1OL1tDQEhdKFtDSDJdW0NAQEhdMjMpW0NASF0oW0NIMl0yKVtDSDJdW05IXTM=

>  <s_epik_cmdline>  (85) 
J2VwaWtfcHl0aG9uJywgJy1waHQnLCAnMi4wJywgJy1waCcsICc3LjAnLCAnLXRuJywgJzgnLCAnLW1hJywgJzIwMCcsICctaW1hZScsICc8aW5maWxlLm1hZT4nLCAnLW9tYWUnLCAnPG91dGZpbGUubWFlPic=

>  <r_lp_tautomer_probability>  (85) 
1

>  <r_epik_Ionization_Penalty>  (85) 
3.34598e-05

>  <r_epik_Ionization_Penalty_Charging>  (85) 
2.85296e-05

>  <r_epik_Ionization_Penalty_Neutral>  (85) 
4.93017e-06

>  <r_epik_State_Penalty>  (85) 
-0

>  <r_epik_Charging_Adjusted_Penalty>  (85) 
2.85296e-05

>  <i_epik_Tot_Q>  (85) 
1

>  <i_epik_Tot_abs_Q>  (85) 
1

>  <s_lp_Force_Field>  (85) 
OPLS3e

>  <r_lp_Energy>  (85) 
47.1502

>  <b_lp_Chiralities_Consistent>  (85) 
1

>  <s_lp_Variant>  (85) 
28:0-1

>  <s_i_glide_gridfile>  (85) 
pfpi4k_grid

>  <i_i_glide_lignum>  (85) 
34

>  <i_i_glide_rotatable_bonds>  (85) 
3

>  <r_i_docking_score>  (85) 
-4.60112

>  <r_i_glide_ligand_efficiency>  (85) 
-0.255618

>  <r_i_glide_ligand_efficiency_sa>  (85) 
-0.669909

>  <r_i_glide_ligand_efficiency_ln>  (85) 
-1.1827

>  <r_i_glide_gscore>  (85) 
-4.60112

>  <r_i_glide_lipo>  (85) 
-0.0421108

>  <r_i_glide_hbond>  (85) 
-0.73128

>  <r_i_glide_metal>  (85) 
-0

>  <r_i_glide_rewards>  (85) 
-1.64147

>  <r_i_glide_evdw>  (85) 
-19.1797

>  <r_i_glide_ecoul>  (85) 
-9.71592

>  <r_i_glide_erotb>  (85) 
0.526112

>  <r_i_glide_esite>  (85) 
-0.295999

>  <r_i_glide_emodel>  (85) 
-39.8499

>  <r_i_glide_energy>  (85) 
-28.8956

>  <r_i_glide_einternal>  (85) 
1.82989

>  <r_i_glide_intrahb_reward>  (85) 
-0

>  <i_i_glide_confnum>  (85) 
4

>  <i_i_glide_posenum>  (85) 
4

>  <r_i_glide_eff_state_penalty>  (85) 
0

>  <ligand_id>  (85) 
28

>  <original_smiles>  (85) 
FC(F)(F)c1c[nH]c(=NC2CC3CC2CN3)cn1

>  <smiles>  (85) 
[H]c1nc(C(F)(F)F)c([H])nc1N([H])C1([H])C([H])([H])C2([H])C([H])([H])C1([H])C([H])([H])[N+]2([H])[H]

$$$$
28:0:1
     RDKit          3D

 32 34  0  0  1  0  0  0  0  0999 V2000
   -0.0315   -6.0634    4.9177 F   0  0  0  0  0  0  0  0  0  0  0  0
    1.2857   -6.2495    4.8128 C   0  0  0  0  0  0  0  0  0  0  0  0
    1.8970   -5.5642    5.7827 F   0  0  0  0  0  0  0  0  0  0  0  0
    1.5595   -7.5445    4.9672 F   0  0  0  0  0  0  0  0  0  0  0  0
    1.7537   -5.7771    3.4429 C   0  0  0  0  0  0  0  0  0  0  0  0
    2.6580   -4.6975    3.2909 C   0  0  0  0  0  0  0  0  0  0  0  0
    3.0943   -4.3024    2.0771 N   0  0  0  0  0  0  0  0  0  0  0  0
    2.6218   -4.9859    1.0091 C   0  0  0  0  0  0  0  0  0  0  0  0
    2.9715   -4.5764   -0.2817 N   0  0  0  0  0  0  0  0  0  0  0  0
    4.1204   -3.7013   -0.5232 C   0  0  2  0  0  0  0  0  0  0  0  0
    3.9557   -2.2528   -0.0032 C   0  0  0  0  0  0  0  0  0  0  0  0
    4.1957   -1.4070   -1.2644 C   0  0  1  0  0  0  0  0  0  0  0  0
    5.2432   -2.2173   -2.0124 C   0  0  0  0  0  0  0  0  0  0  0  0
    4.3725   -3.4646   -2.0328 C   0  0  2  0  0  0  0  0  0  0  0  0
    3.1021   -2.9082   -2.7119 C   0  0  0  0  0  0  0  0  0  0  0  0
    3.0102   -1.5490   -2.1368 N   0  0  0  0  0  0  0  0  0  0  0  0
    1.7274   -6.0663    1.1639 C   0  0  0  0  0  0  0  0  0  0  0  0
    1.2658   -6.4489    2.3733 N   0  0  0  0  0  0  0  0  0  0  0  0
    2.7016   -5.1757   -1.0581 H   0  0  0  0  0  0  0  0  0  0  0  0
    3.0371   -4.1372    4.1326 H   0  0  0  0  0  0  0  0  0  0  0  0
    5.0112   -4.1569   -0.0805 H   0  0  0  0  0  0  0  0  0  0  0  0
    2.9686   -2.0509    0.4145 H   0  0  0  0  0  0  0  0  0  0  0  0
    4.7009   -2.0452    0.7701 H   0  0  0  0  0  0  0  0  0  0  0  0
    4.4559   -0.3711   -1.0558 H   0  0  0  0  0  0  0  0  0  0  0  0
    5.4205   -1.8408   -3.0155 H   0  0  0  0  0  0  0  0  0  0  0  0
    6.1844   -2.3366   -1.4809 H   0  0  0  0  0  0  0  0  0  0  0  0
    4.8091   -4.3195   -2.5491 H   0  0  0  0  0  0  0  0  0  0  0  0
    3.2019   -2.8587   -3.7939 H   0  0  0  0  0  0  0  0  0  0  0  0
    2.1919   -3.4756   -2.5090 H   0  0  0  0  0  0  0  0  0  0  0  0
    3.0363   -0.8622   -2.8780 H   0  0  0  0  0  0  0  0  0  0  0  0
    1.3302   -6.5935    0.3075 H   0  0  0  0  0  0  0  0  0  0  0  0
    2.1303   -1.4518   -1.6047 H   0  0  0  0  0  0  0  0  0  0  0  0
  1  2  1  0
  2  3  1  0
  2  4  1  0
  2  5  1  0
  5 18  2  0
  5  6  1  0
  6 20  1  0
  6  7  2  0
  7  8  1  0
  8 17  2  0
  8  9  1  0
  9 10  1  0
  9 19  1  0
 10 14  1  0
 10 11  1  0
 10 21  1  1
 11 12  1  0
 11 22  1  0
 11 23  1  0
 12 16  1  0
 12 13  1  0
 12 24  1  1
 13 14  1  0
 13 25  1  0
 13 26  1  0
 14 15  1  0
 14 27  1  6
 15 16  1  0
 15 28  1  0
 15 29  1  0
 16 30  1  0
 16 32  1  0
 17 31  1  0
 17 18  1  0
M  CHG  1  16   1
M  END
>  <i_m_ct_stereo_status>  (86) 
1

>  <s_m_source_file>  (86) 
/var/tmp/pbs.5076255.sched01/tmp8nmo4hef/06hb_edth.sdf

>  <i_m_source_file_index>  (86) 
34

>  <i_lp_mmshare_version>  (86) 
48012

>  <i_f3d_flags>  (86) 
0

>  <s_epik_input>  (86) 
RkMoRikoRiljMVtjSF1bbkhdL2MoW2NIXW4xKT1OL1tDQEhdKFtDSDJdW0NAQEhdMjMpW0NASF0oW0NIMl0yKVtDSDJdW05IXTM=

>  <s_epik_cmdline>  (86) 
J2VwaWtfcHl0aG9uJywgJy1waHQnLCAnMi4wJywgJy1waCcsICc3LjAnLCAnLXRuJywgJzgnLCAnLW1hJywgJzIwMCcsICctaW1hZScsICc8aW5maWxlLm1hZT4nLCAnLW9tYWUnLCAnPG91dGZpbGUubWFlPic=

>  <r_lp_tautomer_probability>  (86) 
1

>  <r_epik_Ionization_Penalty>  (86) 
3.34598e-05

>  <r_epik_Ionization_Penalty_Charging>  (86) 
2.85296e-05

>  <r_epik_Ionization_Penalty_Neutral>  (86) 
4.93017e-06

>  <r_epik_State_Penalty>  (86) 
-0

>  <r_epik_Charging_Adjusted_Penalty>  (86) 
2.85296e-05

>  <i_epik_Tot_Q>  (86) 
1

>  <i_epik_Tot_abs_Q>  (86) 
1

>  <s_lp_Force_Field>  (86) 
OPLS3e

>  <r_lp_Energy>  (86) 
47.1502

>  <b_lp_Chiralities_Consistent>  (86) 
1

>  <s_lp_Variant>  (86) 
28:0-1

>  <s_i_glide_gridfile>  (86) 
pfpi4k_grid

>  <i_i_glide_lignum>  (86) 
34

>  <i_i_glide_rotatable_bonds>  (86) 
3

>  <r_i_docking_score>  (86) 
-3.88983

>  <r_i_glide_ligand_efficiency>  (86) 
-0.216102

>  <r_i_glide_ligand_efficiency_sa>  (86) 
-0.566346

>  <r_i_glide_ligand_efficiency_ln>  (86) 
-0.99986

>  <r_i_glide_gscore>  (86) 
-3.88983

>  <r_i_glide_lipo>  (86) 
0

>  <r_i_glide_hbond>  (86) 
-0.52

>  <r_i_glide_metal>  (86) 
-0

>  <r_i_glide_rewards>  (86) 
-1.64147

>  <r_i_glide_evdw>  (86) 
-17.1457

>  <r_i_glide_ecoul>  (86) 
-8.25939

>  <r_i_glide_erotb>  (86) 
0.526112

>  <r_i_glide_esite>  (86) 
-0.158275

>  <r_i_glide_emodel>  (86) 
-35.2949

>  <r_i_glide_energy>  (86) 
-25.4051

>  <r_i_glide_einternal>  (86) 
0.353433

>  <r_i_glide_intrahb_reward>  (86) 
-0

>  <i_i_glide_confnum>  (86) 
3

>  <i_i_glide_posenum>  (86) 
16

>  <r_i_glide_eff_state_penalty>  (86) 
0

>  <ligand_id>  (86) 
28

>  <original_smiles>  (86) 
FC(F)(F)c1c[nH]c(=NC2CC3CC2CN3)cn1

>  <smiles>  (86) 
[H]c1nc(C(F)(F)F)c([H])nc1N([H])C1([H])C([H])([H])C2([H])C([H])([H])C1([H])C([H])([H])[N+]2([H])[H]

$$$$
28:0:2
     RDKit          3D

 32 34  0  0  1  0  0  0  0  0999 V2000
    6.5119   -3.8439    0.1625 F   0  0  0  0  0  0  0  0  0  0  0  0
    5.2859   -3.6816   -0.3417 C   0  0  0  0  0  0  0  0  0  0  0  0
    4.8902   -2.4298   -0.0893 F   0  0  0  0  0  0  0  0  0  0  0  0
    5.3360   -3.8545   -1.6631 F   0  0  0  0  0  0  0  0  0  0  0  0
    4.3307   -4.6867    0.2891 C   0  0  0  0  0  0  0  0  0  0  0  0
    3.0699   -4.2932    0.8082 C   0  0  0  0  0  0  0  0  0  0  0  0
    2.2177   -5.1788    1.3670 N   0  0  0  0  0  0  0  0  0  0  0  0
    2.6197   -6.4697    1.3932 C   0  0  0  0  0  0  0  0  0  0  0  0
    1.7610   -7.4490    1.8990 N   0  0  0  0  0  0  0  0  0  0  0  0
    0.4342   -7.1539    2.4346 C   0  0  2  0  0  0  0  0  0  0  0  0
    0.3723   -7.1070    3.9783 C   0  0  0  0  0  0  0  0  0  0  0  0
   -0.7319   -8.1379    4.3029 C   0  0  1  0  0  0  0  0  0  0  0  0
   -1.6867   -7.9821    3.1268 C   0  0  0  0  0  0  0  0  0  0  0  0
   -0.5865   -8.2599    2.1122 C   0  0  2  0  0  0  0  0  0  0  0  0
   -0.0801   -9.6321    2.6226 C   0  0  0  0  0  0  0  0  0  0  0  0
   -0.1825   -9.4910    4.0941 N   0  0  0  0  0  0  0  0  0  0  0  0
    3.8796   -6.8626    0.8788 C   0  0  0  0  0  0  0  0  0  0  0  0
    4.7372   -5.9777    0.3262 N   0  0  0  0  0  0  0  0  0  0  0  0
    2.0242   -8.4124    1.7448 H   0  0  0  0  0  0  0  0  0  0  0  0
    2.7327   -3.2684    0.7767 H   0  0  0  0  0  0  0  0  0  0  0  0
    0.0440   -6.2165    2.0359 H   0  0  0  0  0  0  0  0  0  0  0  0
    1.3186   -7.3546    4.4640 H   0  0  0  0  0  0  0  0  0  0  0  0
    0.0859   -6.1098    4.3183 H   0  0  0  0  0  0  0  0  0  0  0  0
   -1.1841   -8.0218    5.2808 H   0  0  0  0  0  0  0  0  0  0  0  0
   -2.4817   -8.7303    3.1112 H   0  0  0  0  0  0  0  0  0  0  0  0
   -2.1233   -6.9912    3.0446 H   0  0  0  0  0  0  0  0  0  0  0  0
   -0.9176   -8.2543    1.0769 H   0  0  0  0  0  0  0  0  0  0  0  0
   -0.7147  -10.4447    2.2698 H   0  0  0  0  0  0  0  0  0  0  0  0
    0.9409   -9.8791    2.3157 H   0  0  0  0  0  0  0  0  0  0  0  0
   -0.8329  -10.1821    4.4732 H   0  0  0  0  0  0  0  0  0  0  0  0
    4.2008   -7.8966    0.8924 H   0  0  0  0  0  0  0  0  0  0  0  0
    0.7145   -9.5938    4.5391 H   0  0  0  0  0  0  0  0  0  0  0  0
  1  2  1  0
  2  3  1  0
  2  4  1  0
  2  5  1  0
  5 18  2  0
  5  6  1  0
  6 20  1  0
  6  7  2  0
  7  8  1  0
  8 17  2  0
  8  9  1  0
  9 10  1  0
  9 19  1  0
 10 14  1  0
 10 11  1  0
 10 21  1  6
 11 12  1  0
 11 22  1  0
 11 23  1  0
 12 16  1  0
 12 13  1  0
 12 24  1  1
 13 14  1  0
 13 25  1  0
 13 26  1  0
 14 15  1  0
 14 27  1  6
 15 16  1  0
 15 28  1  0
 15 29  1  0
 16 30  1  0
 16 32  1  0
 17 31  1  0
 17 18  1  0
M  CHG  1  16   1
M  END
>  <i_m_ct_stereo_status>  (87) 
1

>  <s_m_source_file>  (87) 
/var/tmp/pbs.5076255.sched01/tmp8nmo4hef/06hb_edth.sdf

>  <i_m_source_file_index>  (87) 
34

>  <i_lp_mmshare_version>  (87) 
48012

>  <i_f3d_flags>  (87) 
0

>  <s_epik_input>  (87) 
RkMoRikoRiljMVtjSF1bbkhdL2MoW2NIXW4xKT1OL1tDQEhdKFtDSDJdW0NAQEhdMjMpW0NASF0oW0NIMl0yKVtDSDJdW05IXTM=

>  <s_epik_cmdline>  (87) 
J2VwaWtfcHl0aG9uJywgJy1waHQnLCAnMi4wJywgJy1waCcsICc3LjAnLCAnLXRuJywgJzgnLCAnLW1hJywgJzIwMCcsICctaW1hZScsICc8aW5maWxlLm1hZT4nLCAnLW9tYWUnLCAnPG91dGZpbGUubWFlPic=

>  <r_lp_tautomer_probability>  (87) 
1

>  <r_epik_Ionization_Penalty>  (87) 
3.34598e-05

>  <r_epik_Ionization_Penalty_Charging>  (87) 
2.85296e-05

>  <r_epik_Ionization_Penalty_Neutral>  (87) 
4.93017e-06

>  <r_epik_State_Penalty>  (87) 
-0

>  <r_epik_Charging_Adjusted_Penalty>  (87) 
2.85296e-05

>  <i_epik_Tot_Q>  (87) 
1

>  <i_epik_Tot_abs_Q>  (87) 
1

>  <s_lp_Force_Field>  (87) 
OPLS3e

>  <r_lp_Energy>  (87) 
47.1502

>  <b_lp_Chiralities_Consistent>  (87) 
1

>  <s_lp_Variant>  (87) 
28:0-1

>  <s_i_glide_gridfile>  (87) 
pfpi4k_grid

>  <i_i_glide_lignum>  (87) 
34

>  <i_i_glide_rotatable_bonds>  (87) 
3

>  <r_i_docking_score>  (87) 
-3.56108

>  <r_i_glide_ligand_efficiency>  (87) 
-0.197838

>  <r_i_glide_ligand_efficiency_sa>  (87) 
-0.518482

>  <r_i_glide_ligand_efficiency_ln>  (87) 
-0.915357

>  <r_i_glide_gscore>  (87) 
-3.56108

>  <r_i_glide_lipo>  (87) 
-0.184632

>  <r_i_glide_hbond>  (87) 
-0.201667

>  <r_i_glide_metal>  (87) 
-0

>  <r_i_glide_rewards>  (87) 
-1.7857

>  <r_i_glide_evdw>  (87) 
-20.7403

>  <r_i_glide_ecoul>  (87) 
-5.16612

>  <r_i_glide_erotb>  (87) 
0.526112

>  <r_i_glide_esite>  (87) 
-0.10326

>  <r_i_glide_emodel>  (87) 
-34.4567

>  <r_i_glide_energy>  (87) 
-25.9064

>  <r_i_glide_einternal>  (87) 
1.29412

>  <r_i_glide_intrahb_reward>  (87) 
-0

>  <i_i_glide_confnum>  (87) 
3

>  <i_i_glide_posenum>  (87) 
24

>  <r_i_glide_eff_state_penalty>  (87) 
0

>  <ligand_id>  (87) 
28

>  <original_smiles>  (87) 
FC(F)(F)c1c[nH]c(=NC2CC3CC2CN3)cn1

>  <smiles>  (87) 
[H]c1nc(C(F)(F)F)c([H])nc1N([H])C1([H])C([H])([H])C2([H])C([H])([H])C1([H])C([H])([H])[N+]2([H])[H]

$$$$
29:0:0
     RDKit          3D

 58 62  0  0  1  0  0  0  0  0999 V2000
   -1.3978    4.0322    7.5247 C   0  0  0  0  0  0  0  0  0  0  0  0
   -1.1534    3.0622    6.5161 O   0  0  0  0  0  0  0  0  0  0  0  0
   -1.3853    3.3691    5.2208 C   0  0  0  0  0  0  0  0  0  0  0  0
   -1.7806    4.4573    4.8237 O   0  0  0  0  0  0  0  0  0  0  0  0
   -1.1215    2.2688    4.4118 N   0  0  0  0  0  0  0  0  0  0  0  0
   -0.5737    0.9990    4.8609 C   0  0  0  0  0  0  0  0  0  0  0  0
   -0.6215    0.0687    3.6346 C   0  0  2  0  0  0  0  0  0  0  0  0
    0.6526   -0.7454    3.4012 C   0  0  0  0  0  0  0  0  0  0  0  0
    1.2458   -0.2936    2.1188 N   0  0  2  0  0  0  0  0  0  0  0  0
    2.7210   -0.3574    2.0627 C   0  0  0  0  0  0  0  0  0  0  0  0
    3.3207   -1.6840    2.6074 C   0  0  2  0  0  0  0  0  0  0  0  0
    4.8161   -1.6124    2.8721 C   0  0  0  0  0  0  0  0  0  0  0  0
    5.2155   -3.0647    2.6870 C   0  0  0  0  0  0  0  0  0  0  0  0
    4.3201   -3.5391    1.5271 C   0  0  1  0  0  0  0  0  0  0  0  0
    4.9391   -3.2777    0.1474 C   0  0  0  0  0  0  0  0  0  0  0  0
    4.3918   -3.9050   -0.9964 C   0  0  0  0  0  0  0  0  0  0  0  0
    4.9984   -3.7111   -2.2484 C   0  0  0  0  0  0  0  0  0  0  0  0
    6.1232   -2.8714   -2.3214 C   0  0  0  0  0  0  0  0  0  0  0  0
    6.6464   -2.2384   -1.2593 N   0  0  0  0  0  0  0  0  0  0  0  0
    6.0700   -2.4430   -0.0653 C   0  0  0  0  0  0  0  0  0  0  0  0
    3.9969   -5.0152    1.6908 C   0  0  0  0  0  0  0  0  0  0  0  0
    5.0106   -5.9965    1.7156 C   0  0  0  0  0  0  0  0  0  0  0  0
    4.7271   -7.3062    1.8016 N   0  0  0  0  0  0  0  0  0  0  0  0
    3.4432   -7.6511    1.8616 C   0  0  0  0  0  0  0  0  0  0  0  0
    2.4026   -6.8163    1.8434 N   0  0  0  0  0  0  0  0  0  0  0  0
    2.6725   -5.5055    1.7630 C   0  0  0  0  0  0  0  0  0  0  0  0
    3.1466   -2.7323    1.6569 O   0  0  0  0  0  0  0  0  0  0  0  0
    0.6694    1.0411    1.8553 C   0  0  0  0  0  0  0  0  0  0  0  0
   -0.7515    0.9820    2.4244 C   0  0  2  0  0  0  0  0  0  0  0  0
   -1.3269    2.3004    2.9639 C   0  0  0  0  0  0  0  0  0  0  0  0
   -1.1369    3.6281    8.5046 H   0  0  0  0  0  0  0  0  0  0  0  0
   -2.4524    4.3129    7.5541 H   0  0  0  0  0  0  0  0  0  0  0  0
   -0.8016    4.9331    7.3652 H   0  0  0  0  0  0  0  0  0  0  0  0
    0.4454    1.1707    5.2172 H   0  0  0  0  0  0  0  0  0  0  0  0
   -1.1463    0.5766    5.6891 H   0  0  0  0  0  0  0  0  0  0  0  0
   -1.4984   -0.5785    3.7086 H   0  0  0  0  0  0  0  0  0  0  0  0
    1.3368   -0.5558    4.2248 H   0  0  0  0  0  0  0  0  0  0  0  0
    0.4501   -1.8151    3.3774 H   0  0  0  0  0  0  0  0  0  0  0  0
    3.0370   -0.2245    1.0268 H   0  0  0  0  0  0  0  0  0  0  0  0
    3.1465    0.4762    2.6167 H   0  0  0  0  0  0  0  0  0  0  0  0
    2.8972   -2.0323    3.5531 H   0  0  0  0  0  0  0  0  0  0  0  0
    5.2776   -0.9466    2.1425 H   0  0  0  0  0  0  0  0  0  0  0  0
    5.0576   -1.2295    3.8678 H   0  0  0  0  0  0  0  0  0  0  0  0
    6.2738   -3.2313    2.5084 H   0  0  0  0  0  0  0  0  0  0  0  0
    4.9735   -3.6005    3.6082 H   0  0  0  0  0  0  0  0  0  0  0  0
    3.5399   -4.5656   -0.9194 H   0  0  0  0  0  0  0  0  0  0  0  0
    4.6248   -4.2082   -3.1275 H   0  0  0  0  0  0  0  0  0  0  0  0
    6.6128   -2.6935   -3.2596 H   0  0  0  0  0  0  0  0  0  0  0  0
    6.5754   -1.9183    0.7324 H   0  0  0  0  0  0  0  0  0  0  0  0
    6.0533   -5.7225    1.6429 H   0  0  0  0  0  0  0  0  0  0  0  0
    3.2231   -8.7034    1.9434 H   0  0  0  0  0  0  0  0  0  0  0  0
    1.8186   -4.8449    1.7269 H   0  0  0  0  0  0  0  0  0  0  0  0
    1.2467    1.8027    2.3800 H   0  0  0  0  0  0  0  0  0  0  0  0
    0.6513    1.2875    0.7978 H   0  0  0  0  0  0  0  0  0  0  0  0
   -1.4193    0.5472    1.6786 H   0  0  0  0  0  0  0  0  0  0  0  0
   -2.4016    2.3448    2.7710 H   0  0  0  0  0  0  0  0  0  0  0  0
   -0.8575    3.1708    2.5040 H   0  0  0  0  0  0  0  0  0  0  0  0
    0.8942   -0.8856    1.3756 H   0  0  0  0  0  0  0  0  0  0  0  0
  1  2  1  0
  1 31  1  0
  1 32  1  0
  1 33  1  0
  2  3  1  0
  3  4  2  0
  3  5  1  0
  5 30  1  0
  5  6  1  0
  6  7  1  0
  6 34  1  0
  6 35  1  0
  7 29  1  0
  7  8  1  0
  7 36  1  1
  8  9  1  0
  8 37  1  0
  8 38  1  0
  9 10  1  0
  9 28  1  0
  9 58  1  6
 10 11  1  0
 10 39  1  0
 10 40  1  0
 11 27  1  0
 11 12  1  0
 11 41  1  1
 12 13  1  0
 12 42  1  0
 12 43  1  0
 13 14  1  0
 13 44  1  0
 13 45  1  0
 14 15  1  6
 14 21  1  0
 14 27  1  0
 15 20  1  0
 15 16  2  0
 16 17  1  0
 16 46  1  0
 17 18  2  0
 17 47  1  0
 18 19  1  0
 18 48  1  0
 19 20  2  0
 20 49  1  0
 21 26  1  0
 21 22  2  0
 22 23  1  0
 22 50  1  0
 23 24  2  0
 24 25  1  0
 24 51  1  0
 25 26  2  0
 26 52  1  0
 28 29  1  0
 28 53  1  0
 28 54  1  0
 29 30  1  0
 29 55  1  6
 30 56  1  0
 30 57  1  0
M  CHG  1   9   1
M  END
>  <i_m_ct_stereo_status>  (88) 
1

>  <s_m_source_file>  (88) 
/var/tmp/pbs.5076255.sched01/tmp8nmo4hef/06hb_edth.sdf

>  <i_m_source_file_index>  (88) 
35

>  <i_lp_mmshare_version>  (88) 
48012

>  <i_f3d_flags>  (88) 
0

>  <s_epik_input>  (88) 
W0NIM11PQyg9TylOKFtDSDJdMSlbQ0gyXVtDQEhdKFtDQEhdMTIpW0NIMl1OKFtDSDJdMilbQ0gyXVtDQEBIXShPMylbQ0gyXVtDSDJdW0NAQF0zKGM0W2NIXVtjSF1bY0hdbltjSF00KWM1W2NIXW5bY0hdbltjSF01

>  <s_epik_cmdline>  (88) 
J2VwaWtfcHl0aG9uJywgJy1waHQnLCAnMi4wJywgJy1waCcsICc3LjAnLCAnLXRuJywgJzgnLCAnLW1hJywgJzIwMCcsICctaW1hZScsICc8aW5maWxlLm1hZT4nLCAnLW9tYWUnLCAnPG91dGZpbGUubWFlPic=

>  <r_lp_tautomer_probability>  (88) 
1

>  <r_epik_Ionization_Penalty>  (88) 
0.0259189

>  <r_epik_Ionization_Penalty_Charging>  (88) 
0.0237577

>  <r_epik_Ionization_Penalty_Neutral>  (88) 
0.00216117

>  <r_epik_State_Penalty>  (88) 
0.0192465

>  <r_epik_Charging_Adjusted_Penalty>  (88) 
0.0430043

>  <i_epik_Tot_Q>  (88) 
1

>  <i_epik_Tot_abs_Q>  (88) 
1

>  <s_epik_Chemistry_Notes>  (88) 
This compound has an ester and may undergo hydrolysis at high or low pH. This compound contains an electron-poor aromatic ring that is susceptible to covalent hydrolysis at low pH, typically resulting in measured values for nitrogen ring protonation that are around two units higher than predicted values.

>  <s_lp_Force_Field>  (88) 
OPLS3e

>  <r_lp_Energy>  (88) 
34.9126

>  <b_lp_Chiralities_Consistent>  (88) 
1

>  <s_lp_Variant>  (88) 
29:0-1

>  <s_i_glide_gridfile>  (88) 
pfpi4k_grid

>  <i_i_glide_lignum>  (88) 
35

>  <i_i_glide_rotatable_bonds>  (88) 
6

>  <r_i_docking_score>  (88) 
-3.46409

>  <r_i_glide_ligand_efficiency>  (88) 
-0.11547

>  <r_i_glide_ligand_efficiency_sa>  (88) 
-0.358791

>  <r_i_glide_ligand_efficiency_ln>  (88) 
-0.787079

>  <r_i_glide_gscore>  (88) 
-3.46409

>  <r_i_glide_lipo>  (88) 
-0.360855

>  <r_i_glide_hbond>  (88) 
-0.326521

>  <r_i_glide_metal>  (88) 
-0

>  <r_i_glide_rewards>  (88) 
-0.631319

>  <r_i_glide_evdw>  (88) 
-27.1711

>  <r_i_glide_ecoul>  (88) 
-8.42417

>  <r_i_glide_erotb>  (88) 
0.584585

>  <r_i_glide_esite>  (88) 
-0.107799

>  <r_i_glide_emodel>  (88) 
-42.1868

>  <r_i_glide_energy>  (88) 
-35.5952

>  <r_i_glide_einternal>  (88) 
4.57763

>  <r_i_glide_intrahb_reward>  (88) 
-0

>  <i_i_glide_confnum>  (88) 
4

>  <i_i_glide_posenum>  (88) 
34

>  <r_i_glide_eff_state_penalty>  (88) 
0

>  <ligand_id>  (88) 
29

>  <original_smiles>  (88) 
COC(=O)N1CC2CN(CC3CCC(c4cccnc4)(c4cncnc4)O3)CC2C1

>  <smiles>  (88) 
[H]c1nc([H])c(C2(c3c([H])nc([H])c([H])c3[H])OC([H])(C([H])([H])[N+]3([H])C([H])([H])C4([H])C([H])([H])N(C(=O)OC([H])([H])[H])C([H])([H])C4([H])C3([H])[H])C([H])([H])C2([H])[H])c([H])n1

$$$$
29:0:1
     RDKit          3D

 58 62  0  0  1  0  0  0  0  0999 V2000
   -1.3825    3.5742    7.9035 C   0  0  0  0  0  0  0  0  0  0  0  0
   -1.1148    2.7069    6.8096 O   0  0  0  0  0  0  0  0  0  0  0  0
   -1.4723    3.0799    5.5551 C   0  0  0  0  0  0  0  0  0  0  0  0
   -2.0165    4.1308    5.2786 O   0  0  0  0  0  0  0  0  0  0  0  0
   -1.1296    2.0867    4.6395 N   0  0  0  0  0  0  0  0  0  0  0  0
   -0.4054    0.8638    4.9486 C   0  0  0  0  0  0  0  0  0  0  0  0
   -0.4239    0.0437    3.6522 C   0  0  2  0  0  0  0  0  0  0  0  0
    0.9210   -0.5971    3.2885 C   0  0  0  0  0  0  0  0  0  0  0  0
    1.3699    0.0423    2.0117 N   0  0  2  0  0  0  0  0  0  0  0  0
    2.8626    0.1798    1.8859 C   0  0  0  0  0  0  0  0  0  0  0  0
    3.6113   -1.1506    2.1570 C   0  0  2  0  0  0  0  0  0  0  0  0
    5.1037   -1.0618    1.8741 C   0  0  0  0  0  0  0  0  0  0  0  0
    5.4327   -2.4944    1.5140 C   0  0  0  0  0  0  0  0  0  0  0  0
    4.1937   -2.9795    0.7447 C   0  0  1  0  0  0  0  0  0  0  0  0
    4.3138   -2.7067   -0.7680 C   0  0  0  0  0  0  0  0  0  0  0  0
    4.9385   -3.6313   -1.6462 C   0  0  0  0  0  0  0  0  0  0  0  0
    5.0121   -3.3093   -3.0199 C   0  0  0  0  0  0  0  0  0  0  0  0
    4.4822   -2.0818   -3.4809 C   0  0  0  0  0  0  0  0  0  0  0  0
    3.9164   -1.1848   -2.6535 N   0  0  0  0  0  0  0  0  0  0  0  0
    3.8177   -1.4992   -1.3423 C   0  0  0  0  0  0  0  0  0  0  0  0
    3.9548   -4.4628    1.0184 C   0  0  0  0  0  0  0  0  0  0  0  0
    4.9477   -5.4426    0.7881 C   0  0  0  0  0  0  0  0  0  0  0  0
    4.7170   -6.7521    0.9208 N   0  0  0  0  0  0  0  0  0  0  0  0
    3.4807   -7.1205    1.3031 C   0  0  0  0  0  0  0  0  0  0  0  0
    2.4699   -6.2921    1.5960 N   0  0  0  0  0  0  0  0  0  0  0  0
    2.7184   -4.9699    1.4759 C   0  0  0  0  0  0  0  0  0  0  0  0
    3.1290   -2.1984    1.3068 O   0  0  0  0  0  0  0  0  0  0  0  0
    0.6141    1.3272    1.9111 C   0  0  0  0  0  0  0  0  0  0  0  0
   -0.7448    1.0309    2.5371 C   0  0  2  0  0  0  0  0  0  0  0  0
   -1.4311    2.2165    3.2155 C   0  0  0  0  0  0  0  0  0  0  0  0
   -1.0091    3.1288    8.8274 H   0  0  0  0  0  0  0  0  0  0  0  0
   -2.4545    3.7419    8.0228 H   0  0  0  0  0  0  0  0  0  0  0  0
   -0.8911    4.5406    7.7762 H   0  0  0  0  0  0  0  0  0  0  0  0
    0.6045    1.1388    5.2595 H   0  0  0  0  0  0  0  0  0  0  0  0
   -0.8744    0.3132    5.7637 H   0  0  0  0  0  0  0  0  0  0  0  0
   -1.2065   -0.7120    3.7086 H   0  0  0  0  0  0  0  0  0  0  0  0
    1.6555   -0.3956    4.0681 H   0  0  0  0  0  0  0  0  0  0  0  0
    0.8532   -1.6780    3.1563 H   0  0  0  0  0  0  0  0  0  0  0  0
    3.0506    0.5517    0.8828 H   0  0  0  0  0  0  0  0  0  0  0  0
    3.2114    0.9640    2.5604 H   0  0  0  0  0  0  0  0  0  0  0  0
    3.4852   -1.4706    3.1968 H   0  0  0  0  0  0  0  0  0  0  0  0
    5.3017   -0.4098    1.0216 H   0  0  0  0  0  0  0  0  0  0  0  0
    5.6747   -0.6938    2.7318 H   0  0  0  0  0  0  0  0  0  0  0  0
    6.3594   -2.6039    0.9559 H   0  0  0  0  0  0  0  0  0  0  0  0
    5.5497   -3.0479    2.4479 H   0  0  0  0  0  0  0  0  0  0  0  0
    5.3605   -4.5726   -1.3046 H   0  0  0  0  0  0  0  0  0  0  0  0
    5.4610   -4.0091   -3.7009 H   0  0  0  0  0  0  0  0  0  0  0  0
    4.5312   -1.8193   -4.5335 H   0  0  0  0  0  0  0  0  0  0  0  0
    3.3260   -0.7440   -0.7437 H   0  0  0  0  0  0  0  0  0  0  0  0
    5.9351   -5.1515    0.4288 H   0  0  0  0  0  0  0  0  0  0  0  0
    3.3007   -8.1833    1.4013 H   0  0  0  0  0  0  0  0  0  0  0  0
    1.8871   -4.3173    1.7041 H   0  0  0  0  0  0  0  0  0  0  0  0
    1.1482    2.0930    2.4695 H   0  0  0  0  0  0  0  0  0  0  0  0
    0.5210    1.6535    0.8827 H   0  0  0  0  0  0  0  0  0  0  0  0
   -1.3918    0.5716    1.7866 H   0  0  0  0  0  0  0  0  0  0  0  0
   -2.5140    2.1450    3.0836 H   0  0  0  0  0  0  0  0  0  0  0  0
   -1.0978    3.1747    2.8092 H   0  0  0  0  0  0  0  0  0  0  0  0
    1.0417   -0.5278    1.2230 H   0  0  0  0  0  0  0  0  0  0  0  0
  1  2  1  0
  1 31  1  0
  1 32  1  0
  1 33  1  0
  2  3  1  0
  3  4  2  0
  3  5  1  0
  5 30  1  0
  5  6  1  0
  6  7  1  0
  6 34  1  0
  6 35  1  0
  7 29  1  0
  7  8  1  0
  7 36  1  1
  8  9  1  0
  8 37  1  0
  8 38  1  0
  9 10  1  0
  9 28  1  0
  9 58  1  6
 10 11  1  0
 10 39  1  0
 10 40  1  0
 11 27  1  0
 11 12  1  0
 11 41  1  1
 12 13  1  0
 12 42  1  0
 12 43  1  0
 13 14  1  0
 13 44  1  0
 13 45  1  0
 14 15  1  6
 14 21  1  0
 14 27  1  0
 15 20  1  0
 15 16  2  0
 16 17  1  0
 16 46  1  0
 17 18  2  0
 17 47  1  0
 18 19  1  0
 18 48  1  0
 19 20  2  0
 20 49  1  0
 21 26  1  0
 21 22  2  0
 22 23  1  0
 22 50  1  0
 23 24  2  0
 24 25  1  0
 24 51  1  0
 25 26  2  0
 26 52  1  0
 28 29  1  0
 28 53  1  0
 28 54  1  0
 29 30  1  0
 29 55  1  6
 30 56  1  0
 30 57  1  0
M  CHG  1   9   1
M  END
>  <i_m_ct_stereo_status>  (89) 
1

>  <s_m_source_file>  (89) 
/var/tmp/pbs.5076255.sched01/tmp8nmo4hef/06hb_edth.sdf

>  <i_m_source_file_index>  (89) 
35

>  <i_lp_mmshare_version>  (89) 
48012

>  <i_f3d_flags>  (89) 
0

>  <s_epik_input>  (89) 
W0NIM11PQyg9TylOKFtDSDJdMSlbQ0gyXVtDQEhdKFtDQEhdMTIpW0NIMl1OKFtDSDJdMilbQ0gyXVtDQEBIXShPMylbQ0gyXVtDSDJdW0NAQF0zKGM0W2NIXVtjSF1bY0hdbltjSF00KWM1W2NIXW5bY0hdbltjSF01

>  <s_epik_cmdline>  (89) 
J2VwaWtfcHl0aG9uJywgJy1waHQnLCAnMi4wJywgJy1waCcsICc3LjAnLCAnLXRuJywgJzgnLCAnLW1hJywgJzIwMCcsICctaW1hZScsICc8aW5maWxlLm1hZT4nLCAnLW9tYWUnLCAnPG91dGZpbGUubWFlPic=

>  <r_lp_tautomer_probability>  (89) 
1

>  <r_epik_Ionization_Penalty>  (89) 
0.0259189

>  <r_epik_Ionization_Penalty_Charging>  (89) 
0.0237577

>  <r_epik_Ionization_Penalty_Neutral>  (89) 
0.00216117

>  <r_epik_State_Penalty>  (89) 
0.0192465

>  <r_epik_Charging_Adjusted_Penalty>  (89) 
0.0430043

>  <i_epik_Tot_Q>  (89) 
1

>  <i_epik_Tot_abs_Q>  (89) 
1

>  <s_epik_Chemistry_Notes>  (89) 
This compound has an ester and may undergo hydrolysis at high or low pH. This compound contains an electron-poor aromatic ring that is susceptible to covalent hydrolysis at low pH, typically resulting in measured values for nitrogen ring protonation that are around two units higher than predicted values.

>  <s_lp_Force_Field>  (89) 
OPLS3e

>  <r_lp_Energy>  (89) 
34.9126

>  <b_lp_Chiralities_Consistent>  (89) 
1

>  <s_lp_Variant>  (89) 
29:0-1

>  <s_i_glide_gridfile>  (89) 
pfpi4k_grid

>  <i_i_glide_lignum>  (89) 
35

>  <i_i_glide_rotatable_bonds>  (89) 
6

>  <r_i_docking_score>  (89) 
-3.42194

>  <r_i_glide_ligand_efficiency>  (89) 
-0.114065

>  <r_i_glide_ligand_efficiency_sa>  (89) 
-0.354425

>  <r_i_glide_ligand_efficiency_ln>  (89) 
-0.777501

>  <r_i_glide_gscore>  (89) 
-3.42194

>  <r_i_glide_lipo>  (89) 
-0.61553

>  <r_i_glide_hbond>  (89) 
-0.184664

>  <r_i_glide_metal>  (89) 
-0

>  <r_i_glide_rewards>  (89) 
-0.709277

>  <r_i_glide_evdw>  (89) 
-33.2306

>  <r_i_glide_ecoul>  (89) 
-4.99276

>  <r_i_glide_erotb>  (89) 
0.584585

>  <r_i_glide_esite>  (89) 
-0.0866039

>  <r_i_glide_emodel>  (89) 
-44.8583

>  <r_i_glide_energy>  (89) 
-38.2234

>  <r_i_glide_einternal>  (89) 
2.68702

>  <r_i_glide_intrahb_reward>  (89) 
-0

>  <i_i_glide_confnum>  (89) 
4

>  <i_i_glide_posenum>  (89) 
23

>  <r_i_glide_eff_state_penalty>  (89) 
0

>  <ligand_id>  (89) 
29

>  <original_smiles>  (89) 
COC(=O)N1CC2CN(CC3CCC(c4cccnc4)(c4cncnc4)O3)CC2C1

>  <smiles>  (89) 
[H]c1nc([H])c(C2(c3c([H])nc([H])c([H])c3[H])OC([H])(C([H])([H])[N+]3([H])C([H])([H])C4([H])C([H])([H])N(C(=O)OC([H])([H])[H])C([H])([H])C4([H])C3([H])[H])C([H])([H])C2([H])[H])c([H])n1

$$$$
29:0:2
     RDKit          3D

 58 62  0  0  1  0  0  0  0  0999 V2000
   -1.6017    2.3453    9.8757 C   0  0  0  0  0  0  0  0  0  0  0  0
   -1.5247    2.2008    8.4648 O   0  0  0  0  0  0  0  0  0  0  0  0
   -1.5550    3.3008    7.6813 C   0  0  0  0  0  0  0  0  0  0  0  0
   -1.6809    4.4506    8.0998 O   0  0  0  0  0  0  0  0  0  0  0  0
   -1.4193    2.9467    6.3422 N   0  0  0  0  0  0  0  0  0  0  0  0
   -1.2553    1.5899    5.8424 C   0  0  0  0  0  0  0  0  0  0  0  0
   -1.3405    1.7133    4.3119 C   0  0  2  0  0  0  0  0  0  0  0  0
   -0.2857    0.9155    3.5541 C   0  0  0  0  0  0  0  0  0  0  0  0
    0.5851    1.8804    2.8272 N   0  0  2  0  0  0  0  0  0  0  0  0
    2.0023    1.4440    2.6849 C   0  0  0  0  0  0  0  0  0  0  0  0
    2.2054    0.2408    1.7035 C   0  0  2  0  0  0  0  0  0  0  0  0
    1.4576   -1.0228    2.1370 C   0  0  0  0  0  0  0  0  0  0  0  0
    2.3004   -2.1339    1.6229 C   0  0  0  0  0  0  0  0  0  0  0  0
    3.7221   -1.5967    1.8146 C   0  0  1  0  0  0  0  0  0  0  0  0
    4.2654   -1.9537    3.2122 C   0  0  0  0  0  0  0  0  0  0  0  0
    4.4910   -3.3016    3.5893 C   0  0  0  0  0  0  0  0  0  0  0  0
    5.0341   -3.5766    4.8557 C   0  0  0  0  0  0  0  0  0  0  0  0
    5.2982   -2.5049    5.7338 C   0  0  0  0  0  0  0  0  0  0  0  0
    5.0512   -1.2224    5.4080 N   0  0  0  0  0  0  0  0  0  0  0  0
    4.5636   -0.9575    4.1771 C   0  0  0  0  0  0  0  0  0  0  0  0
    4.6244   -2.1608    0.7180 C   0  0  0  0  0  0  0  0  0  0  0  0
    4.6942   -3.5434    0.4389 C   0  0  0  0  0  0  0  0  0  0  0  0
    5.5440   -4.0317   -0.4833 N   0  0  0  0  0  0  0  0  0  0  0  0
    6.2796   -3.1579   -1.1629 C   0  0  0  0  0  0  0  0  0  0  0  0
    6.2477   -1.8336   -1.0363 N   0  0  0  0  0  0  0  0  0  0  0  0
    5.4221   -1.3285   -0.0924 C   0  0  0  0  0  0  0  0  0  0  0  0
    3.5722   -0.1771    1.6724 O   0  0  0  0  0  0  0  0  0  0  0  0
    0.4032    3.1763    3.5264 C   0  0  0  0  0  0  0  0  0  0  0  0
   -1.0731    3.1727    3.9750 C   0  0  2  0  0  0  0  0  0  0  0  0
   -1.3980    3.9357    5.2604 C   0  0  0  0  0  0  0  0  0  0  0  0
   -1.5284    1.3687   10.3578 H   0  0  0  0  0  0  0  0  0  0  0  0
   -2.5480    2.8030   10.1692 H   0  0  0  0  0  0  0  0  0  0  0  0
   -0.7826    2.9611   10.2513 H   0  0  0  0  0  0  0  0  0  0  0  0
   -0.2861    1.2153    6.1810 H   0  0  0  0  0  0  0  0  0  0  0  0
   -2.0287    0.9123    6.2131 H   0  0  0  0  0  0  0  0  0  0  0  0
   -2.3376    1.4319    3.9794 H   0  0  0  0  0  0  0  0  0  0  0  0
    0.3064    0.3426    4.2749 H   0  0  0  0  0  0  0  0  0  0  0  0
   -0.7815    0.2269    2.8675 H   0  0  0  0  0  0  0  0  0  0  0  0
    2.5999    2.2881    2.3244 H   0  0  0  0  0  0  0  0  0  0  0  0
    2.4080    1.2031    3.6657 H   0  0  0  0  0  0  0  0  0  0  0  0
    1.8880    0.5311    0.6973 H   0  0  0  0  0  0  0  0  0  0  0  0
    1.4363   -1.1140    3.2296 H   0  0  0  0  0  0  0  0  0  0  0  0
    0.4493   -1.0705    1.7266 H   0  0  0  0  0  0  0  0  0  0  0  0
    2.1038   -3.0750    2.1369 H   0  0  0  0  0  0  0  0  0  0  0  0
    2.0696   -2.2684    0.5609 H   0  0  0  0  0  0  0  0  0  0  0  0
    4.2677   -4.1304    2.9406 H   0  0  0  0  0  0  0  0  0  0  0  0
    5.2557   -4.5933    5.1362 H   0  0  0  0  0  0  0  0  0  0  0  0
    5.7166   -2.6976    6.7135 H   0  0  0  0  0  0  0  0  0  0  0  0
    4.4006    0.0964    3.9732 H   0  0  0  0  0  0  0  0  0  0  0  0
    4.0805   -4.2696    0.9496 H   0  0  0  0  0  0  0  0  0  0  0  0
    6.9515   -3.5719   -1.9115 H   0  0  0  0  0  0  0  0  0  0  0  0
    5.4077   -0.2516    0.0053 H   0  0  0  0  0  0  0  0  0  0  0  0
    1.0674    3.2184    4.3941 H   0  0  0  0  0  0  0  0  0  0  0  0
    0.6364    4.0428    2.8954 H   0  0  0  0  0  0  0  0  0  0  0  0
   -1.7034    3.4801    3.1339 H   0  0  0  0  0  0  0  0  0  0  0  0
   -2.3996    4.3536    5.1698 H   0  0  0  0  0  0  0  0  0  0  0  0
   -0.6770    4.7339    5.4561 H   0  0  0  0  0  0  0  0  0  0  0  0
    0.2000    2.0279    1.8963 H   0  0  0  0  0  0  0  0  0  0  0  0
  1  2  1  0
  1 31  1  0
  1 32  1  0
  1 33  1  0
  2  3  1  0
  3  4  2  0
  3  5  1  0
  5 30  1  0
  5  6  1  0
  6  7  1  0
  6 34  1  0
  6 35  1  0
  7 29  1  0
  7  8  1  0
  7 36  1  6
  8  9  1  0
  8 37  1  0
  8 38  1  0
  9 10  1  0
  9 28  1  0
  9 58  1  6
 10 11  1  0
 10 39  1  0
 10 40  1  0
 11 27  1  0
 11 12  1  0
 11 41  1  6
 12 13  1  0
 12 42  1  0
 12 43  1  0
 13 14  1  0
 13 44  1  0
 13 45  1  0
 14 15  1  1
 14 21  1  0
 14 27  1  0
 15 20  1  0
 15 16  2  0
 16 17  1  0
 16 46  1  0
 17 18  2  0
 17 47  1  0
 18 19  1  0
 18 48  1  0
 19 20  2  0
 20 49  1  0
 21 26  1  0
 21 22  2  0
 22 23  1  0
 22 50  1  0
 23 24  2  0
 24 25  1  0
 24 51  1  0
 25 26  2  0
 26 52  1  0
 28 29  1  0
 28 53  1  0
 28 54  1  0
 29 30  1  0
 29 55  1  6
 30 56  1  0
 30 57  1  0
M  CHG  1   9   1
M  END
>  <i_m_ct_stereo_status>  (90) 
1

>  <s_m_source_file>  (90) 
/var/tmp/pbs.5076255.sched01/tmp8nmo4hef/06hb_edth.sdf

>  <i_m_source_file_index>  (90) 
35

>  <i_lp_mmshare_version>  (90) 
48012

>  <i_f3d_flags>  (90) 
0

>  <s_epik_input>  (90) 
W0NIM11PQyg9TylOKFtDSDJdMSlbQ0gyXVtDQEhdKFtDQEhdMTIpW0NIMl1OKFtDSDJdMilbQ0gyXVtDQEBIXShPMylbQ0gyXVtDSDJdW0NAQF0zKGM0W2NIXVtjSF1bY0hdbltjSF00KWM1W2NIXW5bY0hdbltjSF01

>  <s_epik_cmdline>  (90) 
J2VwaWtfcHl0aG9uJywgJy1waHQnLCAnMi4wJywgJy1waCcsICc3LjAnLCAnLXRuJywgJzgnLCAnLW1hJywgJzIwMCcsICctaW1hZScsICc8aW5maWxlLm1hZT4nLCAnLW9tYWUnLCAnPG91dGZpbGUubWFlPic=

>  <r_lp_tautomer_probability>  (90) 
1

>  <r_epik_Ionization_Penalty>  (90) 
0.0259189

>  <r_epik_Ionization_Penalty_Charging>  (90) 
0.0237577

>  <r_epik_Ionization_Penalty_Neutral>  (90) 
0.00216117

>  <r_epik_State_Penalty>  (90) 
0.0192465

>  <r_epik_Charging_Adjusted_Penalty>  (90) 
0.0430043

>  <i_epik_Tot_Q>  (90) 
1

>  <i_epik_Tot_abs_Q>  (90) 
1

>  <s_epik_Chemistry_Notes>  (90) 
This compound has an ester and may undergo hydrolysis at high or low pH. This compound contains an electron-poor aromatic ring that is susceptible to covalent hydrolysis at low pH, typically resulting in measured values for nitrogen ring protonation that are around two units higher than predicted values.

>  <s_lp_Force_Field>  (90) 
OPLS3e

>  <r_lp_Energy>  (90) 
34.9126

>  <b_lp_Chiralities_Consistent>  (90) 
1

>  <s_lp_Variant>  (90) 
29:0-1

>  <s_i_glide_gridfile>  (90) 
pfpi4k_grid

>  <i_i_glide_lignum>  (90) 
35

>  <i_i_glide_rotatable_bonds>  (90) 
6

>  <r_i_docking_score>  (90) 
-3.04076

>  <r_i_glide_ligand_efficiency>  (90) 
-0.101359

>  <r_i_glide_ligand_efficiency_sa>  (90) 
-0.314945

>  <r_i_glide_ligand_efficiency_ln>  (90) 
-0.690894

>  <r_i_glide_gscore>  (90) 
-3.04076

>  <r_i_glide_lipo>  (90) 
-0.161571

>  <r_i_glide_hbond>  (90) 
-0.141727

>  <r_i_glide_metal>  (90) 
-0

>  <r_i_glide_rewards>  (90) 
-0.79786

>  <r_i_glide_evdw>  (90) 
-26.0907

>  <r_i_glide_ecoul>  (90) 
-7.73545

>  <r_i_glide_erotb>  (90) 
0.584585

>  <r_i_glide_esite>  (90) 
-0.0593381

>  <r_i_glide_emodel>  (90) 
-40.6067

>  <r_i_glide_energy>  (90) 
-33.8261

>  <r_i_glide_einternal>  (90) 
0.656959

>  <r_i_glide_intrahb_reward>  (90) 
-0

>  <i_i_glide_confnum>  (90) 
1

>  <i_i_glide_posenum>  (90) 
9

>  <r_i_glide_eff_state_penalty>  (90) 
0

>  <ligand_id>  (90) 
29

>  <original_smiles>  (90) 
COC(=O)N1CC2CN(CC3CCC(c4cccnc4)(c4cncnc4)O3)CC2C1

>  <smiles>  (90) 
[H]c1nc([H])c(C2(c3c([H])nc([H])c([H])c3[H])OC([H])(C([H])([H])[N+]3([H])C([H])([H])C4([H])C([H])([H])N(C(=O)OC([H])([H])[H])C([H])([H])C4([H])C3([H])[H])C([H])([H])C2([H])[H])c([H])n1

$$$$
29:1:0
     RDKit          3D

 58 62  0  0  1  0  0  0  0  0999 V2000
    3.4097   -0.0912   -5.2623 C   0  0  0  0  0  0  0  0  0  0  0  0
    3.9472   -0.5144   -4.0266 O   0  0  0  0  0  0  0  0  0  0  0  0
    3.8035   -1.7866   -3.6111 C   0  0  0  0  0  0  0  0  0  0  0  0
    3.4083   -2.7102   -4.3216 O   0  0  0  0  0  0  0  0  0  0  0  0
    4.1531   -1.8898   -2.2711 N   0  0  0  0  0  0  0  0  0  0  0  0
    3.9563   -3.0928   -1.4727 C   0  0  0  0  0  0  0  0  0  0  0  0
    4.2870   -2.7091   -0.0219 C   0  0  2  0  0  0  0  0  0  0  0  0
    3.0764   -2.6665    0.9255 C   0  0  0  0  0  0  0  0  0  0  0  0
    2.6664   -1.2411    1.0053 N   0  0  1  0  0  0  0  0  0  0  0  0
    1.8072   -0.8974    2.1760 C   0  0  0  0  0  0  0  0  0  0  0  0
    2.4573    0.0961    3.1868 C   0  0  2  0  0  0  0  0  0  0  0  0
    1.9765   -0.1366    4.6097 C   0  0  0  0  0  0  0  0  0  0  0  0
    2.1648    1.2451    5.1722 C   0  0  0  0  0  0  0  0  0  0  0  0
    1.7129    2.1738    4.0248 C   0  0  1  0  0  0  0  0  0  0  0  0
    0.2084    2.4107    4.0605 C   0  0  0  0  0  0  0  0  0  0  0  0
   -0.6012    2.1761    2.9260 C   0  0  0  0  0  0  0  0  0  0  0  0
   -1.9752    2.4548    3.0180 C   0  0  0  0  0  0  0  0  0  0  0  0
   -2.4899    2.9462    4.2307 C   0  0  0  0  0  0  0  0  0  0  0  0
   -1.7326    3.1744    5.3211 N   0  0  0  0  0  0  0  0  0  0  0  0
   -0.4126    2.9151    5.2245 C   0  0  0  0  0  0  0  0  0  0  0  0
    2.4400    3.5092    4.0439 C   0  0  0  0  0  0  0  0  0  0  0  0
    2.9474    4.0768    5.2323 C   0  0  0  0  0  0  0  0  0  0  0  0
    3.5771    5.2660    5.2511 N   0  0  0  0  0  0  0  0  0  0  0  0
    3.6757    5.8956    4.0832 C   0  0  0  0  0  0  0  0  0  0  0  0
    3.2372    5.4707    2.8996 N   0  0  0  0  0  0  0  0  0  0  0  0
    2.6140    4.2732    2.8723 C   0  0  0  0  0  0  0  0  0  0  0  0
    2.0662    1.4331    2.8569 O   0  0  0  0  0  0  0  0  0  0  0  0
    3.9351   -0.4719    0.8548 C   0  0  0  0  0  0  0  0  0  0  0  0
    4.8214   -1.2830   -0.0781 C   0  0  2  0  0  0  0  0  0  0  0  0
    4.7726   -0.8114   -1.5254 C   0  0  0  0  0  0  0  0  0  0  0  0
    3.6470    0.9597   -5.4285 H   0  0  0  0  0  0  0  0  0  0  0  0
    2.3260   -0.1957   -5.2536 H   0  0  0  0  0  0  0  0  0  0  0  0
    3.8115   -0.6571   -6.0999 H   0  0  0  0  0  0  0  0  0  0  0  0
    2.9441   -3.4752   -1.5677 H   0  0  0  0  0  0  0  0  0  0  0  0
    4.6404   -3.8657   -1.8167 H   0  0  0  0  0  0  0  0  0  0  0  0
    5.0352   -3.3927    0.3880 H   0  0  0  0  0  0  0  0  0  0  0  0
    2.2534   -3.3185    0.6351 H   0  0  0  0  0  0  0  0  0  0  0  0
    3.3880   -2.9791    1.9272 H   0  0  0  0  0  0  0  0  0  0  0  0
    0.8713   -0.5047    1.7921 H   0  0  0  0  0  0  0  0  0  0  0  0
    1.5091   -1.8172    2.6856 H   0  0  0  0  0  0  0  0  0  0  0  0
    3.5244    0.0646    3.2648 H   0  0  0  0  0  0  0  0  0  0  0  0
    0.9380   -0.4625    4.6758 H   0  0  0  0  0  0  0  0  0  0  0  0
    2.6321   -0.8605    5.0897 H   0  0  0  0  0  0  0  0  0  0  0  0
    1.6440    1.3896    6.1160 H   0  0  0  0  0  0  0  0  0  0  0  0
    3.2317    1.3772    5.3696 H   0  0  0  0  0  0  0  0  0  0  0  0
   -0.1902    1.8063    1.9949 H   0  0  0  0  0  0  0  0  0  0  0  0
   -2.6251    2.2894    2.1753 H   0  0  0  0  0  0  0  0  0  0  0  0
   -3.5411    3.1609    4.3346 H   0  0  0  0  0  0  0  0  0  0  0  0
    0.1686    3.1238    6.1114 H   0  0  0  0  0  0  0  0  0  0  0  0
    2.8521    3.5788    6.1845 H   0  0  0  0  0  0  0  0  0  0  0  0
    4.1858    6.8413    4.1005 H   0  0  0  0  0  0  0  0  0  0  0  0
    2.2583    3.9294    1.9112 H   0  0  0  0  0  0  0  0  0  0  0  0
    3.7619    0.5622    0.5479 H   0  0  0  0  0  0  0  0  0  0  0  0
    4.5064   -0.4784    1.7646 H   0  0  0  0  0  0  0  0  0  0  0  0
    5.8440   -1.2254    0.2835 H   0  0  0  0  0  0  0  0  0  0  0  0
    5.7878   -0.6460   -1.8963 H   0  0  0  0  0  0  0  0  0  0  0  0
    4.2414    0.1350   -1.6222 H   0  0  0  0  0  0  0  0  0  0  0  0
    2.0760   -1.0767    0.1815 H   0  0  0  0  0  0  0  0  0  0  0  0
  1  2  1  0
  1 31  1  0
  1 32  1  0
  1 33  1  0
  2  3  1  0
  3  4  2  0
  3  5  1  0
  5 30  1  0
  5  6  1  0
  6  7  1  0
  6 34  1  0
  6 35  1  0
  7 29  1  0
  7  8  1  0
  7 36  1  1
  8  9  1  0
  8 37  1  0
  8 38  1  0
  9 10  1  0
  9 28  1  0
  9 58  1  6
 10 11  1  0
 10 39  1  0
 10 40  1  0
 11 27  1  0
 11 12  1  0
 11 41  1  1
 12 13  1  0
 12 42  1  0
 12 43  1  0
 13 14  1  0
 13 44  1  0
 13 45  1  0
 14 15  1  1
 14 21  1  0
 14 27  1  0
 15 20  1  0
 15 16  2  0
 16 17  1  0
 16 46  1  0
 17 18  2  0
 17 47  1  0
 18 19  1  0
 18 48  1  0
 19 20  2  0
 20 49  1  0
 21 26  1  0
 21 22  2  0
 22 23  1  0
 22 50  1  0
 23 24  2  0
 24 25  1  0
 24 51  1  0
 25 26  2  0
 26 52  1  0
 28 29  1  0
 28 53  1  0
 28 54  1  0
 29 30  1  0
 29 55  1  1
 30 56  1  0
 30 57  1  0
M  CHG  1   9   1
M  END
>  <i_m_ct_stereo_status>  (91) 
1

>  <s_m_source_file>  (91) 
/var/tmp/pbs.5076255.sched01/tmp8nmo4hef/06hb_edth.sdf

>  <i_m_source_file_index>  (91) 
36

>  <i_lp_mmshare_version>  (91) 
48012

>  <i_f3d_flags>  (91) 
0

>  <s_epik_input>  (91) 
W0NIM11PQyg9TylOKFtDSDJdMSlbQ0gyXVtDQEhdKFtDQEhdMTIpW0NIMl1OKFtDSDJdMilbQ0gyXVtDQEBIXShPMylbQ0gyXVtDSDJdW0NAQF0zKGM0W2NIXVtjSF1bY0hdbltjSF00KWM1W2NIXW5bY0hdbltjSF01

>  <s_epik_cmdline>  (91) 
J2VwaWtfcHl0aG9uJywgJy1waHQnLCAnMi4wJywgJy1waCcsICc3LjAnLCAnLXRuJywgJzgnLCAnLW1hJywgJzIwMCcsICctaW1hZScsICc8aW5maWxlLm1hZT4nLCAnLW9tYWUnLCAnPG91dGZpbGUubWFlPic=

>  <r_lp_tautomer_probability>  (91) 
1

>  <r_epik_Ionization_Penalty>  (91) 
0.0259189

>  <r_epik_Ionization_Penalty_Charging>  (91) 
0.0237577

>  <r_epik_Ionization_Penalty_Neutral>  (91) 
0.00216117

>  <r_epik_State_Penalty>  (91) 
0.0192465

>  <r_epik_Charging_Adjusted_Penalty>  (91) 
0.0430043

>  <i_epik_Tot_Q>  (91) 
1

>  <i_epik_Tot_abs_Q>  (91) 
1

>  <s_epik_Chemistry_Notes>  (91) 
This compound has an ester and may undergo hydrolysis at high or low pH. This compound contains an electron-poor aromatic ring that is susceptible to covalent hydrolysis at low pH, typically resulting in measured values for nitrogen ring protonation that are around two units higher than predicted values.

>  <s_lp_Force_Field>  (91) 
OPLS3e

>  <r_lp_Energy>  (91) 
33.2398

>  <b_lp_Chiralities_Consistent>  (91) 
1

>  <s_lp_Variant>  (91) 
29:0-2

>  <s_i_glide_gridfile>  (91) 
pfpi4k_grid

>  <i_i_glide_lignum>  (91) 
36

>  <i_i_glide_rotatable_bonds>  (91) 
6

>  <r_i_docking_score>  (91) 
-3.87052

>  <r_i_glide_ligand_efficiency>  (91) 
-0.129017

>  <r_i_glide_ligand_efficiency_sa>  (91) 
-0.400887

>  <r_i_glide_ligand_efficiency_ln>  (91) 
-0.879425

>  <r_i_glide_gscore>  (91) 
-3.87052

>  <r_i_glide_lipo>  (91) 
-0.136859

>  <r_i_glide_hbond>  (91) 
-0.506169

>  <r_i_glide_metal>  (91) 
-0

>  <r_i_glide_rewards>  (91) 
-0.941662

>  <r_i_glide_evdw>  (91) 
-36.1935

>  <r_i_glide_ecoul>  (91) 
-6.57806

>  <r_i_glide_erotb>  (91) 
0.584585

>  <r_i_glide_esite>  (91) 
-0.0740354

>  <r_i_glide_emodel>  (91) 
-44.777

>  <r_i_glide_energy>  (91) 
-42.7715

>  <r_i_glide_einternal>  (91) 
15.4108

>  <r_i_glide_intrahb_reward>  (91) 
-0

>  <i_i_glide_confnum>  (91) 
2

>  <i_i_glide_posenum>  (91) 
11

>  <r_i_glide_eff_state_penalty>  (91) 
0

>  <ligand_id>  (91) 
29

>  <original_smiles>  (91) 
COC(=O)N1CC2CN(CC3CCC(c4cccnc4)(c4cncnc4)O3)CC2C1

>  <smiles>  (91) 
[H]c1nc([H])c(C2(c3c([H])nc([H])c([H])c3[H])OC([H])(C([H])([H])[N+]3([H])C([H])([H])C4([H])C([H])([H])N(C(=O)OC([H])([H])[H])C([H])([H])C4([H])C3([H])[H])C([H])([H])C2([H])[H])c([H])n1

$$$$
29:1:1
     RDKit          3D

 58 62  0  0  1  0  0  0  0  0999 V2000
    2.9235   -0.1600   -4.8023 C   0  0  0  0  0  0  0  0  0  0  0  0
    3.6928   -0.6393   -3.7123 O   0  0  0  0  0  0  0  0  0  0  0  0
    3.7907   -1.9641   -3.4714 C   0  0  0  0  0  0  0  0  0  0  0  0
    3.2519   -2.8382   -4.1429 O   0  0  0  0  0  0  0  0  0  0  0  0
    4.6151   -2.1864   -2.3647 N   0  0  0  0  0  0  0  0  0  0  0  0
    4.9532   -3.5097   -1.8652 C   0  0  0  0  0  0  0  0  0  0  0  0
    5.7669   -3.2981   -0.5769 C   0  0  2  0  0  0  0  0  0  0  0  0
    5.0309   -3.6979    0.7104 C   0  0  0  0  0  0  0  0  0  0  0  0
    4.4452   -2.4298    1.2455 N   0  0  1  0  0  0  0  0  0  0  0  0
    4.1012   -2.4689    2.7088 C   0  0  0  0  0  0  0  0  0  0  0  0
    3.4531   -1.1557    3.2173 C   0  0  2  0  0  0  0  0  0  0  0  0
    3.7398   -0.9129    4.6916 C   0  0  0  0  0  0  0  0  0  0  0  0
    2.5282   -0.1119    5.1123 C   0  0  0  0  0  0  0  0  0  0  0  0
    1.3862   -0.7496    4.3173 C   0  0  1  0  0  0  0  0  0  0  0  0
    0.7619   -1.9305    5.0777 C   0  0  0  0  0  0  0  0  0  0  0  0
    0.8515   -3.2584    4.5949 C   0  0  0  0  0  0  0  0  0  0  0  0
    0.2378   -4.3048    5.3087 C   0  0  0  0  0  0  0  0  0  0  0  0
   -0.4649   -3.9878    6.4851 C   0  0  0  0  0  0  0  0  0  0  0  0
   -0.5509   -2.7297    6.9758 N   0  0  0  0  0  0  0  0  0  0  0  0
    0.0654   -1.7325    6.2970 C   0  0  0  0  0  0  0  0  0  0  0  0
    0.3267    0.2931    3.9627 C   0  0  0  0  0  0  0  0  0  0  0  0
   -0.3676    1.0312    4.9488 C   0  0  0  0  0  0  0  0  0  0  0  0
   -1.3547    1.8995    4.6365 N   0  0  0  0  0  0  0  0  0  0  0  0
   -1.6235    2.0679    3.3338 C   0  0  0  0  0  0  0  0  0  0  0  0
   -1.0017    1.4608    2.3182 N   0  0  0  0  0  0  0  0  0  0  0  0
   -0.0276    0.5843    2.6271 C   0  0  0  0  0  0  0  0  0  0  0  0
    2.0288   -1.2255    3.1269 O   0  0  0  0  0  0  0  0  0  0  0  0
    5.4395   -1.3752    0.8921 C   0  0  0  0  0  0  0  0  0  0  0  0
    6.0132   -1.7892   -0.4583 C   0  0  2  0  0  0  0  0  0  0  0  0
    5.2879   -1.1253   -1.6356 C   0  0  0  0  0  0  0  0  0  0  0  0
    2.9534    0.9307   -4.8189 H   0  0  0  0  0  0  0  0  0  0  0  0
    1.8801   -0.4672   -4.7219 H   0  0  0  0  0  0  0  0  0  0  0  0
    3.3272   -0.5246   -5.7477 H   0  0  0  0  0  0  0  0  0  0  0  0
    4.0570   -4.1064   -1.6984 H   0  0  0  0  0  0  0  0  0  0  0  0
    5.5607   -4.0257   -2.6129 H   0  0  0  0  0  0  0  0  0  0  0  0
    6.7112   -3.8421   -0.6391 H   0  0  0  0  0  0  0  0  0  0  0  0
    4.2716   -4.4689    0.5704 H   0  0  0  0  0  0  0  0  0  0  0  0
    5.7523   -4.0732    1.4350 H   0  0  0  0  0  0  0  0  0  0  0  0
    3.4414   -3.3174    2.8726 H   0  0  0  0  0  0  0  0  0  0  0  0
    5.0167   -2.6927    3.2546 H   0  0  0  0  0  0  0  0  0  0  0  0
    3.7850   -0.2704    2.6624 H   0  0  0  0  0  0  0  0  0  0  0  0
    3.7787   -1.8546    5.2427 H   0  0  0  0  0  0  0  0  0  0  0  0
    4.6811   -0.3784    4.8463 H   0  0  0  0  0  0  0  0  0  0  0  0
    2.3711   -0.1056    6.1892 H   0  0  0  0  0  0  0  0  0  0  0  0
    2.6828    0.9206    4.7990 H   0  0  0  0  0  0  0  0  0  0  0  0
    1.3858   -3.4940    3.6814 H   0  0  0  0  0  0  0  0  0  0  0  0
    0.3011   -5.3332    4.9637 H   0  0  0  0  0  0  0  0  0  0  0  0
   -0.9843   -4.7514    7.0509 H   0  0  0  0  0  0  0  0  0  0  0  0
   -0.0281   -0.7589    6.7422 H   0  0  0  0  0  0  0  0  0  0  0  0
   -0.1521    0.9182    6.0019 H   0  0  0  0  0  0  0  0  0  0  0  0
   -2.4118    2.7693    3.0928 H   0  0  0  0  0  0  0  0  0  0  0  0
    0.4554    0.1075    1.7849 H   0  0  0  0  0  0  0  0  0  0  0  0
    4.9914   -0.3824    0.8709 H   0  0  0  0  0  0  0  0  0  0  0  0
    6.2238   -1.3811    1.6473 H   0  0  0  0  0  0  0  0  0  0  0  0
    7.0784   -1.5587   -0.4704 H   0  0  0  0  0  0  0  0  0  0  0  0
    5.9963   -0.6651   -2.3143 H   0  0  0  0  0  0  0  0  0  0  0  0
    4.5939   -0.3459   -1.3161 H   0  0  0  0  0  0  0  0  0  0  0  0
    3.6028   -2.2510    0.7070 H   0  0  0  0  0  0  0  0  0  0  0  0
  1  2  1  0
  1 31  1  0
  1 32  1  0
  1 33  1  0
  2  3  1  0
  3  4  2  0
  3  5  1  0
  5 30  1  0
  5  6  1  0
  6  7  1  0
  6 34  1  0
  6 35  1  0
  7 29  1  0
  7  8  1  0
  7 36  1  6
  8  9  1  0
  8 37  1  0
  8 38  1  0
  9 10  1  0
  9 28  1  0
  9 58  1  6
 10 11  1  0
 10 39  1  0
 10 40  1  0
 11 27  1  0
 11 12  1  0
 11 41  1  6
 12 13  1  0
 12 42  1  0
 12 43  1  0
 13 14  1  0
 13 44  1  0
 13 45  1  0
 14 15  1  1
 14 21  1  0
 14 27  1  0
 15 20  1  0
 15 16  2  0
 16 17  1  0
 16 46  1  0
 17 18  2  0
 17 47  1  0
 18 19  1  0
 18 48  1  0
 19 20  2  0
 20 49  1  0
 21 26  1  0
 21 22  2  0
 22 23  1  0
 22 50  1  0
 23 24  2  0
 24 25  1  0
 24 51  1  0
 25 26  2  0
 26 52  1  0
 28 29  1  0
 28 53  1  0
 28 54  1  0
 29 30  1  0
 29 55  1  1
 30 56  1  0
 30 57  1  0
M  CHG  1   9   1
M  END
>  <i_m_ct_stereo_status>  (92) 
1

>  <s_m_source_file>  (92) 
/var/tmp/pbs.5076255.sched01/tmp8nmo4hef/06hb_edth.sdf

>  <i_m_source_file_index>  (92) 
36

>  <i_lp_mmshare_version>  (92) 
48012

>  <i_f3d_flags>  (92) 
0

>  <s_epik_input>  (92) 
W0NIM11PQyg9TylOKFtDSDJdMSlbQ0gyXVtDQEhdKFtDQEhdMTIpW0NIMl1OKFtDSDJdMilbQ0gyXVtDQEBIXShPMylbQ0gyXVtDSDJdW0NAQF0zKGM0W2NIXVtjSF1bY0hdbltjSF00KWM1W2NIXW5bY0hdbltjSF01

>  <s_epik_cmdline>  (92) 
J2VwaWtfcHl0aG9uJywgJy1waHQnLCAnMi4wJywgJy1waCcsICc3LjAnLCAnLXRuJywgJzgnLCAnLW1hJywgJzIwMCcsICctaW1hZScsICc8aW5maWxlLm1hZT4nLCAnLW9tYWUnLCAnPG91dGZpbGUubWFlPic=

>  <r_lp_tautomer_probability>  (92) 
1

>  <r_epik_Ionization_Penalty>  (92) 
0.0259189

>  <r_epik_Ionization_Penalty_Charging>  (92) 
0.0237577

>  <r_epik_Ionization_Penalty_Neutral>  (92) 
0.00216117

>  <r_epik_State_Penalty>  (92) 
0.0192465

>  <r_epik_Charging_Adjusted_Penalty>  (92) 
0.0430043

>  <i_epik_Tot_Q>  (92) 
1

>  <i_epik_Tot_abs_Q>  (92) 
1

>  <s_epik_Chemistry_Notes>  (92) 
This compound has an ester and may undergo hydrolysis at high or low pH. This compound contains an electron-poor aromatic ring that is susceptible to covalent hydrolysis at low pH, typically resulting in measured values for nitrogen ring protonation that are around two units higher than predicted values.

>  <s_lp_Force_Field>  (92) 
OPLS3e

>  <r_lp_Energy>  (92) 
33.2398

>  <b_lp_Chiralities_Consistent>  (92) 
1

>  <s_lp_Variant>  (92) 
29:0-2

>  <s_i_glide_gridfile>  (92) 
pfpi4k_grid

>  <i_i_glide_lignum>  (92) 
36

>  <i_i_glide_rotatable_bonds>  (92) 
6

>  <r_i_docking_score>  (92) 
-3.09841

>  <r_i_glide_ligand_efficiency>  (92) 
-0.10328

>  <r_i_glide_ligand_efficiency_sa>  (92) 
-0.320916

>  <r_i_glide_ligand_efficiency_ln>  (92) 
-0.703992

>  <r_i_glide_gscore>  (92) 
-3.09841

>  <r_i_glide_lipo>  (92) 
-0.444493

>  <r_i_glide_hbond>  (92) 
-0.13906

>  <r_i_glide_metal>  (92) 
-0

>  <r_i_glide_rewards>  (92) 
-0.939748

>  <r_i_glide_evdw>  (92) 
-33.2348

>  <r_i_glide_ecoul>  (92) 
-3.09767

>  <r_i_glide_erotb>  (92) 
0.584585

>  <r_i_glide_esite>  (92) 
-0.033304

>  <r_i_glide_emodel>  (92) 
-43.4036

>  <r_i_glide_energy>  (92) 
-36.3324

>  <r_i_glide_einternal>  (92) 
1.55229

>  <r_i_glide_intrahb_reward>  (92) 
-0

>  <i_i_glide_confnum>  (92) 
2

>  <i_i_glide_posenum>  (92) 
1

>  <r_i_glide_eff_state_penalty>  (92) 
0

>  <ligand_id>  (92) 
29

>  <original_smiles>  (92) 
COC(=O)N1CC2CN(CC3CCC(c4cccnc4)(c4cncnc4)O3)CC2C1

>  <smiles>  (92) 
[H]c1nc([H])c(C2(c3c([H])nc([H])c([H])c3[H])OC([H])(C([H])([H])[N+]3([H])C([H])([H])C4([H])C([H])([H])N(C(=O)OC([H])([H])[H])C([H])([H])C4([H])C3([H])[H])C([H])([H])C2([H])[H])c([H])n1

$$$$
29:1:2
     RDKit          3D

 58 62  0  0  1  0  0  0  0  0999 V2000
    2.4549   -3.3821   -4.1724 C   0  0  0  0  0  0  0  0  0  0  0  0
    3.3246   -3.1871   -3.0735 O   0  0  0  0  0  0  0  0  0  0  0  0
    3.7125   -1.9476   -2.7408 C   0  0  0  0  0  0  0  0  0  0  0  0
    3.3267   -0.9247   -3.3032 O   0  0  0  0  0  0  0  0  0  0  0  0
    4.6268   -1.9989   -1.6880 N   0  0  0  0  0  0  0  0  0  0  0  0
    5.1680   -3.2178   -1.1001 C   0  0  0  0  0  0  0  0  0  0  0  0
    6.0180   -2.7879    0.1080 C   0  0  2  0  0  0  0  0  0  0  0  0
    5.4139   -3.1622    1.4752 C   0  0  0  0  0  0  0  0  0  0  0  0
    4.7061   -1.9536    1.9524 N   0  0  1  0  0  0  0  0  0  0  0  0
    4.4588   -1.9256    3.4148 C   0  0  0  0  0  0  0  0  0  0  0  0
    3.6423   -0.6892    3.8749 C   0  0  2  0  0  0  0  0  0  0  0  0
    3.6985   -0.4658    5.3794 C   0  0  0  0  0  0  0  0  0  0  0  0
    2.3772    0.2101    5.6424 C   0  0  0  0  0  0  0  0  0  0  0  0
    1.4160   -0.5026    4.6746 C   0  0  1  0  0  0  0  0  0  0  0  0
    0.8007   -1.7510    5.3155 C   0  0  0  0  0  0  0  0  0  0  0  0
    0.9498   -3.0299    4.7302 C   0  0  0  0  0  0  0  0  0  0  0  0
    0.3356   -4.1375    5.3475 C   0  0  0  0  0  0  0  0  0  0  0  0
   -0.4185   -3.9280    6.5166 C   0  0  0  0  0  0  0  0  0  0  0  0
   -0.5785   -2.7164    7.0810 N   0  0  0  0  0  0  0  0  0  0  0  0
    0.0344   -1.6682    6.4977 C   0  0  0  0  0  0  0  0  0  0  0  0
    0.3167    0.4422    4.2015 C   0  0  0  0  0  0  0  0  0  0  0  0
   -0.0193    0.5672    2.8377 C   0  0  0  0  0  0  0  0  0  0  0  0
   -1.0084    1.3797    2.4289 N   0  0  0  0  0  0  0  0  0  0  0  0
   -1.6549    2.0804    3.3574 C   0  0  0  0  0  0  0  0  0  0  0  0
   -1.4301    2.0427    4.6698 N   0  0  0  0  0  0  0  0  0  0  0  0
   -0.4403    1.2372    5.0910 C   0  0  0  0  0  0  0  0  0  0  0  0
    2.2609   -0.8743    3.5781 O   0  0  0  0  0  0  0  0  0  0  0  0
    5.5019   -0.8148    1.4497 C   0  0  0  0  0  0  0  0  0  0  0  0
    6.0555   -1.2556    0.0937 C   0  0  2  0  0  0  0  0  0  0  0  0
    5.1961   -0.8015   -1.0973 C   0  0  0  0  0  0  0  0  0  0  0  0
    2.2158   -4.4394   -4.2857 H   0  0  0  0  0  0  0  0  0  0  0  0
    2.9559   -3.0536   -5.0830 H   0  0  0  0  0  0  0  0  0  0  0  0
    1.5176   -2.8348   -4.0564 H   0  0  0  0  0  0  0  0  0  0  0  0
    4.3790   -3.9177   -0.8192 H   0  0  0  0  0  0  0  0  0  0  0  0
    5.8003   -3.7088   -1.8425 H   0  0  0  0  0  0  0  0  0  0  0  0
    7.0266   -3.1986    0.0213 H   0  0  0  0  0  0  0  0  0  0  0  0
    4.7678   -4.0435    1.4368 H   0  0  0  0  0  0  0  0  0  0  0  0
    6.2305   -3.3904    2.1623 H   0  0  0  0  0  0  0  0  0  0  0  0
    3.9290   -2.8366    3.7066 H   0  0  0  0  0  0  0  0  0  0  0  0
    5.4158   -1.9559    3.9385 H   0  0  0  0  0  0  0  0  0  0  0  0
    3.9682    0.2374    3.3968 H   0  0  0  0  0  0  0  0  0  0  0  0
    3.7454   -1.4183    5.9121 H   0  0  0  0  0  0  0  0  0  0  0  0
    4.5543    0.1462    5.6729 H   0  0  0  0  0  0  0  0  0  0  0  0
    2.0796    0.1763    6.6889 H   0  0  0  0  0  0  0  0  0  0  0  0
    2.4777    1.2637    5.3710 H   0  0  0  0  0  0  0  0  0  0  0  0
    1.5239   -3.1741    3.8262 H   0  0  0  0  0  0  0  0  0  0  0  0
    0.4313   -5.1265    4.9311 H   0  0  0  0  0  0  0  0  0  0  0  0
   -0.9207   -4.7450    7.0112 H   0  0  0  0  0  0  0  0  0  0  0  0
   -0.1194   -0.7307    7.0087 H   0  0  0  0  0  0  0  0  0  0  0  0
    0.4875    0.0042    2.0666 H   0  0  0  0  0  0  0  0  0  0  0  0
   -2.4468    2.7336    3.0218 H   0  0  0  0  0  0  0  0  0  0  0  0
   -0.2671    1.2317    6.1568 H   0  0  0  0  0  0  0  0  0  0  0  0
    4.9278    0.1094    1.3790 H   0  0  0  0  0  0  0  0  0  0  0  0
    6.3360   -0.6469    2.1325 H   0  0  0  0  0  0  0  0  0  0  0  0
    7.0757   -0.8821    0.0107 H   0  0  0  0  0  0  0  0  0  0  0  0
    5.8036   -0.2999   -1.8482 H   0  0  0  0  0  0  0  0  0  0  0  0
    4.4003   -0.1211   -0.7952 H   0  0  0  0  0  0  0  0  0  0  0  0
    3.8204   -1.9316    1.4619 H   0  0  0  0  0  0  0  0  0  0  0  0
  1  2  1  0
  1 31  1  0
  1 32  1  0
  1 33  1  0
  2  3  1  0
  3  4  2  0
  3  5  1  0
  5 30  1  0
  5  6  1  0
  6  7  1  0
  6 34  1  0
  6 35  1  0
  7 29  1  0
  7  8  1  0
  7 36  1  6
  8  9  1  0
  8 37  1  0
  8 38  1  0
  9 10  1  0
  9 28  1  0
  9 58  1  6
 10 11  1  0
 10 39  1  0
 10 40  1  0
 11 27  1  0
 11 12  1  0
 11 41  1  6
 12 13  1  0
 12 42  1  0
 12 43  1  0
 13 14  1  0
 13 44  1  0
 13 45  1  0
 14 15  1  1
 14 21  1  0
 14 27  1  0
 15 20  1  0
 15 16  2  0
 16 17  1  0
 16 46  1  0
 17 18  2  0
 17 47  1  0
 18 19  1  0
 18 48  1  0
 19 20  2  0
 20 49  1  0
 21 26  1  0
 21 22  2  0
 22 23  1  0
 22 50  1  0
 23 24  2  0
 24 25  1  0
 24 51  1  0
 25 26  2  0
 26 52  1  0
 28 29  1  0
 28 53  1  0
 28 54  1  0
 29 30  1  0
 29 55  1  6
 30 56  1  0
 30 57  1  0
M  CHG  1   9   1
M  END
>  <i_m_ct_stereo_status>  (93) 
1

>  <s_m_source_file>  (93) 
/var/tmp/pbs.5076255.sched01/tmp8nmo4hef/06hb_edth.sdf

>  <i_m_source_file_index>  (93) 
36

>  <i_lp_mmshare_version>  (93) 
48012

>  <i_f3d_flags>  (93) 
0

>  <s_epik_input>  (93) 
W0NIM11PQyg9TylOKFtDSDJdMSlbQ0gyXVtDQEhdKFtDQEhdMTIpW0NIMl1OKFtDSDJdMilbQ0gyXVtDQEBIXShPMylbQ0gyXVtDSDJdW0NAQF0zKGM0W2NIXVtjSF1bY0hdbltjSF00KWM1W2NIXW5bY0hdbltjSF01

>  <s_epik_cmdline>  (93) 
J2VwaWtfcHl0aG9uJywgJy1waHQnLCAnMi4wJywgJy1waCcsICc3LjAnLCAnLXRuJywgJzgnLCAnLW1hJywgJzIwMCcsICctaW1hZScsICc8aW5maWxlLm1hZT4nLCAnLW9tYWUnLCAnPG91dGZpbGUubWFlPic=

>  <r_lp_tautomer_probability>  (93) 
1

>  <r_epik_Ionization_Penalty>  (93) 
0.0259189

>  <r_epik_Ionization_Penalty_Charging>  (93) 
0.0237577

>  <r_epik_Ionization_Penalty_Neutral>  (93) 
0.00216117

>  <r_epik_State_Penalty>  (93) 
0.0192465

>  <r_epik_Charging_Adjusted_Penalty>  (93) 
0.0430043

>  <i_epik_Tot_Q>  (93) 
1

>  <i_epik_Tot_abs_Q>  (93) 
1

>  <s_epik_Chemistry_Notes>  (93) 
This compound has an ester and may undergo hydrolysis at high or low pH. This compound contains an electron-poor aromatic ring that is susceptible to covalent hydrolysis at low pH, typically resulting in measured values for nitrogen ring protonation that are around two units higher than predicted values.

>  <s_lp_Force_Field>  (93) 
OPLS3e

>  <r_lp_Energy>  (93) 
33.2398

>  <b_lp_Chiralities_Consistent>  (93) 
1

>  <s_lp_Variant>  (93) 
29:0-2

>  <s_i_glide_gridfile>  (93) 
pfpi4k_grid

>  <i_i_glide_lignum>  (93) 
36

>  <i_i_glide_rotatable_bonds>  (93) 
6

>  <r_i_docking_score>  (93) 
-2.47451

>  <r_i_glide_ligand_efficiency>  (93) 
-0.0824837

>  <r_i_glide_ligand_efficiency_sa>  (93) 
-0.256296

>  <r_i_glide_ligand_efficiency_ln>  (93) 
-0.562236

>  <r_i_glide_gscore>  (93) 
-2.47451

>  <r_i_glide_lipo>  (93) 
-0.344545

>  <r_i_glide_hbond>  (93) 
-0.00877793

>  <r_i_glide_metal>  (93) 
-0

>  <r_i_glide_rewards>  (93) 
-0.610299

>  <r_i_glide_evdw>  (93) 
-31.2888

>  <r_i_glide_ecoul>  (93) 
-3.06848

>  <r_i_glide_erotb>  (93) 
0.584585

>  <r_i_glide_esite>  (93) 
-0.07076

>  <r_i_glide_emodel>  (93) 
-40.9859

>  <r_i_glide_energy>  (93) 
-34.3573

>  <r_i_glide_einternal>  (93) 
0.431839

>  <r_i_glide_intrahb_reward>  (93) 
-0

>  <i_i_glide_confnum>  (93) 
3

>  <i_i_glide_posenum>  (93) 
14

>  <r_i_glide_eff_state_penalty>  (93) 
0

>  <ligand_id>  (93) 
29

>  <original_smiles>  (93) 
COC(=O)N1CC2CN(CC3CCC(c4cccnc4)(c4cncnc4)O3)CC2C1

>  <smiles>  (93) 
[H]c1nc([H])c(C2(c3c([H])nc([H])c([H])c3[H])OC([H])(C([H])([H])[N+]3([H])C([H])([H])C4([H])C([H])([H])N(C(=O)OC([H])([H])[H])C([H])([H])C4([H])C3([H])[H])C([H])([H])C2([H])[H])c([H])n1

$$$$
29:2:0
     RDKit          3D

 57 61  0  0  1  0  0  0  0  0999 V2000
   -0.4314    1.7888    2.2336 C   0  0  0  0  0  0  0  0  0  0  0  0
    0.8095    1.1117    2.1309 O   0  0  0  0  0  0  0  0  0  0  0  0
    1.6345    1.0756    3.1896 C   0  0  0  0  0  0  0  0  0  0  0  0
    1.3885    1.6131    4.2726 O   0  0  0  0  0  0  0  0  0  0  0  0
    2.7820    0.3436    2.8887 N   0  0  0  0  0  0  0  0  0  0  0  0
    3.0644   -0.2752    1.5997 C   0  0  0  0  0  0  0  0  0  0  0  0
    4.3626   -1.0776    1.7607 C   0  0  2  0  0  0  0  0  0  0  0  0
    4.1580   -2.5958    1.6888 C   0  0  0  0  0  0  0  0  0  0  0  0
    3.9325   -3.0274    3.0526 N   0  0  0  0  0  0  0  0  0  0  0  0
    4.0828   -4.4638    3.2255 C   0  0  0  0  0  0  0  0  0  0  0  0
    3.6890   -4.9797    4.6195 C   0  0  2  0  0  0  0  0  0  0  0  0
    3.9451   -6.4696    4.7703 C   0  0  0  0  0  0  0  0  0  0  0  0
    2.8789   -6.8593    5.7567 C   0  0  0  0  0  0  0  0  0  0  0  0
    1.6742   -5.9819    5.3626 C   0  0  1  0  0  0  0  0  0  0  0  0
    0.8101   -6.6708    4.3021 C   0  0  0  0  0  0  0  0  0  0  0  0
    0.1509   -7.8909    4.5844 C   0  0  0  0  0  0  0  0  0  0  0  0
   -0.6609   -8.4801    3.6030 C   0  0  0  0  0  0  0  0  0  0  0  0
   -0.7892   -7.8368    2.3589 C   0  0  0  0  0  0  0  0  0  0  0  0
   -0.1868   -6.6598    2.0725 N   0  0  0  0  0  0  0  0  0  0  0  0
    0.6169   -6.1155    3.0183 C   0  0  0  0  0  0  0  0  0  0  0  0
    0.8175   -5.6243    6.5667 C   0  0  0  0  0  0  0  0  0  0  0  0
    0.5903   -6.5332    7.6217 C   0  0  0  0  0  0  0  0  0  0  0  0
   -0.1831   -6.2201    8.6767 N   0  0  0  0  0  0  0  0  0  0  0  0
   -0.7384   -5.0077    8.6734 C   0  0  0  0  0  0  0  0  0  0  0  0
   -0.6133   -4.0711    7.7341 N   0  0  0  0  0  0  0  0  0  0  0  0
    0.1752   -4.3734    6.6824 C   0  0  0  0  0  0  0  0  0  0  0  0
    2.2876   -4.8024    4.8358 O   0  0  0  0  0  0  0  0  0  0  0  0
    4.8694   -2.2331    3.8195 C   0  0  0  0  0  0  0  0  0  0  0  0
    4.8537   -0.8330    3.1941 C   0  0  2  0  0  0  0  0  0  0  0  0
    3.8477    0.1231    3.8524 C   0  0  0  0  0  0  0  0  0  0  0  0
   -0.9595    1.7247    1.2837 H   0  0  0  0  0  0  0  0  0  0  0  0
   -0.2905    2.8440    2.4794 H   0  0  0  0  0  0  0  0  0  0  0  0
   -1.0594    1.3352    3.0026 H   0  0  0  0  0  0  0  0  0  0  0  0
    2.2323   -0.9037    1.2753 H   0  0  0  0  0  0  0  0  0  0  0  0
    3.2041    0.5204    0.8700 H   0  0  0  0  0  0  0  0  0  0  0  0
    5.1038   -0.7614    1.0248 H   0  0  0  0  0  0  0  0  0  0  0  0
    3.3405   -2.8892    1.0305 H   0  0  0  0  0  0  0  0  0  0  0  0
    5.0744   -3.0482    1.3051 H   0  0  0  0  0  0  0  0  0  0  0  0
    3.4462   -4.9605    2.4921 H   0  0  0  0  0  0  0  0  0  0  0  0
    5.1048   -4.7656    2.9855 H   0  0  0  0  0  0  0  0  0  0  0  0
    4.2149   -4.4563    5.4218 H   0  0  0  0  0  0  0  0  0  0  0  0
    3.7846   -6.9942    3.8274 H   0  0  0  0  0  0  0  0  0  0  0  0
    4.9532   -6.6858    5.1284 H   0  0  0  0  0  0  0  0  0  0  0  0
    2.6732   -7.9298    5.7684 H   0  0  0  0  0  0  0  0  0  0  0  0
    3.2490   -6.5818    6.7449 H   0  0  0  0  0  0  0  0  0  0  0  0
    0.2539   -8.3706    5.5451 H   0  0  0  0  0  0  0  0  0  0  0  0
   -1.1765   -9.4111    3.8025 H   0  0  0  0  0  0  0  0  0  0  0  0
   -1.4049   -8.2609    1.5812 H   0  0  0  0  0  0  0  0  0  0  0  0
    1.0755   -5.1850    2.7275 H   0  0  0  0  0  0  0  0  0  0  0  0
    1.0080   -7.5288    7.6200 H   0  0  0  0  0  0  0  0  0  0  0  0
   -1.3729   -4.7783    9.5158 H   0  0  0  0  0  0  0  0  0  0  0  0
    0.2769   -3.6072    5.9240 H   0  0  0  0  0  0  0  0  0  0  0  0
    4.6369   -2.2271    4.8833 H   0  0  0  0  0  0  0  0  0  0  0  0
    5.8655   -2.6521    3.7037 H   0  0  0  0  0  0  0  0  0  0  0  0
    5.8561   -0.4009    3.2108 H   0  0  0  0  0  0  0  0  0  0  0  0
    4.3203    1.0805    4.0776 H   0  0  0  0  0  0  0  0  0  0  0  0
    3.4406   -0.2856    4.7789 H   0  0  0  0  0  0  0  0  0  0  0  0
  1  2  1  0
  1 31  1  0
  1 32  1  0
  1 33  1  0
  2  3  1  0
  3  4  2  0
  3  5  1  0
  5 30  1  0
  5  6  1  0
  6  7  1  0
  6 34  1  0
  6 35  1  0
  7 29  1  0
  7  8  1  0
  7 36  1  6
  8  9  1  0
  8 37  1  0
  8 38  1  0
  9 10  1  0
  9 28  1  0
 10 11  1  0
 10 39  1  0
 10 40  1  0
 11 27  1  0
 11 12  1  0
 11 41  1  1
 12 13  1  0
 12 42  1  0
 12 43  1  0
 13 14  1  0
 13 44  1  0
 13 45  1  0
 14 15  1  6
 14 21  1  0
 14 27  1  0
 15 20  1  0
 15 16  2  0
 16 17  1  0
 16 46  1  0
 17 18  2  0
 17 47  1  0
 18 19  1  0
 18 48  1  0
 19 20  2  0
 20 49  1  0
 21 26  1  0
 21 22  2  0
 22 23  1  0
 22 50  1  0
 23 24  2  0
 24 25  1  0
 24 51  1  0
 25 26  2  0
 26 52  1  0
 28 29  1  0
 28 53  1  0
 28 54  1  0
 29 30  1  0
 29 55  1  6
 30 56  1  0
 30 57  1  0
M  END
>  <i_m_ct_stereo_status>  (94) 
1

>  <s_m_source_file>  (94) 
/var/tmp/pbs.5076255.sched01/tmp8nmo4hef/06hb_edth.sdf

>  <i_m_source_file_index>  (94) 
37

>  <i_lp_mmshare_version>  (94) 
48012

>  <i_f3d_flags>  (94) 
0

>  <s_epik_input>  (94) 
W0NIM11PQyg9TylOKFtDSDJdMSlbQ0gyXVtDQEhdKFtDQEhdMTIpW0NIMl1OKFtDSDJdMilbQ0gyXVtDQEBIXShPMylbQ0gyXVtDSDJdW0NAQF0zKGM0W2NIXVtjSF1bY0hdbltjSF00KWM1W2NIXW5bY0hdbltjSF01

>  <s_epik_cmdline>  (94) 
J2VwaWtfcHl0aG9uJywgJy1waHQnLCAnMi4wJywgJy1waCcsICc3LjAnLCAnLXRuJywgJzgnLCAnLW1hJywgJzIwMCcsICctaW1hZScsICc8aW5maWxlLm1hZT4nLCAnLW9tYWUnLCAnPG91dGZpbGUubWFlPic=

>  <r_lp_tautomer_probability>  (94) 
1

>  <r_epik_Ionization_Penalty>  (94) 
1.92034

>  <r_epik_Ionization_Penalty_Charging>  (94) 
0

>  <r_epik_Ionization_Penalty_Neutral>  (94) 
1.92034

>  <r_epik_State_Penalty>  (94) 
2.04004

>  <r_epik_Charging_Adjusted_Penalty>  (94) 
2.04004

>  <i_epik_Tot_Q>  (94) 
0

>  <i_epik_Tot_abs_Q>  (94) 
0

>  <s_epik_Chemistry_Notes>  (94) 
This compound has an ester and may undergo hydrolysis at high or low pH. This compound contains an electron-poor aromatic ring that is susceptible to covalent hydrolysis at low pH, typically resulting in measured values for nitrogen ring protonation that are around two units higher than predicted values.

>  <s_lp_Force_Field>  (94) 
OPLS3e

>  <r_lp_Energy>  (94) 
29.7956

>  <b_lp_Chiralities_Consistent>  (94) 
1

>  <s_lp_Variant>  (94) 
29:0-3

>  <s_i_glide_gridfile>  (94) 
pfpi4k_grid

>  <i_i_glide_lignum>  (94) 
37

>  <i_i_glide_rotatable_bonds>  (94) 
6

>  <r_i_docking_score>  (94) 
-2.94675

>  <r_i_glide_ligand_efficiency>  (94) 
-0.0982249

>  <r_i_glide_ligand_efficiency_sa>  (94) 
-0.305208

>  <r_i_glide_ligand_efficiency_ln>  (94) 
-0.669533

>  <r_i_glide_gscore>  (94) 
-2.94675

>  <r_i_glide_lipo>  (94) 
-0.184341

>  <r_i_glide_hbond>  (94) 
-0.348919

>  <r_i_glide_metal>  (94) 
-0

>  <r_i_glide_rewards>  (94) 
-0.630743

>  <r_i_glide_evdw>  (94) 
-24.6909

>  <r_i_glide_ecoul>  (94) 
-7.48233

>  <r_i_glide_erotb>  (94) 
0.587183

>  <r_i_glide_esite>  (94) 
-0.0130344

>  <r_i_glide_emodel>  (94) 
-38.5572

>  <r_i_glide_energy>  (94) 
-32.1732

>  <r_i_glide_einternal>  (94) 
0.409993

>  <r_i_glide_intrahb_reward>  (94) 
-0

>  <i_i_glide_confnum>  (94) 
4

>  <i_i_glide_posenum>  (94) 
12

>  <r_i_glide_eff_state_penalty>  (94) 
0

>  <ligand_id>  (94) 
29

>  <original_smiles>  (94) 
COC(=O)N1CC2CN(CC3CCC(c4cccnc4)(c4cncnc4)O3)CC2C1

>  <smiles>  (94) 
[H]c1nc([H])c(C2(c3c([H])nc([H])c([H])c3[H])OC([H])(C([H])([H])N3C([H])([H])C4([H])C([H])([H])N(C(=O)OC([H])([H])[H])C([H])([H])C4([H])C3([H])[H])C([H])([H])C2([H])[H])c([H])n1

$$$$
29:2:1
     RDKit          3D

 57 61  0  0  1  0  0  0  0  0999 V2000
    2.3809    1.2163    2.0614 C   0  0  0  0  0  0  0  0  0  0  0  0
    3.0667    0.2301    1.3060 O   0  0  0  0  0  0  0  0  0  0  0  0
    4.1962   -0.3196    1.7917 C   0  0  0  0  0  0  0  0  0  0  0  0
    4.6731   -0.0597    2.8968 O   0  0  0  0  0  0  0  0  0  0  0  0
    4.7495   -1.1982    0.8615 N   0  0  0  0  0  0  0  0  0  0  0  0
    4.1631   -1.5309   -0.4314 C   0  0  0  0  0  0  0  0  0  0  0  0
    5.0407   -2.6320   -1.0418 C   0  0  2  0  0  0  0  0  0  0  0  0
    4.3478   -3.9985   -1.1159 C   0  0  0  0  0  0  0  0  0  0  0  0
    4.6828   -4.6854    0.1170 N   0  0  0  0  0  0  0  0  0  0  0  0
    4.4110   -6.1133    0.0592 C   0  0  0  0  0  0  0  0  0  0  0  0
    4.7284   -6.8778    1.3536 C   0  0  2  0  0  0  0  0  0  0  0  0
    4.4746   -8.3719    1.2246 C   0  0  0  0  0  0  0  0  0  0  0  0
    4.1205   -8.7355    2.6462 C   0  0  0  0  0  0  0  0  0  0  0  0
    3.3120   -7.5223    3.1371 C   0  0  1  0  0  0  0  0  0  0  0  0
    1.8205   -7.6642    2.8081 C   0  0  0  0  0  0  0  0  0  0  0  0
    1.0836   -8.7953    3.2286 C   0  0  0  0  0  0  0  0  0  0  0  0
   -0.2964   -8.8524    2.9839 C   0  0  0  0  0  0  0  0  0  0  0  0
   -0.8977   -7.7953    2.2781 C   0  0  0  0  0  0  0  0  0  0  0  0
   -0.2141   -6.7124    1.8431 N   0  0  0  0  0  0  0  0  0  0  0  0
    1.1132   -6.6586    2.1081 C   0  0  0  0  0  0  0  0  0  0  0  0
    3.5065   -7.2949    4.6386 C   0  0  0  0  0  0  0  0  0  0  0  0
    3.2185   -8.2932    5.5968 C   0  0  0  0  0  0  0  0  0  0  0  0
    3.3563   -8.0716    6.9209 N   0  0  0  0  0  0  0  0  0  0  0  0
    3.8066   -6.8734    7.2959 C   0  0  0  0  0  0  0  0  0  0  0  0
    4.1425   -5.8654    6.4859 N   0  0  0  0  0  0  0  0  0  0  0  0
    3.9903   -6.0719    5.1596 C   0  0  0  0  0  0  0  0  0  0  0  0
    3.8736   -6.4340    2.4047 O   0  0  0  0  0  0  0  0  0  0  0  0
    6.0743   -4.3388    0.3283 C   0  0  0  0  0  0  0  0  0  0  0  0
    6.2062   -2.8610   -0.0701 C   0  0  2  0  0  0  0  0  0  0  0  0
    6.0080   -1.8911    1.1024 C   0  0  0  0  0  0  0  0  0  0  0  0
    1.4950    1.5469    1.5170 H   0  0  0  0  0  0  0  0  0  0  0  0
    3.0165    2.0863    2.2363 H   0  0  0  0  0  0  0  0  0  0  0  0
    2.0608    0.8175    3.0250 H   0  0  0  0  0  0  0  0  0  0  0  0
    3.1232   -1.8530   -0.3167 H   0  0  0  0  0  0  0  0  0  0  0  0
    4.1726   -0.6442   -1.0668 H   0  0  0  0  0  0  0  0  0  0  0  0
    5.3917   -2.3373   -2.0307 H   0  0  0  0  0  0  0  0  0  0  0  0
    3.2733   -3.9311   -1.2661 H   0  0  0  0  0  0  0  0  0  0  0  0
    4.7526   -4.5463   -1.9671 H   0  0  0  0  0  0  0  0  0  0  0  0
    3.3503   -6.2403   -0.1615 H   0  0  0  0  0  0  0  0  0  0  0  0
    4.9436   -6.5575   -0.7792 H   0  0  0  0  0  0  0  0  0  0  0  0
    5.7676   -6.7335    1.6640 H   0  0  0  0  0  0  0  0  0  0  0  0
    3.6260   -8.5743    0.5654 H   0  0  0  0  0  0  0  0  0  0  0  0
    5.3434   -8.9169    0.8471 H   0  0  0  0  0  0  0  0  0  0  0  0
    3.6019   -9.6919    2.7208 H   0  0  0  0  0  0  0  0  0  0  0  0
    5.0526   -8.8206    3.2095 H   0  0  0  0  0  0  0  0  0  0  0  0
    1.5454   -9.6153    3.7563 H   0  0  0  0  0  0  0  0  0  0  0  0
   -0.8760   -9.6906    3.3398 H   0  0  0  0  0  0  0  0  0  0  0  0
   -1.9577   -7.8265    2.0757 H   0  0  0  0  0  0  0  0  0  0  0  0
    1.6090   -5.7664    1.7425 H   0  0  0  0  0  0  0  0  0  0  0  0
    2.8791   -9.2826    5.3240 H   0  0  0  0  0  0  0  0  0  0  0  0
    3.9144   -6.7223    8.3665 H   0  0  0  0  0  0  0  0  0  0  0  0
    4.2684   -5.2400    4.5289 H   0  0  0  0  0  0  0  0  0  0  0  0
    6.3833   -4.5236    1.3574 H   0  0  0  0  0  0  0  0  0  0  0  0
    6.7112   -4.9438   -0.3152 H   0  0  0  0  0  0  0  0  0  0  0  0
    7.1719   -2.6930   -0.5472 H   0  0  0  0  0  0  0  0  0  0  0  0
    6.8125   -1.1549    1.1311 H   0  0  0  0  0  0  0  0  0  0  0  0
    5.9866   -2.4070    2.0662 H   0  0  0  0  0  0  0  0  0  0  0  0
  1  2  1  0
  1 31  1  0
  1 32  1  0
  1 33  1  0
  2  3  1  0
  3  4  2  0
  3  5  1  0
  5 30  1  0
  5  6  1  0
  6  7  1  0
  6 34  1  0
  6 35  1  0
  7 29  1  0
  7  8  1  0
  7 36  1  6
  8  9  1  0
  8 37  1  0
  8 38  1  0
  9 10  1  0
  9 28  1  0
 10 11  1  0
 10 39  1  0
 10 40  1  0
 11 27  1  0
 11 12  1  0
 11 41  1  1
 12 13  1  0
 12 42  1  0
 12 43  1  0
 13 14  1  0
 13 44  1  0
 13 45  1  0
 14 15  1  1
 14 21  1  0
 14 27  1  0
 15 20  1  0
 15 16  2  0
 16 17  1  0
 16 46  1  0
 17 18  2  0
 17 47  1  0
 18 19  1  0
 18 48  1  0
 19 20  2  0
 20 49  1  0
 21 26  1  0
 21 22  2  0
 22 23  1  0
 22 50  1  0
 23 24  2  0
 24 25  1  0
 24 51  1  0
 25 26  2  0
 26 52  1  0
 28 29  1  0
 28 53  1  0
 28 54  1  0
 29 30  1  0
 29 55  1  6
 30 56  1  0
 30 57  1  0
M  END
>  <i_m_ct_stereo_status>  (95) 
1

>  <s_m_source_file>  (95) 
/var/tmp/pbs.5076255.sched01/tmp8nmo4hef/06hb_edth.sdf

>  <i_m_source_file_index>  (95) 
37

>  <i_lp_mmshare_version>  (95) 
48012

>  <i_f3d_flags>  (95) 
0

>  <s_epik_input>  (95) 
W0NIM11PQyg9TylOKFtDSDJdMSlbQ0gyXVtDQEhdKFtDQEhdMTIpW0NIMl1OKFtDSDJdMilbQ0gyXVtDQEBIXShPMylbQ0gyXVtDSDJdW0NAQF0zKGM0W2NIXVtjSF1bY0hdbltjSF00KWM1W2NIXW5bY0hdbltjSF01

>  <s_epik_cmdline>  (95) 
J2VwaWtfcHl0aG9uJywgJy1waHQnLCAnMi4wJywgJy1waCcsICc3LjAnLCAnLXRuJywgJzgnLCAnLW1hJywgJzIwMCcsICctaW1hZScsICc8aW5maWxlLm1hZT4nLCAnLW9tYWUnLCAnPG91dGZpbGUubWFlPic=

>  <r_lp_tautomer_probability>  (95) 
1

>  <r_epik_Ionization_Penalty>  (95) 
1.92034

>  <r_epik_Ionization_Penalty_Charging>  (95) 
0

>  <r_epik_Ionization_Penalty_Neutral>  (95) 
1.92034

>  <r_epik_State_Penalty>  (95) 
2.04004

>  <r_epik_Charging_Adjusted_Penalty>  (95) 
2.04004

>  <i_epik_Tot_Q>  (95) 
0

>  <i_epik_Tot_abs_Q>  (95) 
0

>  <s_epik_Chemistry_Notes>  (95) 
This compound has an ester and may undergo hydrolysis at high or low pH. This compound contains an electron-poor aromatic ring that is susceptible to covalent hydrolysis at low pH, typically resulting in measured values for nitrogen ring protonation that are around two units higher than predicted values.

>  <s_lp_Force_Field>  (95) 
OPLS3e

>  <r_lp_Energy>  (95) 
29.7956

>  <b_lp_Chiralities_Consistent>  (95) 
1

>  <s_lp_Variant>  (95) 
29:0-3

>  <s_i_glide_gridfile>  (95) 
pfpi4k_grid

>  <i_i_glide_lignum>  (95) 
37

>  <i_i_glide_rotatable_bonds>  (95) 
6

>  <r_i_docking_score>  (95) 
-2.82759

>  <r_i_glide_ligand_efficiency>  (95) 
-0.094253

>  <r_i_glide_ligand_efficiency_sa>  (95) 
-0.292866

>  <r_i_glide_ligand_efficiency_ln>  (95) 
-0.642459

>  <r_i_glide_gscore>  (95) 
-2.82759

>  <r_i_glide_lipo>  (95) 
-0.401679

>  <r_i_glide_hbond>  (95) 
-0.189607

>  <r_i_glide_metal>  (95) 
-0

>  <r_i_glide_rewards>  (95) 
-0.80815

>  <r_i_glide_evdw>  (95) 
-28.144

>  <r_i_glide_ecoul>  (95) 
-4.05423

>  <r_i_glide_erotb>  (95) 
0.587183

>  <r_i_glide_esite>  (95) 
0

>  <r_i_glide_emodel>  (95) 
-38.1711

>  <r_i_glide_energy>  (95) 
-32.1982

>  <r_i_glide_einternal>  (95) 
0.354323

>  <r_i_glide_intrahb_reward>  (95) 
-0

>  <i_i_glide_confnum>  (95) 
4

>  <i_i_glide_posenum>  (95) 
2

>  <r_i_glide_eff_state_penalty>  (95) 
0

>  <ligand_id>  (95) 
29

>  <original_smiles>  (95) 
COC(=O)N1CC2CN(CC3CCC(c4cccnc4)(c4cncnc4)O3)CC2C1

>  <smiles>  (95) 
[H]c1nc([H])c(C2(c3c([H])nc([H])c([H])c3[H])OC([H])(C([H])([H])N3C([H])([H])C4([H])C([H])([H])N(C(=O)OC([H])([H])[H])C([H])([H])C4([H])C3([H])[H])C([H])([H])C2([H])[H])c([H])n1

$$$$
29:2:2
     RDKit          3D

 57 61  0  0  1  0  0  0  0  0999 V2000
    1.9963   -2.9699   -3.9169 C   0  0  0  0  0  0  0  0  0  0  0  0
    3.3359   -2.9295   -3.4620 O   0  0  0  0  0  0  0  0  0  0  0  0
    3.7451   -1.8754   -2.7412 C   0  0  0  0  0  0  0  0  0  0  0  0
    3.1770   -0.7808   -2.7402 O   0  0  0  0  0  0  0  0  0  0  0  0
    4.8638   -2.2042   -1.9828 N   0  0  0  0  0  0  0  0  0  0  0  0
    5.6217   -3.4426   -2.1200 C   0  0  0  0  0  0  0  0  0  0  0  0
    6.6513   -3.4563   -0.9816 C   0  0  2  0  0  0  0  0  0  0  0  0
    6.3915   -4.5517    0.0609 C   0  0  0  0  0  0  0  0  0  0  0  0
    5.5678   -3.9376    1.0802 N   0  0  0  0  0  0  0  0  0  0  0  0
    5.5226   -4.7151    2.3070 C   0  0  0  0  0  0  0  0  0  0  0  0
    4.6753   -4.0795    3.4221 C   0  0  2  0  0  0  0  0  0  0  0  0
    4.4334   -5.0236    4.5893 C   0  0  0  0  0  0  0  0  0  0  0  0
    3.0923   -4.5332    5.0986 C   0  0  0  0  0  0  0  0  0  0  0  0
    2.3314   -4.1595    3.8195 C   0  0  1  0  0  0  0  0  0  0  0  0
    1.5895   -5.3671    3.2205 C   0  0  0  0  0  0  0  0  0  0  0  0
    0.6444   -6.0958    3.9821 C   0  0  0  0  0  0  0  0  0  0  0  0
   -0.0925   -7.1199    3.3701 C   0  0  0  0  0  0  0  0  0  0  0  0
    0.1810   -7.4465    2.0354 C   0  0  0  0  0  0  0  0  0  0  0  0
    1.0946   -6.7821    1.2897 N   0  0  0  0  0  0  0  0  0  0  0  0
    1.7977   -5.7839    1.8873 C   0  0  0  0  0  0  0  0  0  0  0  0
    1.3645   -2.9838    4.0667 C   0  0  0  0  0  0  0  0  0  0  0  0
    0.3335   -3.0519    5.0286 C   0  0  0  0  0  0  0  0  0  0  0  0
   -0.5409   -2.0362    5.2165 N   0  0  0  0  0  0  0  0  0  0  0  0
   -0.3574   -0.9353    4.4860 C   0  0  0  0  0  0  0  0  0  0  0  0
    0.6129   -0.7451    3.5778 N   0  0  0  0  0  0  0  0  0  0  0  0
    1.4636   -1.7723    3.3651 C   0  0  0  0  0  0  0  0  0  0  0  0
    3.3733   -3.7471    2.9355 O   0  0  0  0  0  0  0  0  0  0  0  0
    6.1168   -2.6083    1.2100 C   0  0  0  0  0  0  0  0  0  0  0  0
    6.4802   -2.1489   -0.2053 C   0  0  2  0  0  0  0  0  0  0  0  0
    5.3679   -1.3530   -0.9133 C   0  0  0  0  0  0  0  0  0  0  0  0
    1.8412   -3.8436   -4.5486 H   0  0  0  0  0  0  0  0  0  0  0  0
    1.7206   -2.0673   -4.4627 H   0  0  0  0  0  0  0  0  0  0  0  0
    1.3295   -3.0515   -3.0557 H   0  0  0  0  0  0  0  0  0  0  0  0
    4.9694   -4.3190   -2.0879 H   0  0  0  0  0  0  0  0  0  0  0  0
    6.1261   -3.4282   -3.0880 H   0  0  0  0  0  0  0  0  0  0  0  0
    7.6612   -3.5470   -1.3896 H   0  0  0  0  0  0  0  0  0  0  0  0
    5.9166   -5.4450   -0.3417 H   0  0  0  0  0  0  0  0  0  0  0  0
    7.3452   -4.8555    0.4870 H   0  0  0  0  0  0  0  0  0  0  0  0
    5.0892   -5.6803    2.0564 H   0  0  0  0  0  0  0  0  0  0  0  0
    6.5279   -4.9224    2.6711 H   0  0  0  0  0  0  0  0  0  0  0  0
    5.1361   -3.1636    3.7987 H   0  0  0  0  0  0  0  0  0  0  0  0
    4.3416   -6.0559    4.2464 H   0  0  0  0  0  0  0  0  0  0  0  0
    5.2246   -4.9761    5.3434 H   0  0  0  0  0  0  0  0  0  0  0  0
    2.5872   -5.2682    5.7296 H   0  0  0  0  0  0  0  0  0  0  0  0
    3.2783   -3.6477    5.7071 H   0  0  0  0  0  0  0  0  0  0  0  0
    0.4505   -5.8633    5.0237 H   0  0  0  0  0  0  0  0  0  0  0  0
   -0.8438   -7.6607    3.9368 H   0  0  0  0  0  0  0  0  0  0  0  0
   -0.3471   -8.2556    1.5520 H   0  0  0  0  0  0  0  0  0  0  0  0
    2.5176   -5.2971    1.2378 H   0  0  0  0  0  0  0  0  0  0  0  0
    0.1794   -3.9109    5.6701 H   0  0  0  0  0  0  0  0  0  0  0  0
   -1.0723   -0.1427    4.6346 H   0  0  0  0  0  0  0  0  0  0  0  0
    2.2293   -1.5800    2.6208 H   0  0  0  0  0  0  0  0  0  0  0  0
    5.4359   -1.9305    1.7220 H   0  0  0  0  0  0  0  0  0  0  0  0
    7.0192   -2.6647    1.8026 H   0  0  0  0  0  0  0  0  0  0  0  0
    7.4069   -1.5726   -0.1767 H   0  0  0  0  0  0  0  0  0  0  0  0
    5.7528   -0.4268   -1.3419 H   0  0  0  0  0  0  0  0  0  0  0  0
    4.5625   -1.0964   -0.2220 H   0  0  0  0  0  0  0  0  0  0  0  0
  1  2  1  0
  1 31  1  0
  1 32  1  0
  1 33  1  0
  2  3  1  0
  3  4  2  0
  3  5  1  0
  5 30  1  0
  5  6  1  0
  6  7  1  0
  6 34  1  0
  6 35  1  0
  7 29  1  0
  7  8  1  0
  7 36  1  6
  8  9  1  0
  8 37  1  0
  8 38  1  0
  9 10  1  0
  9 28  1  0
 10 11  1  0
 10 39  1  0
 10 40  1  0
 11 27  1  0
 11 12  1  0
 11 41  1  1
 12 13  1  0
 12 42  1  0
 12 43  1  0
 13 14  1  0
 13 44  1  0
 13 45  1  0
 14 15  1  6
 14 21  1  0
 14 27  1  0
 15 20  1  0
 15 16  2  0
 16 17  1  0
 16 46  1  0
 17 18  2  0
 17 47  1  0
 18 19  1  0
 18 48  1  0
 19 20  2  0
 20 49  1  0
 21 26  1  0
 21 22  2  0
 22 23  1  0
 22 50  1  0
 23 24  2  0
 24 25  1  0
 24 51  1  0
 25 26  2  0
 26 52  1  0
 28 29  1  0
 28 53  1  0
 28 54  1  0
 29 30  1  0
 29 55  1  1
 30 56  1  0
 30 57  1  0
M  END
>  <i_m_ct_stereo_status>  (96) 
1

>  <s_m_source_file>  (96) 
/var/tmp/pbs.5076255.sched01/tmp8nmo4hef/06hb_edth.sdf

>  <i_m_source_file_index>  (96) 
37

>  <i_lp_mmshare_version>  (96) 
48012

>  <i_f3d_flags>  (96) 
0

>  <s_epik_input>  (96) 
W0NIM11PQyg9TylOKFtDSDJdMSlbQ0gyXVtDQEhdKFtDQEhdMTIpW0NIMl1OKFtDSDJdMilbQ0gyXVtDQEBIXShPMylbQ0gyXVtDSDJdW0NAQF0zKGM0W2NIXVtjSF1bY0hdbltjSF00KWM1W2NIXW5bY0hdbltjSF01

>  <s_epik_cmdline>  (96) 
J2VwaWtfcHl0aG9uJywgJy1waHQnLCAnMi4wJywgJy1waCcsICc3LjAnLCAnLXRuJywgJzgnLCAnLW1hJywgJzIwMCcsICctaW1hZScsICc8aW5maWxlLm1hZT4nLCAnLW9tYWUnLCAnPG91dGZpbGUubWFlPic=

>  <r_lp_tautomer_probability>  (96) 
1

>  <r_epik_Ionization_Penalty>  (96) 
1.92034

>  <r_epik_Ionization_Penalty_Charging>  (96) 
0

>  <r_epik_Ionization_Penalty_Neutral>  (96) 
1.92034

>  <r_epik_State_Penalty>  (96) 
2.04004

>  <r_epik_Charging_Adjusted_Penalty>  (96) 
2.04004

>  <i_epik_Tot_Q>  (96) 
0

>  <i_epik_Tot_abs_Q>  (96) 
0

>  <s_epik_Chemistry_Notes>  (96) 
This compound has an ester and may undergo hydrolysis at high or low pH. This compound contains an electron-poor aromatic ring that is susceptible to covalent hydrolysis at low pH, typically resulting in measured values for nitrogen ring protonation that are around two units higher than predicted values.

>  <s_lp_Force_Field>  (96) 
OPLS3e

>  <r_lp_Energy>  (96) 
29.7956

>  <b_lp_Chiralities_Consistent>  (96) 
1

>  <s_lp_Variant>  (96) 
29:0-3

>  <s_i_glide_gridfile>  (96) 
pfpi4k_grid

>  <i_i_glide_lignum>  (96) 
37

>  <i_i_glide_rotatable_bonds>  (96) 
6

>  <r_i_docking_score>  (96) 
-2.71457

>  <r_i_glide_ligand_efficiency>  (96) 
-0.0904855

>  <r_i_glide_ligand_efficiency_sa>  (96) 
-0.28116

>  <r_i_glide_ligand_efficiency_ln>  (96) 
-0.616779

>  <r_i_glide_gscore>  (96) 
-2.71457

>  <r_i_glide_lipo>  (96) 
-0.71345

>  <r_i_glide_hbond>  (96) 
0

>  <r_i_glide_metal>  (96) 
-0

>  <r_i_glide_rewards>  (96) 
-0.617172

>  <r_i_glide_evdw>  (96) 
-33.5572

>  <r_i_glide_ecoul>  (96) 
-1.72815

>  <r_i_glide_erotb>  (96) 
0.587183

>  <r_i_glide_esite>  (96) 
-0.0340427

>  <r_i_glide_emodel>  (96) 
-39.0716

>  <r_i_glide_energy>  (96) 
-35.2854

>  <r_i_glide_einternal>  (96) 
3.35018

>  <r_i_glide_intrahb_reward>  (96) 
-0

>  <i_i_glide_confnum>  (96) 
4

>  <i_i_glide_posenum>  (96) 
3

>  <r_i_glide_eff_state_penalty>  (96) 
0

>  <ligand_id>  (96) 
29

>  <original_smiles>  (96) 
COC(=O)N1CC2CN(CC3CCC(c4cccnc4)(c4cncnc4)O3)CC2C1

>  <smiles>  (96) 
[H]c1nc([H])c(C2(c3c([H])nc([H])c([H])c3[H])OC([H])(C([H])([H])N3C([H])([H])C4([H])C([H])([H])N(C(=O)OC([H])([H])[H])C([H])([H])C4([H])C3([H])[H])C([H])([H])C2([H])[H])c([H])n1

$$$$
30:0:0
     RDKit          3D

 51 54  0  0  1  0  0  0  0  0999 V2000
    5.0714   -3.8234   -2.5480 C   0  0  0  0  0  0  0  0  0  0  0  0
    4.7621   -4.4586   -1.2029 C   0  0  0  0  0  0  0  0  0  0  0  0
    3.8667   -4.0312   -0.2872 C   0  0  0  0  0  0  0  0  0  0  0  0
    3.0462   -2.7758   -0.3965 C   0  0  0  0  0  0  0  0  0  0  0  0
    3.1864   -2.1910    1.0021 C   0  0  1  0  0  0  0  0  0  0  0  0
    2.2120   -1.2146    1.2893 O   0  0  0  0  0  0  0  0  0  0  0  0
    3.1305   -3.4136    1.9508 C   0  0  2  0  0  0  0  0  0  0  0  0
    3.9348   -3.1806    3.2755 C   0  0  1  0  0  0  0  0  0  0  0  0
    3.3792   -2.0915    4.2124 C   0  0  0  0  0  0  0  0  0  0  0  0
    1.9653   -2.4403    4.6915 C   0  0  0  0  0  0  0  0  0  0  0  0
    1.8245   -3.8578    5.3142 C   0  0  2  0  0  0  0  0  0  0  0  0
    0.3268   -4.2280    5.2637 C   0  0  0  0  0  0  0  0  0  0  0  0
    2.2656   -3.9558    6.7799 C   0  0  0  0  0  0  0  0  0  0  0  0
    2.0389   -3.1087    7.6371 O   0  0  0  0  0  0  0  0  0  0  0  0
    2.9516   -5.2802    7.0716 C   0  0  0  0  0  0  0  0  0  0  0  0
    2.8736   -6.0259    5.7328 C   0  0  0  0  0  0  0  0  0  0  0  0
    2.6845   -4.9628    4.6227 C   0  0  2  0  0  0  0  0  0  0  0  0
    4.0690   -4.4866    4.0699 C   0  0  1  0  0  0  0  0  0  0  0  0
    4.8295   -5.5516    3.2300 C   0  0  0  0  0  0  0  0  0  0  0  0
    4.9366   -5.2247    1.7199 C   0  0  0  0  0  0  0  0  0  0  0  0
    3.6339   -4.6403    1.0984 C   0  0  2  0  0  0  0  0  0  0  0  0
    2.5457   -5.7578    0.9702 C   0  0  0  0  0  0  0  0  0  0  0  0
    2.8437   -6.9234    1.3087 O   0  0  0  0  0  0  0  0  0  0  0  0
    1.4165   -5.4638    0.5139 O   0  0  0  0  0  0  0  0  0  0  0  0
    4.9387   -4.5677   -3.3327 H   0  0  0  0  0  0  0  0  0  0  0  0
    6.1115   -3.4971   -2.5871 H   0  0  0  0  0  0  0  0  0  0  0  0
    4.4386   -2.9728   -2.7914 H   0  0  0  0  0  0  0  0  0  0  0  0
    5.3433   -5.3392   -0.9825 H   0  0  0  0  0  0  0  0  0  0  0  0
    3.3446   -2.0827   -1.1786 H   0  0  0  0  0  0  0  0  0  0  0  0
    2.0140   -3.0684   -0.5841 H   0  0  0  0  0  0  0  0  0  0  0  0
    4.1725   -1.7189    1.0630 H   0  0  0  0  0  0  0  0  0  0  0  0
    1.6644   -1.0557    0.5140 H   0  0  0  0  0  0  0  0  0  0  0  0
    2.0813   -3.6017    2.1898 H   0  0  0  0  0  0  0  0  0  0  0  0
    4.9423   -2.8534    3.0111 H   0  0  0  0  0  0  0  0  0  0  0  0
    4.0486   -1.9521    5.0667 H   0  0  0  0  0  0  0  0  0  0  0  0
    3.3703   -1.1256    3.7099 H   0  0  0  0  0  0  0  0  0  0  0  0
    1.6654   -1.6853    5.4173 H   0  0  0  0  0  0  0  0  0  0  0  0
    1.2690   -2.3340    3.8488 H   0  0  0  0  0  0  0  0  0  0  0  0
    0.0084   -4.3410    4.2276 H   0  0  0  0  0  0  0  0  0  0  0  0
   -0.2991   -3.4535    5.7126 H   0  0  0  0  0  0  0  0  0  0  0  0
    0.1078   -5.1641    5.7781 H   0  0  0  0  0  0  0  0  0  0  0  0
    3.9858   -5.0869    7.3560 H   0  0  0  0  0  0  0  0  0  0  0  0
    2.4607   -5.8260    7.8810 H   0  0  0  0  0  0  0  0  0  0  0  0
    3.7453   -6.6634    5.5766 H   0  0  0  0  0  0  0  0  0  0  0  0
    2.0060   -6.6868    5.7411 H   0  0  0  0  0  0  0  0  0  0  0  0
    2.1162   -5.3942    3.7972 H   0  0  0  0  0  0  0  0  0  0  0  0
    4.7000   -4.2711    4.9317 H   0  0  0  0  0  0  0  0  0  0  0  0
    5.8440   -5.6667    3.6230 H   0  0  0  0  0  0  0  0  0  0  0  0
    4.3522   -6.5237    3.3550 H   0  0  0  0  0  0  0  0  0  0  0  0
    5.7458   -4.5100    1.5778 H   0  0  0  0  0  0  0  0  0  0  0  0
    5.2475   -6.1225    1.1849 H   0  0  0  0  0  0  0  0  0  0  0  0
  1  2  1  0
  1 25  1  0
  1 26  1  0
  1 27  1  0
  2  3  2  3
  2 28  1  0
  3 21  1  0
  3  4  1  0
  4  5  1  0
  4 29  1  0
  4 30  1  0
  5  6  1  0
  5  7  1  0
  5 31  1  6
  6 32  1  0
  7 21  1  0
  7  8  1  0
  7 33  1  1
  8 18  1  0
  8  9  1  0
  8 34  1  6
  9 10  1  0
  9 35  1  0
  9 36  1  0
 10 11  1  0
 10 37  1  0
 10 38  1  0
 11 17  1  0
 11 12  1  1
 11 13  1  0
 12 39  1  0
 12 40  1  0
 12 41  1  0
 13 14  2  0
 13 15  1  0
 15 16  1  0
 15 42  1  0
 15 43  1  0
 16 17  1  0
 16 44  1  0
 16 45  1  0
 17 18  1  0
 17 46  1  6
 18 19  1  0
 18 47  1  1
 19 20  1  0
 19 48  1  0
 19 49  1  0
 20 21  1  0
 20 50  1  0
 20 51  1  0
 21 22  1  6
 22 23  2  0
 22 24  1  0
M  CHG  1  24  -1
M  END
>  <i_m_ct_stereo_status>  (97) 
1

>  <s_m_source_file>  (97) 
/var/tmp/pbs.5076255.sched01/tmp8nmo4hef/06hb_edth.sdf

>  <i_m_source_file_index>  (97) 
38

>  <i_lp_mmshare_version>  (97) 
48012

>  <i_f3d_flags>  (97) 
0

>  <s_epik_input>  (97) 
W09IXVtDQEBIXTFbQ0gyXS9DKD1bQ0hdXFtDSDNdKVtDQF0oW0NIMl1bQ0gyXTIpKEMoPU8pW09IXSlbQ0BIXTFbQ0BASF0oW0NIMl1bQ0gyXTMpW0NASF0yW0NASF0oW0NAXTM0W0NIM10pW0NIMl1bQ0gyXUM0PU8=

>  <s_epik_cmdline>  (97) 
J2VwaWtfcHl0aG9uJywgJy1waHQnLCAnMi4wJywgJy1waCcsICc3LjAnLCAnLXRuJywgJzgnLCAnLW1hJywgJzIwMCcsICctaW1hZScsICc8aW5maWxlLm1hZT4nLCAnLW9tYWUnLCAnPG91dGZpbGUubWFlPic=

>  <r_lp_tautomer_probability>  (97) 
0.99995

>  <r_epik_Ionization_Penalty>  (97) 
0.00269419

>  <r_epik_Ionization_Penalty_Charging>  (97) 
0.00269267

>  <r_epik_Ionization_Penalty_Neutral>  (97) 
1.52011e-06

>  <r_epik_State_Penalty>  (97) 
0.00187678

>  <r_epik_Charging_Adjusted_Penalty>  (97) 
0.00456944

>  <i_epik_Tot_Q>  (97) 
-1

>  <i_epik_Tot_abs_Q>  (97) 
1

>  <s_lp_Force_Field>  (97) 
OPLS3e

>  <r_lp_Energy>  (97) 
34.1474

>  <b_lp_Chiralities_Consistent>  (97) 
1

>  <s_lp_Variant>  (97) 
30:0-1

>  <s_i_glide_gridfile>  (97) 
pfpi4k_grid

>  <i_i_glide_lignum>  (97) 
38

>  <i_i_glide_rotatable_bonds>  (97) 
2

>  <r_i_docking_score>  (97) 
-3.28632

>  <r_i_glide_ligand_efficiency>  (97) 
-0.13693

>  <r_i_glide_ligand_efficiency_sa>  (97) 
-0.394975

>  <r_i_glide_ligand_efficiency_ln>  (97) 
-0.786567

>  <r_i_glide_gscore>  (97) 
-3.28632

>  <r_i_glide_lipo>  (97) 
-0.0560689

>  <r_i_glide_hbond>  (97) 
-0.315564

>  <r_i_glide_metal>  (97) 
-0

>  <r_i_glide_rewards>  (97) 
-1.14937

>  <r_i_glide_evdw>  (97) 
-14.1878

>  <r_i_glide_ecoul>  (97) 
-6.86326

>  <r_i_glide_erotb>  (97) 
0

>  <r_i_glide_esite>  (97) 
-0.0264383

>  <r_i_glide_emodel>  (97) 
-26.538

>  <r_i_glide_energy>  (97) 
-21.0511

>  <r_i_glide_einternal>  (97) 
1.82109

>  <r_i_glide_intrahb_reward>  (97) 
-0

>  <i_i_glide_confnum>  (97) 
2

>  <i_i_glide_posenum>  (97) 
12

>  <r_i_glide_eff_state_penalty>  (97) 
0

>  <ligand_id>  (97) 
30

>  <original_smiles>  (97) 
CC=C1CC(O)C2C3CCC4(C)C(=O)CCC4C3CCC12C(=O)O

>  <smiles>  (97) 
[H]OC1([H])C([H])([H])C(=C([H])C([H])([H])[H])C2(C(=O)[O-])C([H])([H])C([H])([H])C3([H])C([H])(C([H])([H])C([H])([H])C4(C([H])([H])[H])C(=O)C([H])([H])C([H])([H])C34[H])C12[H]

$$$$
30:0:1
     RDKit          3D

 51 54  0  0  1  0  0  0  0  0999 V2000
    4.8407   -1.1789   -1.8290 C   0  0  0  0  0  0  0  0  0  0  0  0
    4.5871   -2.2879   -0.8215 C   0  0  0  0  0  0  0  0  0  0  0  0
    5.4629   -2.7935    0.0759 C   0  0  0  0  0  0  0  0  0  0  0  0
    6.9130   -2.3957    0.2285 C   0  0  0  0  0  0  0  0  0  0  0  0
    7.5962   -3.7484    0.3675 C   0  0  1  0  0  0  0  0  0  0  0  0
    8.9151   -3.6635    0.8779 O   0  0  0  0  0  0  0  0  0  0  0  0
    6.6357   -4.5816    1.2450 C   0  0  2  0  0  0  0  0  0  0  0  0
    6.7218   -6.1106    0.9719 C   0  0  1  0  0  0  0  0  0  0  0  0
    8.0634   -6.7721    1.3203 C   0  0  0  0  0  0  0  0  0  0  0  0
    8.3555   -6.6712    2.8198 C   0  0  0  0  0  0  0  0  0  0  0  0
    7.2093   -7.1650    3.7409 C   0  0  2  0  0  0  0  0  0  0  0  0
    7.4397   -6.5246    5.1273 C   0  0  0  0  0  0  0  0  0  0  0  0
    7.1649   -8.6833    3.9332 C   0  0  0  0  0  0  0  0  0  0  0  0
    8.1518   -9.4081    4.0622 O   0  0  0  0  0  0  0  0  0  0  0  0
    5.7391   -9.1954    4.0034 C   0  0  0  0  0  0  0  0  0  0  0  0
    4.8906   -7.9212    3.8991 C   0  0  0  0  0  0  0  0  0  0  0  0
    5.7714   -6.8419    3.2222 C   0  0  2  0  0  0  0  0  0  0  0  0
    5.5934   -6.8766    1.6692 C   0  0  1  0  0  0  0  0  0  0  0  0
    4.2122   -6.3708    1.1688 C   0  0  0  0  0  0  0  0  0  0  0  0
    4.2541   -5.0347    0.3920 C   0  0  0  0  0  0  0  0  0  0  0  0
    5.2015   -3.9706    1.0165 C   0  0  2  0  0  0  0  0  0  0  0  0
    4.5938   -3.4098    2.3318 C   0  0  0  0  0  0  0  0  0  0  0  0
    3.3691   -3.5736    2.5459 O   0  0  0  0  0  0  0  0  0  0  0  0
    5.3505   -2.7774    3.1036 O   0  0  0  0  0  0  0  0  0  0  0  0
    4.0998   -0.3874   -1.7040 H   0  0  0  0  0  0  0  0  0  0  0  0
    4.7433   -1.5665   -2.8451 H   0  0  0  0  0  0  0  0  0  0  0  0
    5.8199   -0.7210   -1.7285 H   0  0  0  0  0  0  0  0  0  0  0  0
    3.5913   -2.7038   -0.8624 H   0  0  0  0  0  0  0  0  0  0  0  0
    7.3099   -1.8191   -0.5972 H   0  0  0  0  0  0  0  0  0  0  0  0
    7.0177   -1.8108    1.1441 H   0  0  0  0  0  0  0  0  0  0  0  0
    7.6590   -4.1848   -0.6271 H   0  0  0  0  0  0  0  0  0  0  0  0
    8.8603   -3.4590    1.7974 H   0  0  0  0  0  0  0  0  0  0  0  0
    6.9078   -4.4222    2.2839 H   0  0  0  0  0  0  0  0  0  0  0  0
    6.5809   -6.2554   -0.0911 H   0  0  0  0  0  0  0  0  0  0  0  0
    8.0586   -7.8208    1.0178 H   0  0  0  0  0  0  0  0  0  0  0  0
    8.8774   -6.3269    0.7474 H   0  0  0  0  0  0  0  0  0  0  0  0
    9.2683   -7.2304    3.0202 H   0  0  0  0  0  0  0  0  0  0  0  0
    8.6085   -5.6325    3.0583 H   0  0  0  0  0  0  0  0  0  0  0  0
    7.3138   -5.4426    5.0751 H   0  0  0  0  0  0  0  0  0  0  0  0
    8.4516   -6.7144    5.4942 H   0  0  0  0  0  0  0  0  0  0  0  0
    6.7452   -6.9004    5.8788 H   0  0  0  0  0  0  0  0  0  0  0  0
    5.5543   -9.8664    3.1648 H   0  0  0  0  0  0  0  0  0  0  0  0
    5.5469   -9.7402    4.9270 H   0  0  0  0  0  0  0  0  0  0  0  0
    3.9543   -8.1051    3.3692 H   0  0  0  0  0  0  0  0  0  0  0  0
    4.6212   -7.5834    4.9025 H   0  0  0  0  0  0  0  0  0  0  0  0
    5.4761   -5.8544    3.5811 H   0  0  0  0  0  0  0  0  0  0  0  0
    5.6782   -7.9213    1.3627 H   0  0  0  0  0  0  0  0  0  0  0  0
    3.7812   -7.1270    0.5117 H   0  0  0  0  0  0  0  0  0  0  0  0
    3.5245   -6.2825    2.0093 H   0  0  0  0  0  0  0  0  0  0  0  0
    4.5740   -5.2345   -0.6295 H   0  0  0  0  0  0  0  0  0  0  0  0
    3.2389   -4.6540    0.2970 H   0  0  0  0  0  0  0  0  0  0  0  0
  1  2  1  0
  1 25  1  0
  1 26  1  0
  1 27  1  0
  2  3  2  3
  2 28  1  0
  3 21  1  0
  3  4  1  0
  4  5  1  0
  4 29  1  0
  4 30  1  0
  5  6  1  0
  5  7  1  0
  5 31  1  6
  6 32  1  0
  7 21  1  0
  7  8  1  0
  7 33  1  1
  8 18  1  0
  8  9  1  0
  8 34  1  6
  9 10  1  0
  9 35  1  0
  9 36  1  0
 10 11  1  0
 10 37  1  0
 10 38  1  0
 11 17  1  0
 11 12  1  1
 11 13  1  0
 12 39  1  0
 12 40  1  0
 12 41  1  0
 13 14  2  0
 13 15  1  0
 15 16  1  0
 15 42  1  0
 15 43  1  0
 16 17  1  0
 16 44  1  0
 16 45  1  0
 17 18  1  0
 17 46  1  1
 18 19  1  0
 18 47  1  6
 19 20  1  0
 19 48  1  0
 19 49  1  0
 20 21  1  0
 20 50  1  0
 20 51  1  0
 21 22  1  1
 22 23  2  0
 22 24  1  0
M  CHG  1  24  -1
M  END
>  <i_m_ct_stereo_status>  (98) 
1

>  <s_m_source_file>  (98) 
/var/tmp/pbs.5076255.sched01/tmp8nmo4hef/06hb_edth.sdf

>  <i_m_source_file_index>  (98) 
38

>  <i_lp_mmshare_version>  (98) 
48012

>  <i_f3d_flags>  (98) 
0

>  <s_epik_input>  (98) 
W09IXVtDQEBIXTFbQ0gyXS9DKD1bQ0hdXFtDSDNdKVtDQF0oW0NIMl1bQ0gyXTIpKEMoPU8pW09IXSlbQ0BIXTFbQ0BASF0oW0NIMl1bQ0gyXTMpW0NASF0yW0NASF0oW0NAXTM0W0NIM10pW0NIMl1bQ0gyXUM0PU8=

>  <s_epik_cmdline>  (98) 
J2VwaWtfcHl0aG9uJywgJy1waHQnLCAnMi4wJywgJy1waCcsICc3LjAnLCAnLXRuJywgJzgnLCAnLW1hJywgJzIwMCcsICctaW1hZScsICc8aW5maWxlLm1hZT4nLCAnLW9tYWUnLCAnPG91dGZpbGUubWFlPic=

>  <r_lp_tautomer_probability>  (98) 
0.99995

>  <r_epik_Ionization_Penalty>  (98) 
0.00269419

>  <r_epik_Ionization_Penalty_Charging>  (98) 
0.00269267

>  <r_epik_Ionization_Penalty_Neutral>  (98) 
1.52011e-06

>  <r_epik_State_Penalty>  (98) 
0.00187678

>  <r_epik_Charging_Adjusted_Penalty>  (98) 
0.00456944

>  <i_epik_Tot_Q>  (98) 
-1

>  <i_epik_Tot_abs_Q>  (98) 
1

>  <s_lp_Force_Field>  (98) 
OPLS3e

>  <r_lp_Energy>  (98) 
34.1474

>  <b_lp_Chiralities_Consistent>  (98) 
1

>  <s_lp_Variant>  (98) 
30:0-1

>  <s_i_glide_gridfile>  (98) 
pfpi4k_grid

>  <i_i_glide_lignum>  (98) 
38

>  <i_i_glide_rotatable_bonds>  (98) 
2

>  <r_i_docking_score>  (98) 
-3.01027

>  <r_i_glide_ligand_efficiency>  (98) 
-0.125428

>  <r_i_glide_ligand_efficiency_sa>  (98) 
-0.361797

>  <r_i_glide_ligand_efficiency_ln>  (98) 
-0.720496

>  <r_i_glide_gscore>  (98) 
-3.01027

>  <r_i_glide_lipo>  (98) 
-0.708683

>  <r_i_glide_hbond>  (98) 
0

>  <r_i_glide_metal>  (98) 
-0

>  <r_i_glide_rewards>  (98) 
-1.20204

>  <r_i_glide_evdw>  (98) 
-21.1349

>  <r_i_glide_ecoul>  (98) 
-0.285325

>  <r_i_glide_erotb>  (98) 
0

>  <r_i_glide_esite>  (98) 
0

>  <r_i_glide_emodel>  (98) 
-27.1886

>  <r_i_glide_energy>  (98) 
-21.4202

>  <r_i_glide_einternal>  (98) 
0.268719

>  <r_i_glide_intrahb_reward>  (98) 
-0

>  <i_i_glide_confnum>  (98) 
2

>  <i_i_glide_posenum>  (98) 
3

>  <r_i_glide_eff_state_penalty>  (98) 
0

>  <ligand_id>  (98) 
30

>  <original_smiles>  (98) 
CC=C1CC(O)C2C3CCC4(C)C(=O)CCC4C3CCC12C(=O)O

>  <smiles>  (98) 
[H]OC1([H])C([H])([H])C(=C([H])C([H])([H])[H])C2(C(=O)[O-])C([H])([H])C([H])([H])C3([H])C([H])(C([H])([H])C([H])([H])C4(C([H])([H])[H])C(=O)C([H])([H])C([H])([H])C34[H])C12[H]

$$$$
30:0:2
     RDKit          3D

 51 54  0  0  1  0  0  0  0  0999 V2000
    4.5958   -1.2419   -2.0742 C   0  0  0  0  0  0  0  0  0  0  0  0
    4.4259   -2.3188   -1.0152 C   0  0  0  0  0  0  0  0  0  0  0  0
    5.3454   -2.7356   -0.1194 C   0  0  0  0  0  0  0  0  0  0  0  0
    6.7722   -2.2517   -0.0255 C   0  0  0  0  0  0  0  0  0  0  0  0
    7.5407   -3.5512    0.1378 C   0  0  1  0  0  0  0  0  0  0  0  0
    8.8744   -3.3494    0.5664 O   0  0  0  0  0  0  0  0  0  0  0  0
    6.6563   -4.3963    1.0818 C   0  0  2  0  0  0  0  0  0  0  0  0
    6.8180   -5.9310    0.8787 C   0  0  1  0  0  0  0  0  0  0  0  0
    8.2016   -6.5048    1.2157 C   0  0  0  0  0  0  0  0  0  0  0  0
    8.5230   -6.3212    2.7014 C   0  0  0  0  0  0  0  0  0  0  0  0
    7.4308   -6.8379    3.6754 C   0  0  2  0  0  0  0  0  0  0  0  0
    7.6586   -6.1286    5.0280 C   0  0  0  0  0  0  0  0  0  0  0  0
    7.4749   -8.3456    3.9301 C   0  0  0  0  0  0  0  0  0  0  0  0
    8.5062   -9.0103    4.0633 O   0  0  0  0  0  0  0  0  0  0  0  0
    6.0844   -8.9331    4.0615 C   0  0  0  0  0  0  0  0  0  0  0  0
    5.1615   -7.7141    3.9289 C   0  0  0  0  0  0  0  0  0  0  0  0
    5.9640   -6.6162    3.1838 C   0  0  2  0  0  0  0  0  0  0  0  0
    5.7495   -6.7278    1.6391 C   0  0  1  0  0  0  0  0  0  0  0  0
    4.3292   -6.3252    1.1561 C   0  0  0  0  0  0  0  0  0  0  0  0
    4.2770   -5.0245    0.3215 C   0  0  0  0  0  0  0  0  0  0  0  0
    5.1806   -3.8828    0.8749 C   0  0  2  0  0  0  0  0  0  0  0  0
    4.5684   -3.3006    2.1801 C   0  0  0  0  0  0  0  0  0  0  0  0
    3.3501   -3.4817    2.4047 O   0  0  0  0  0  0  0  0  0  0  0  0
    5.3134   -2.6301    2.9331 O   0  0  0  0  0  0  0  0  0  0  0  0
    3.8127   -0.4920   -1.9632 H   0  0  0  0  0  0  0  0  0  0  0  0
    4.4938   -1.6780   -3.0684 H   0  0  0  0  0  0  0  0  0  0  0  0
    5.5538   -0.7260   -2.0255 H   0  0  0  0  0  0  0  0  0  0  0  0
    3.4521   -2.7859   -1.0142 H   0  0  0  0  0  0  0  0  0  0  0  0
    7.1002   -1.6911   -0.8880 H   0  0  0  0  0  0  0  0  0  0  0  0
    6.8710   -1.6265    0.8650 H   0  0  0  0  0  0  0  0  0  0  0  0
    7.5911   -4.0277   -0.8367 H   0  0  0  0  0  0  0  0  0  0  0  0
    9.2934   -2.7451   -0.0320 H   0  0  0  0  0  0  0  0  0  0  0  0
    6.9609   -4.1659    2.0933 H   0  0  0  0  0  0  0  0  0  0  0  0
    6.6549   -6.1324   -0.1743 H   0  0  0  0  0  0  0  0  0  0  0  0
    8.2398   -7.5645    0.9636 H   0  0  0  0  0  0  0  0  0  0  0  0
    8.9736   -6.0419    0.6014 H   0  0  0  0  0  0  0  0  0  0  0  0
    9.4695   -6.8218    2.9004 H   0  0  0  0  0  0  0  0  0  0  0  0
    8.7256   -5.2618    2.8870 H   0  0  0  0  0  0  0  0  0  0  0  0
    7.4672   -5.0601    4.9365 H   0  0  0  0  0  0  0  0  0  0  0  0
    8.6895   -6.2432    5.3709 H   0  0  0  0  0  0  0  0  0  0  0  0
    7.0062   -6.5114    5.8125 H   0  0  0  0  0  0  0  0  0  0  0  0
    5.9171   -9.6505    3.2583 H   0  0  0  0  0  0  0  0  0  0  0  0
    5.9491   -9.4464    5.0124 H   0  0  0  0  0  0  0  0  0  0  0  0
    4.2252   -7.9725    3.4329 H   0  0  0  0  0  0  0  0  0  0  0  0
    4.8998   -7.3498    4.9253 H   0  0  0  0  0  0  0  0  0  0  0  0
    5.6222   -5.6322    3.5099 H   0  0  0  0  0  0  0  0  0  0  0  0
    5.8859   -7.7793    1.3766 H   0  0  0  0  0  0  0  0  0  0  0  0
    3.9220   -7.1320    0.5469 H   0  0  0  0  0  0  0  0  0  0  0  0
    3.6587   -6.2336    2.0098 H   0  0  0  0  0  0  0  0  0  0  0  0
    4.5814   -5.2507   -0.7005 H   0  0  0  0  0  0  0  0  0  0  0  0
    3.2390   -4.7061    0.2372 H   0  0  0  0  0  0  0  0  0  0  0  0
  1  2  1  0
  1 25  1  0
  1 26  1  0
  1 27  1  0
  2  3  2  3
  2 28  1  0
  3 21  1  0
  3  4  1  0
  4  5  1  0
  4 29  1  0
  4 30  1  0
  5  6  1  0
  5  7  1  0
  5 31  1  6
  6 32  1  0
  7 21  1  0
  7  8  1  0
  7 33  1  1
  8 18  1  0
  8  9  1  0
  8 34  1  6
  9 10  1  0
  9 35  1  0
  9 36  1  0
 10 11  1  0
 10 37  1  0
 10 38  1  0
 11 17  1  0
 11 12  1  1
 11 13  1  0
 12 39  1  0
 12 40  1  0
 12 41  1  0
 13 14  2  0
 13 15  1  0
 15 16  1  0
 15 42  1  0
 15 43  1  0
 16 17  1  0
 16 44  1  0
 16 45  1  0
 17 18  1  0
 17 46  1  1
 18 19  1  0
 18 47  1  6
 19 20  1  0
 19 48  1  0
 19 49  1  0
 20 21  1  0
 20 50  1  0
 20 51  1  0
 21 22  1  1
 22 23  2  0
 22 24  1  0
M  CHG  1  24  -1
M  END
>  <i_m_ct_stereo_status>  (99) 
1

>  <s_m_source_file>  (99) 
/var/tmp/pbs.5076255.sched01/tmp8nmo4hef/06hb_edth.sdf

>  <i_m_source_file_index>  (99) 
38

>  <i_lp_mmshare_version>  (99) 
48012

>  <i_f3d_flags>  (99) 
0

>  <s_epik_input>  (99) 
W09IXVtDQEBIXTFbQ0gyXS9DKD1bQ0hdXFtDSDNdKVtDQF0oW0NIMl1bQ0gyXTIpKEMoPU8pW09IXSlbQ0BIXTFbQ0BASF0oW0NIMl1bQ0gyXTMpW0NASF0yW0NASF0oW0NAXTM0W0NIM10pW0NIMl1bQ0gyXUM0PU8=

>  <s_epik_cmdline>  (99) 
J2VwaWtfcHl0aG9uJywgJy1waHQnLCAnMi4wJywgJy1waCcsICc3LjAnLCAnLXRuJywgJzgnLCAnLW1hJywgJzIwMCcsICctaW1hZScsICc8aW5maWxlLm1hZT4nLCAnLW9tYWUnLCAnPG91dGZpbGUubWFlPic=

>  <r_lp_tautomer_probability>  (99) 
0.99995

>  <r_epik_Ionization_Penalty>  (99) 
0.00269419

>  <r_epik_Ionization_Penalty_Charging>  (99) 
0.00269267

>  <r_epik_Ionization_Penalty_Neutral>  (99) 
1.52011e-06

>  <r_epik_State_Penalty>  (99) 
0.00187678

>  <r_epik_Charging_Adjusted_Penalty>  (99) 
0.00456944

>  <i_epik_Tot_Q>  (99) 
-1

>  <i_epik_Tot_abs_Q>  (99) 
1

>  <s_lp_Force_Field>  (99) 
OPLS3e

>  <r_lp_Energy>  (99) 
34.1474

>  <b_lp_Chiralities_Consistent>  (99) 
1

>  <s_lp_Variant>  (99) 
30:0-1

>  <s_i_glide_gridfile>  (99) 
pfpi4k_grid

>  <i_i_glide_lignum>  (99) 
38

>  <i_i_glide_rotatable_bonds>  (99) 
2

>  <r_i_docking_score>  (99) 
-2.8137

>  <r_i_glide_ligand_efficiency>  (99) 
-0.117237

>  <r_i_glide_ligand_efficiency_sa>  (99) 
-0.338171

>  <r_i_glide_ligand_efficiency_ln>  (99) 
-0.673447

>  <r_i_glide_gscore>  (99) 
-2.8137

>  <r_i_glide_lipo>  (99) 
-0.624325

>  <r_i_glide_hbond>  (99) 
0

>  <r_i_glide_metal>  (99) 
-0

>  <r_i_glide_rewards>  (99) 
-1.18367

>  <r_i_glide_evdw>  (99) 
-22.0027

>  <r_i_glide_ecoul>  (99) 
0.629548

>  <r_i_glide_erotb>  (99) 
0

>  <r_i_glide_esite>  (99) 
0

>  <r_i_glide_emodel>  (99) 
-26.6638

>  <r_i_glide_energy>  (99) 
-21.3731

>  <r_i_glide_einternal>  (99) 
0.369069

>  <r_i_glide_intrahb_reward>  (99) 
-0

>  <i_i_glide_confnum>  (99) 
2

>  <i_i_glide_posenum>  (99) 
11

>  <r_i_glide_eff_state_penalty>  (99) 
0

>  <ligand_id>  (99) 
30

>  <original_smiles>  (99) 
CC=C1CC(O)C2C3CCC4(C)C(=O)CCC4C3CCC12C(=O)O

>  <smiles>  (99) 
[H]OC1([H])C([H])([H])C(=C([H])C([H])([H])[H])C2(C(=O)[O-])C([H])([H])C([H])([H])C3([H])C([H])(C([H])([H])C([H])([H])C4(C([H])([H])[H])C(=O)C([H])([H])C([H])([H])C34[H])C12[H]

$$$$
31:0:0
     RDKit          3D

 66 71  0  0  1  0  0  0  0  0999 V2000
    3.1839   -5.0821    3.6393 C   0  0  0  0  0  0  0  0  0  0  0  0
    3.7714   -5.4886    2.2871 C   0  0  0  0  0  0  0  0  0  0  0  0
    3.8770   -7.0338    2.2498 C   0  0  0  0  0  0  0  0  0  0  0  0
    2.6997   -5.2334    1.1818 C   0  0  0  0  0  0  0  0  0  0  0  0
    1.4982   -5.3031    1.4726 O   0  0  0  0  0  0  0  0  0  0  0  0
    3.1075   -5.1895   -0.3097 C   0  0  0  0  0  0  0  0  0  0  0  0
    2.9204   -3.8914   -1.2585 C   0  0  0  0  0  0  0  0  0  0  0  0
    4.2557   -3.1487   -1.7992 C   0  0  1  0  0  0  0  0  0  0  0  0
    4.5034   -3.2237   -3.3460 C   0  0  1  0  0  0  0  0  0  0  0  0
    3.9914   -4.2624   -4.1190 O   0  0  0  0  0  0  0  0  0  0  0  0
    3.7786   -1.8524   -3.4956 C   0  0  0  0  0  0  0  0  0  0  0  0
    4.2673   -0.9827   -4.6343 C   0  0  0  0  0  0  0  0  0  0  0  0
    2.2502   -1.8290   -3.6253 C   0  0  0  0  0  0  0  0  0  0  0  0
    4.3674   -1.6365   -2.1070 C   0  0  1  0  0  0  0  0  0  0  0  0
    4.0936   -0.6761   -0.9936 C   0  0  0  0  0  0  0  0  0  0  0  0
    4.9820   -1.0863    0.2151 C   0  0  0  0  0  0  0  0  0  0  0  0
    5.7062   -0.2870    0.8080 O   0  0  0  0  0  0  0  0  0  0  0  0
    4.8269   -2.5798    0.6330 C   0  0  1  0  0  0  0  0  0  0  0  0
    3.3771   -2.2867    1.2396 C   0  0  0  0  0  0  0  0  0  0  0  0
    5.2945   -3.3174   -0.7070 C   0  0  2  0  0  0  0  0  0  0  0  0
    6.8153   -2.9955   -1.0701 C   0  0  0  0  0  0  0  0  0  0  0  0
    7.7145   -2.8441    0.1866 C   0  0  1  0  0  0  0  0  0  0  0  0
    8.0643   -1.5037    0.4995 O   0  0  0  0  0  0  0  0  0  0  0  0
    7.1381   -3.6594    1.3421 C   0  0  1  0  0  0  0  0  0  0  0  0
    7.4577   -4.9594    0.7961 O   0  0  0  0  0  0  0  0  0  0  0  0
    7.5806   -4.8562    2.1750 C   0  0  2  0  0  0  0  0  0  0  0  0
    6.3726   -5.4613    2.8600 C   0  0  0  0  0  0  0  0  0  0  0  0
    5.1967   -4.8842    2.0286 C   0  0  2  0  0  0  0  0  0  0  0  0
    5.6474   -3.3606    1.7516 C   0  0  2  0  0  0  0  0  0  0  0  0
    5.6185   -2.5206    3.0704 C   0  0  0  0  0  0  0  0  0  0  0  0
    3.7619   -5.5167    4.4428 H   0  0  0  0  0  0  0  0  0  0  0  0
    2.1637   -5.4572    3.7365 H   0  0  0  0  0  0  0  0  0  0  0  0
    3.1341   -4.0058    3.7725 H   0  0  0  0  0  0  0  0  0  0  0  0
    4.4162   -7.4104    3.1081 H   0  0  0  0  0  0  0  0  0  0  0  0
    4.3675   -7.4106    1.3488 H   0  0  0  0  0  0  0  0  0  0  0  0
    2.8887   -7.4899    2.2758 H   0  0  0  0  0  0  0  0  0  0  0  0
    3.9607   -5.8033   -0.5921 H   0  0  0  0  0  0  0  0  0  0  0  0
    2.3997   -5.9099   -0.6746 H   0  0  0  0  0  0  0  0  0  0  0  0
    2.3777   -4.2486   -2.1307 H   0  0  0  0  0  0  0  0  0  0  0  0
    2.1467   -3.2202   -0.8956 H   0  0  0  0  0  0  0  0  0  0  0  0
    5.5826   -3.1477   -3.5368 H   0  0  0  0  0  0  0  0  0  0  0  0
    3.4647   -4.8021   -3.5138 H   0  0  0  0  0  0  0  0  0  0  0  0
    3.9915    0.0702   -4.5056 H   0  0  0  0  0  0  0  0  0  0  0  0
    3.7858   -1.3438   -5.5338 H   0  0  0  0  0  0  0  0  0  0  0  0
    5.3349   -1.0444   -4.7330 H   0  0  0  0  0  0  0  0  0  0  0  0
    2.0753   -0.7870   -3.8896 H   0  0  0  0  0  0  0  0  0  0  0  0
    1.7678   -1.9075   -2.6733 H   0  0  0  0  0  0  0  0  0  0  0  0
    1.8979   -2.6311   -4.3006 H   0  0  0  0  0  0  0  0  0  0  0  0
    5.3611   -1.3071   -2.3897 H   0  0  0  0  0  0  0  0  0  0  0  0
    4.3513    0.2981   -1.3654 H   0  0  0  0  0  0  0  0  0  0  0  0
    3.0304   -0.6951   -0.7648 H   0  0  0  0  0  0  0  0  0  0  0  0
    3.0052   -2.9712    1.9698 H   0  0  0  0  0  0  0  0  0  0  0  0
    2.5616   -2.0626    0.5760 H   0  0  0  0  0  0  0  0  0  0  0  0
    3.3791   -1.3966    1.8841 H   0  0  0  0  0  0  0  0  0  0  0  0
    5.4119   -4.3804   -0.5821 H   0  0  0  0  0  0  0  0  0  0  0  0
    7.1926   -3.8452   -1.6820 H   0  0  0  0  0  0  0  0  0  0  0  0
    6.9762   -2.1003   -1.6610 H   0  0  0  0  0  0  0  0  0  0  0  0
    8.6858   -3.2676   -0.0794 H   0  0  0  0  0  0  0  0  0  0  0  0
    7.3269   -1.0290    0.8887 H   0  0  0  0  0  0  0  0  0  0  0  0
    8.5801   -4.9307    2.6293 H   0  0  0  0  0  0  0  0  0  0  0  0
    6.4224   -6.5537    2.8186 H   0  0  0  0  0  0  0  0  0  0  0  0
    6.2972   -5.1634    3.9093 H   0  0  0  0  0  0  0  0  0  0  0  0
    5.3455   -5.4292    1.1149 H   0  0  0  0  0  0  0  0  0  0  0  0
    6.1417   -2.9662    3.8822 H   0  0  0  0  0  0  0  0  0  0  0  0
    4.6040   -2.3892    3.4569 H   0  0  0  0  0  0  0  0  0  0  0  0
    6.0097   -1.5063    2.9423 H   0  0  0  0  0  0  0  0  0  0  0  0
  1  2  1  0
  1 31  1  0
  1 32  1  0
  1 33  1  0
  2 28  1  0
  2  3  1  0
  2  4  1  0
  3 34  1  0
  3 35  1  0
  3 36  1  0
  4  5  2  0
  4  6  1  0
  6  7  1  0
  6 37  1  0
  6 38  1  0
  8  7  1  1
  7 39  1  0
  7 40  1  0
  8 14  1  0
  8 20  1  0
  8  9  1  0
  9 10  1  0
  9 11  1  0
  9 41  1  1
 10 42  1  0
 11 12  1  0
 11 13  1  0
 11 14  1  0
 12 43  1  0
 12 44  1  0
 12 45  1  0
 13 46  1  0
 13 47  1  0
 13 48  1  0
 14 15  1  0
 14 49  1  6
 15 16  1  0
 15 50  1  0
 15 51  1  0
 16 17  2  0
 16 18  1  0
 18 29  1  0
 18 19  1  1
 18 20  1  0
 19 52  1  0
 19 53  1  0
 19 54  1  0
 20 21  1  0
 20 55  1  1
 21 22  1  0
 21 56  1  0
 21 57  1  0
 22 23  1  0
 22 24  1  0
 22 58  1  6
 23 59  1  0
 24 26  1  0
 24 29  1  0
 24 25  1  1
 25 26  1  0
 26 27  1  0
 26 60  1  1
 27 28  1  0
 27 61  1  0
 27 62  1  0
 28 29  1  0
 28 63  1  6
 29 30  1  1
 30 64  1  0
 30 65  1  0
 30 66  1  0
M  END
>  <i_m_ct_stereo_status>  (100) 
1

>  <s_m_source_file>  (100) 
/var/tmp/pbs.5076255.sched01/tmp8nmo4hef/06hb_edth.sdf

>  <i_m_source_file_index>  (100) 
40

>  <i_lp_mmshare_version>  (100) 
48012

>  <i_f3d_flags>  (100) 
0

>  <s_epik_input>  (100) 
W0NIMl0xW0NIMl1DKD1PKUMoW0NIM10pKFtDSDNdKVtDQEBIXShbQ0BdMjNbQ0gzXSlbQ0gyXVtDQEBIXShPNClbQ0BdMzRbQ0BIXShbT0hdKVtDSDJdW0NASF01W0NAXTIoW0NIM10pQyg9TylbQ0gyXVtDQEBIXShbQ0BdMTU2KUMoW0NIM10pKFtDSDNdKVtDQEBIXTZbT0hd

>  <s_epik_cmdline>  (100) 
J2VwaWtfcHl0aG9uJywgJy1waHQnLCAnMi4wJywgJy1waCcsICc3LjAnLCAnLXRuJywgJzgnLCAnLW1hJywgJzIwMCcsICctaW1hZScsICc8aW5maWxlLm1hZT4nLCAnLW9tYWUnLCAnPG91dGZpbGUubWFlPic=

>  <r_lp_tautomer_probability>  (100) 
1

>  <r_epik_Ionization_Penalty>  (100) 
6.2713e-07

>  <r_epik_Ionization_Penalty_Charging>  (100) 
0

>  <r_epik_Ionization_Penalty_Neutral>  (100) 
6.2713e-07

>  <r_epik_State_Penalty>  (100) 
-0

>  <r_epik_Charging_Adjusted_Penalty>  (100) 
0

>  <i_epik_Tot_Q>  (100) 
0

>  <i_epik_Tot_abs_Q>  (100) 
0

>  <s_lp_Force_Field>  (100) 
OPLS3e

>  <r_lp_Energy>  (100) 
178.195

>  <b_lp_Chiralities_Consistent>  (100) 
1

>  <s_lp_Variant>  (100) 
31:0-1

>  <s_i_glide_gridfile>  (100) 
pfpi4k_grid

>  <i_i_glide_lignum>  (100) 
40

>  <i_i_glide_rotatable_bonds>  (100) 
2

>  <r_i_docking_score>  (100) 
-4.16348

>  <r_i_glide_ligand_efficiency>  (100) 
-0.138783

>  <r_i_glide_ligand_efficiency_sa>  (100) 
-0.43123

>  <r_i_glide_ligand_efficiency_ln>  (100) 
-0.945987

>  <r_i_glide_gscore>  (100) 
-4.16348

>  <r_i_glide_lipo>  (100) 
-1.02736

>  <r_i_glide_hbond>  (100) 
-0.478844

>  <r_i_glide_metal>  (100) 
-0

>  <r_i_glide_rewards>  (100) 
-1.1356

>  <r_i_glide_evdw>  (100) 
1.42864

>  <r_i_glide_ecoul>  (100) 
-10.4757

>  <r_i_glide_erotb>  (100) 
0

>  <r_i_glide_esite>  (100) 
-0.021749

>  <r_i_glide_emodel>  (100) 
-17.1699

>  <r_i_glide_energy>  (100) 
-9.04706

>  <r_i_glide_einternal>  (100) 
1.43308

>  <r_i_glide_intrahb_reward>  (100) 
-0.5

>  <i_i_glide_confnum>  (100) 
1

>  <i_i_glide_posenum>  (100) 
4

>  <r_i_glide_eff_state_penalty>  (100) 
0

>  <ligand_id>  (100) 
31

>  <original_smiles>  (100) 
CC1(C)C(=O)CCC23C(O)C(C)(C)C2CC(=O)C2(C)C3CC(O)C34OC3CC1C24C

>  <smiles>  (100) 
[H]OC1([H])C([H])([H])C2([H])C3(C([H])([H])[H])C(=O)C([H])([H])C4([H])C(C([H])([H])[H])(C([H])([H])[H])C([H])(O[H])C24C([H])([H])C([H])([H])C(=O)C(C([H])([H])[H])(C([H])([H])[H])C2([H])C([H])([H])C4([H])OC14C23C([H])([H])[H]

$$$$
31:0:1
     RDKit          3D

 66 71  0  0  1  0  0  0  0  0999 V2000
    1.2108   -8.1478    4.1954 C   0  0  0  0  0  0  0  0  0  0  0  0
    2.0567   -7.9448    2.9154 C   0  0  0  0  0  0  0  0  0  0  0  0
    1.7438   -9.1694    2.0318 C   0  0  0  0  0  0  0  0  0  0  0  0
    1.5428   -6.7271    2.0375 C   0  0  0  0  0  0  0  0  0  0  0  0
    0.4208   -6.2497    2.2481 O   0  0  0  0  0  0  0  0  0  0  0  0
    2.3381   -6.1155    0.8483 C   0  0  0  0  0  0  0  0  0  0  0  0
    2.8179   -4.6096    0.9843 C   0  0  0  0  0  0  0  0  0  0  0  0
    4.3643   -4.2903    1.2230 C   0  0  1  0  0  0  0  0  0  0  0  0
    5.0186   -3.6458   -0.0355 C   0  0  1  0  0  0  0  0  0  0  0  0
    4.4675   -3.8486   -1.3201 O   0  0  0  0  0  0  0  0  0  0  0  0
    4.7908   -2.2265    0.6071 C   0  0  0  0  0  0  0  0  0  0  0  0
    5.8718   -1.2114    0.2426 C   0  0  0  0  0  0  0  0  0  0  0  0
    3.4394   -1.5122    0.4487 C   0  0  0  0  0  0  0  0  0  0  0  0
    4.9619   -3.0270    1.9000 C   0  0  1  0  0  0  0  0  0  0  0  0
    4.7050   -2.7506    3.3688 C   0  0  0  0  0  0  0  0  0  0  0  0
    5.0166   -4.0716    4.1381 C   0  0  0  0  0  0  0  0  0  0  0  0
    5.6275   -4.0415    5.2103 O   0  0  0  0  0  0  0  0  0  0  0  0
    4.3436   -5.3538    3.5565 C   0  0  1  0  0  0  0  0  0  0  0  0
    2.9043   -4.9152    4.0549 C   0  0  0  0  0  0  0  0  0  0  0  0
    4.9157   -5.4256    2.0756 C   0  0  2  0  0  0  0  0  0  0  0  0
    6.4990   -5.6211    2.1176 C   0  0  0  0  0  0  0  0  0  0  0  0
    7.0082   -6.5336    3.2797 C   0  0  1  0  0  0  0  0  0  0  0  0
    7.6512   -5.8619    4.3346 O   0  0  0  0  0  0  0  0  0  0  0  0
    5.9200   -7.5007    3.6719 C   0  0  1  0  0  0  0  0  0  0  0  0
    6.0590   -8.4285    2.5525 O   0  0  0  0  0  0  0  0  0  0  0  0
    5.6904   -9.0020    3.7783 C   0  0  2  0  0  0  0  0  0  0  0  0
    4.2325   -9.3328    3.7483 C   0  0  0  0  0  0  0  0  0  0  0  0
    3.6037   -7.9727    3.2743 C   0  0  2  0  0  0  0  0  0  0  0  0
    4.5273   -6.8674    4.0289 C   0  0  2  0  0  0  0  0  0  0  0  0
    4.3286   -6.9582    5.5762 C   0  0  0  0  0  0  0  0  0  0  0  0
    1.3877   -9.1378    4.6160 H   0  0  0  0  0  0  0  0  0  0  0  0
    0.1420   -8.0907    3.9865 H   0  0  0  0  0  0  0  0  0  0  0  0
    1.4249   -7.4416    4.9903 H   0  0  0  0  0  0  0  0  0  0  0  0
    1.8958  -10.1120    2.5538 H   0  0  0  0  0  0  0  0  0  0  0  0
    2.3405   -9.2020    1.1194 H   0  0  0  0  0  0  0  0  0  0  0  0
    0.6926   -9.1575    1.7506 H   0  0  0  0  0  0  0  0  0  0  0  0
    3.0994   -6.7986    0.4819 H   0  0  0  0  0  0  0  0  0  0  0  0
    1.6091   -6.1118    0.0348 H   0  0  0  0  0  0  0  0  0  0  0  0
    2.5020   -4.1541    0.0473 H   0  0  0  0  0  0  0  0  0  0  0  0
    2.1655   -4.0631    1.6498 H   0  0  0  0  0  0  0  0  0  0  0  0
    6.0736   -3.9080   -0.0896 H   0  0  0  0  0  0  0  0  0  0  0  0
    4.1427   -4.7346   -1.3512 H   0  0  0  0  0  0  0  0  0  0  0  0
    5.8719   -0.3464    0.9040 H   0  0  0  0  0  0  0  0  0  0  0  0
    5.7366   -0.8530   -0.7785 H   0  0  0  0  0  0  0  0  0  0  0  0
    6.8707   -1.6551    0.2896 H   0  0  0  0  0  0  0  0  0  0  0  0
    3.4889   -0.4819    0.8060 H   0  0  0  0  0  0  0  0  0  0  0  0
    2.6444   -1.9793    1.0338 H   0  0  0  0  0  0  0  0  0  0  0  0
    3.1111   -1.4840   -0.5931 H   0  0  0  0  0  0  0  0  0  0  0  0
    6.0555   -3.0658    1.9193 H   0  0  0  0  0  0  0  0  0  0  0  0
    5.3396   -1.9484    3.7363 H   0  0  0  0  0  0  0  0  0  0  0  0
    3.6785   -2.4203    3.5355 H   0  0  0  0  0  0  0  0  0  0  0  0
    2.1712   -5.6828    4.1507 H   0  0  0  0  0  0  0  0  0  0  0  0
    2.4410   -4.0600    3.5821 H   0  0  0  0  0  0  0  0  0  0  0  0
    2.9356   -4.6097    5.1044 H   0  0  0  0  0  0  0  0  0  0  0  0
    4.6779   -6.3218    1.5593 H   0  0  0  0  0  0  0  0  0  0  0  0
    6.7502   -6.1319    1.1818 H   0  0  0  0  0  0  0  0  0  0  0  0
    7.1099   -4.7329    2.0827 H   0  0  0  0  0  0  0  0  0  0  0  0
    7.8395   -7.1252    2.8687 H   0  0  0  0  0  0  0  0  0  0  0  0
    8.4096   -5.4297    3.9984 H   0  0  0  0  0  0  0  0  0  0  0  0
    6.4298   -9.6608    4.2581 H   0  0  0  0  0  0  0  0  0  0  0  0
    4.0831  -10.1339    3.0240 H   0  0  0  0  0  0  0  0  0  0  0  0
    3.8714   -9.6678    4.7191 H   0  0  0  0  0  0  0  0  0  0  0  0
    3.9106   -7.9939    2.2404 H   0  0  0  0  0  0  0  0  0  0  0  0
    4.5210   -7.9500    5.9823 H   0  0  0  0  0  0  0  0  0  0  0  0
    3.3169   -6.7124    5.8897 H   0  0  0  0  0  0  0  0  0  0  0  0
    4.9969   -6.2896    6.1215 H   0  0  0  0  0  0  0  0  0  0  0  0
  1  2  1  0
  1 31  1  0
  1 32  1  0
  1 33  1  0
  2 28  1  0
  2  3  1  0
  2  4  1  0
  3 34  1  0
  3 35  1  0
  3 36  1  0
  4  5  2  0
  4  6  1  0
  6  7  1  0
  6 37  1  0
  6 38  1  0
  8  7  1  6
  7 39  1  0
  7 40  1  0
  8 14  1  0
  8 20  1  0
  8  9  1  0
  9 10  1  0
  9 11  1  0
  9 41  1  6
 10 42  1  0
 11 12  1  0
 11 13  1  0
 11 14  1  0
 12 43  1  0
 12 44  1  0
 12 45  1  0
 13 46  1  0
 13 47  1  0
 13 48  1  0
 14 15  1  0
 14 49  1  1
 15 16  1  0
 15 50  1  0
 15 51  1  0
 16 17  2  0
 16 18  1  0
 18 29  1  0
 18 19  1  6
 18 20  1  0
 19 52  1  0
 19 53  1  0
 19 54  1  0
 20 21  1  0
 20 55  1  6
 21 22  1  0
 21 56  1  0
 21 57  1  0
 22 23  1  0
 22 24  1  0
 22 58  1  6
 23 59  1  0
 24 26  1  0
 24 29  1  0
 24 25  1  1
 25 26  1  0
 26 27  1  0
 26 60  1  1
 27 28  1  0
 27 61  1  0
 27 62  1  0
 28 29  1  0
 28 63  1  6
 29 30  1  1
 30 64  1  0
 30 65  1  0
 30 66  1  0
M  END
>  <i_m_ct_stereo_status>  (101) 
1

>  <s_m_source_file>  (101) 
/var/tmp/pbs.5076255.sched01/tmp8nmo4hef/06hb_edth.sdf

>  <i_m_source_file_index>  (101) 
40

>  <i_lp_mmshare_version>  (101) 
48012

>  <i_f3d_flags>  (101) 
0

>  <s_epik_input>  (101) 
W0NIMl0xW0NIMl1DKD1PKUMoW0NIM10pKFtDSDNdKVtDQEBIXShbQ0BdMjNbQ0gzXSlbQ0gyXVtDQEBIXShPNClbQ0BdMzRbQ0BIXShbT0hdKVtDSDJdW0NASF01W0NAXTIoW0NIM10pQyg9TylbQ0gyXVtDQEBIXShbQ0BdMTU2KUMoW0NIM10pKFtDSDNdKVtDQEBIXTZbT0hd

>  <s_epik_cmdline>  (101) 
J2VwaWtfcHl0aG9uJywgJy1waHQnLCAnMi4wJywgJy1waCcsICc3LjAnLCAnLXRuJywgJzgnLCAnLW1hJywgJzIwMCcsICctaW1hZScsICc8aW5maWxlLm1hZT4nLCAnLW9tYWUnLCAnPG91dGZpbGUubWFlPic=

>  <r_lp_tautomer_probability>  (101) 
1

>  <r_epik_Ionization_Penalty>  (101) 
6.2713e-07

>  <r_epik_Ionization_Penalty_Charging>  (101) 
0

>  <r_epik_Ionization_Penalty_Neutral>  (101) 
6.2713e-07

>  <r_epik_State_Penalty>  (101) 
-0

>  <r_epik_Charging_Adjusted_Penalty>  (101) 
0

>  <i_epik_Tot_Q>  (101) 
0

>  <i_epik_Tot_abs_Q>  (101) 
0

>  <s_lp_Force_Field>  (101) 
OPLS3e

>  <r_lp_Energy>  (101) 
178.195

>  <b_lp_Chiralities_Consistent>  (101) 
1

>  <s_lp_Variant>  (101) 
31:0-1

>  <s_i_glide_gridfile>  (101) 
pfpi4k_grid

>  <i_i_glide_lignum>  (101) 
40

>  <i_i_glide_rotatable_bonds>  (101) 
2

>  <r_i_docking_score>  (101) 
-2.98361

>  <r_i_glide_ligand_efficiency>  (101) 
-0.0994536

>  <r_i_glide_ligand_efficiency_sa>  (101) 
-0.309025

>  <r_i_glide_ligand_efficiency_ln>  (101) 
-0.677908

>  <r_i_glide_gscore>  (101) 
-2.98361

>  <r_i_glide_lipo>  (101) 
-0.324912

>  <r_i_glide_hbond>  (101) 
-0.29881

>  <r_i_glide_metal>  (101) 
-0

>  <r_i_glide_rewards>  (101) 
-0.586606

>  <r_i_glide_evdw>  (101) 
-19.4774

>  <r_i_glide_ecoul>  (101) 
-5.09006

>  <r_i_glide_erotb>  (101) 
0

>  <r_i_glide_esite>  (101) 
-0.0359013

>  <r_i_glide_emodel>  (101) 
-27.9398

>  <r_i_glide_energy>  (101) 
-24.5675

>  <r_i_glide_einternal>  (101) 
2.20041

>  <r_i_glide_intrahb_reward>  (101) 
-0

>  <i_i_glide_confnum>  (101) 
1

>  <i_i_glide_posenum>  (101) 
30

>  <r_i_glide_eff_state_penalty>  (101) 
0

>  <ligand_id>  (101) 
31

>  <original_smiles>  (101) 
CC1(C)C(=O)CCC23C(O)C(C)(C)C2CC(=O)C2(C)C3CC(O)C34OC3CC1C24C

>  <smiles>  (101) 
[H]OC1([H])C([H])([H])C2([H])C3(C([H])([H])[H])C(=O)C([H])([H])C4([H])C(C([H])([H])[H])(C([H])([H])[H])C([H])(O[H])C24C([H])([H])C([H])([H])C(=O)C(C([H])([H])[H])(C([H])([H])[H])C2([H])C([H])([H])C4([H])OC14C23C([H])([H])[H]

$$$$
31:0:2
     RDKit          3D

 66 71  0  0  1  0  0  0  0  0999 V2000
    1.0783   -8.4804    4.2505 C   0  0  0  0  0  0  0  0  0  0  0  0
    1.9506   -8.1961    3.0043 C   0  0  0  0  0  0  0  0  0  0  0  0
    1.7152   -9.4005    2.0812 C   0  0  0  0  0  0  0  0  0  0  0  0
    1.4008   -6.9658    2.1549 C   0  0  0  0  0  0  0  0  0  0  0  0
    0.2713   -6.5294    2.3607 O   0  0  0  0  0  0  0  0  0  0  0  0
    2.2060   -6.2819    1.0030 C   0  0  0  0  0  0  0  0  0  0  0  0
    2.6219   -4.7608    1.2117 C   0  0  0  0  0  0  0  0  0  0  0  0
    4.1377   -4.3888    1.5118 C   0  0  1  0  0  0  0  0  0  0  0  0
    4.8042   -3.6677    0.2961 C   0  0  1  0  0  0  0  0  0  0  0  0
    4.3280   -3.8629   -1.0158 O   0  0  0  0  0  0  0  0  0  0  0  0
    4.4882   -2.2862    0.9772 C   0  0  0  0  0  0  0  0  0  0  0  0
    5.5268   -1.2066    0.6836 C   0  0  0  0  0  0  0  0  0  0  0  0
    3.1207   -1.6244    0.8099 C   0  0  0  0  0  0  0  0  0  0  0  0
    4.6511   -3.1210    2.2467 C   0  0  1  0  0  0  0  0  0  0  0  0
    4.3547   -2.9131    3.7157 C   0  0  0  0  0  0  0  0  0  0  0  0
    4.7220   -4.2426    4.4438 C   0  0  0  0  0  0  0  0  0  0  0  0
    5.2670   -4.2230    5.5297 O   0  0  0  0  0  0  0  0  0  0  0  0
    4.1089   -5.5328    3.7939 C   0  0  1  0  0  0  0  0  0  0  0  0
    2.6404   -5.1800    4.2744 C   0  0  0  0  0  0  0  0  0  0  0  0
    4.7084   -5.5343    2.3271 C   0  0  2  0  0  0  0  0  0  0  0  0
    6.2920   -5.6474    2.4163 C   0  0  0  0  0  0  0  0  0  0  0  0
    6.8211   -6.5730    3.5631 C   0  0  1  0  0  0  0  0  0  0  0  0
    7.3909   -5.9148    4.6558 O   0  0  0  0  0  0  0  0  0  0  0  0
    5.7620   -7.6150    3.8668 C   0  0  0  0  0  0  0  0  0  0  0  0
    5.9802   -8.5056    2.7227 O   0  0  0  0  0  0  0  0  0  0  0  0
    5.5959   -9.1239    3.9279 C   0  0  2  0  0  0  0  0  0  0  0  0
    4.1480   -9.5254    3.8445 C   0  0  0  0  0  0  0  0  0  0  0  0
    3.4903   -8.1689    3.4049 C   0  0  2  0  0  0  0  0  0  0  0  0
    4.3577   -7.0452    4.2191 C   0  0  2  0  0  0  0  0  0  0  0  0
    4.1059   -7.2122    5.7554 C   0  0  0  0  0  0  0  0  0  0  0  0
    1.2877   -9.4776    4.6379 H   0  0  0  0  0  0  0  0  0  0  0  0
    0.0151   -8.4640    4.0113 H   0  0  0  0  0  0  0  0  0  0  0  0
    1.2381   -7.7959    5.0774 H   0  0  0  0  0  0  0  0  0  0  0  0
    1.9059  -10.3527    2.5664 H   0  0  0  0  0  0  0  0  0  0  0  0
    2.3145   -9.3680    1.1688 H   0  0  0  0  0  0  0  0  0  0  0  0
    0.6616   -9.4257    1.8110 H   0  0  0  0  0  0  0  0  0  0  0  0
    3.0016   -6.9155    0.6285 H   0  0  0  0  0  0  0  0  0  0  0  0
    1.4908   -6.2749    0.1759 H   0  0  0  0  0  0  0  0  0  0  0  0
    2.3032   -4.2828    0.2857 H   0  0  0  0  0  0  0  0  0  0  0  0
    1.9203   -4.2766    1.8802 H   0  0  0  0  0  0  0  0  0  0  0  0
    5.8734   -3.8601    0.2820 H   0  0  0  0  0  0  0  0  0  0  0  0
    3.5615   -4.4172   -0.9564 H   0  0  0  0  0  0  0  0  0  0  0  0
    5.4734   -0.3688    1.3770 H   0  0  0  0  0  0  0  0  0  0  0  0
    5.4057   -0.8141   -0.3265 H   0  0  0  0  0  0  0  0  0  0  0  0
    6.5404   -1.6067    0.7402 H   0  0  0  0  0  0  0  0  0  0  0  0
    3.1049   -0.6043    1.2025 H   0  0  0  0  0  0  0  0  0  0  0  0
    2.3239   -2.1419    1.3546 H   0  0  0  0  0  0  0  0  0  0  0  0
    2.8288   -1.5772   -0.2373 H   0  0  0  0  0  0  0  0  0  0  0  0
    5.7398   -3.1163    2.2815 H   0  0  0  0  0  0  0  0  0  0  0  0
    4.9452   -2.0983    4.1261 H   0  0  0  0  0  0  0  0  0  0  0  0
    3.3188   -2.6389    3.8714 H   0  0  0  0  0  0  0  0  0  0  0  0
    1.9367   -5.9810    4.3236 H   0  0  0  0  0  0  0  0  0  0  0  0
    2.1489   -4.3283    3.8217 H   0  0  0  0  0  0  0  0  0  0  0  0
    2.6354   -4.9071    5.3314 H   0  0  0  0  0  0  0  0  0  0  0  0
    4.5252   -6.4275    1.7713 H   0  0  0  0  0  0  0  0  0  0  0  0
    6.6005   -6.1190    1.4699 H   0  0  0  0  0  0  0  0  0  0  0  0
    6.8733   -4.7329    2.4236 H   0  0  0  0  0  0  0  0  0  0  0  0
    7.6714   -7.1146    3.1486 H   0  0  0  0  0  0  0  0  0  0  0  0
    8.3029   -6.1512    4.6995 H   0  0  0  0  0  0  0  0  0  0  0  0
    6.3436   -9.7597    4.3974 H   0  0  0  0  0  0  0  0  0  0  0  0
    4.0672  -10.3010    3.0871 H   0  0  0  0  0  0  0  0  0  0  0  0
    3.7923   -9.9065    4.7945 H   0  0  0  0  0  0  0  0  0  0  0  0
    3.8189   -8.1403    2.3768 H   0  0  0  0  0  0  0  0  0  0  0  0
    4.3297   -8.2098    6.1308 H   0  0  0  0  0  0  0  0  0  0  0  0
    3.0742   -7.0236    6.0503 H   0  0  0  0  0  0  0  0  0  0  0  0
    4.7279   -6.5372    6.3432 H   0  0  0  0  0  0  0  0  0  0  0  0
  1  2  1  0
  1 31  1  0
  1 32  1  0
  1 33  1  0
  2 28  1  0
  2  3  1  0
  2  4  1  0
  3 34  1  0
  3 35  1  0
  3 36  1  0
  4  5  2  0
  4  6  1  0
  6  7  1  0
  6 37  1  0
  6 38  1  0
  8  7  1  6
  7 39  1  0
  7 40  1  0
  8 14  1  0
  8 20  1  0
  8  9  1  0
  9 10  1  0
  9 11  1  0
  9 41  1  6
 10 42  1  0
 11 12  1  0
 11 13  1  0
 11 14  1  0
 12 43  1  0
 12 44  1  0
 12 45  1  0
 13 46  1  0
 13 47  1  0
 13 48  1  0
 14 15  1  0
 14 49  1  1
 15 16  1  0
 15 50  1  0
 15 51  1  0
 16 17  2  0
 16 18  1  0
 18 29  1  0
 18 19  1  6
 18 20  1  0
 19 52  1  0
 19 53  1  0
 19 54  1  0
 20 21  1  0
 20 55  1  6
 21 22  1  0
 21 56  1  0
 21 57  1  0
 22 23  1  0
 22 24  1  0
 22 58  1  6
 23 59  1  0
 24 26  1  0
 24 29  1  0
 24 25  1  0
 25 26  1  0
 26 27  1  0
 26 60  1  1
 27 28  1  0
 27 61  1  0
 27 62  1  0
 28 29  1  0
 28 63  1  6
 29 30  1  1
 30 64  1  0
 30 65  1  0
 30 66  1  0
M  END
>  <i_m_ct_stereo_status>  (102) 
1

>  <s_m_source_file>  (102) 
/var/tmp/pbs.5076255.sched01/tmp8nmo4hef/06hb_edth.sdf

>  <i_m_source_file_index>  (102) 
40

>  <i_lp_mmshare_version>  (102) 
48012

>  <i_f3d_flags>  (102) 
0

>  <s_epik_input>  (102) 
W0NIMl0xW0NIMl1DKD1PKUMoW0NIM10pKFtDSDNdKVtDQEBIXShbQ0BdMjNbQ0gzXSlbQ0gyXVtDQEBIXShPNClbQ0BdMzRbQ0BIXShbT0hdKVtDSDJdW0NASF01W0NAXTIoW0NIM10pQyg9TylbQ0gyXVtDQEBIXShbQ0BdMTU2KUMoW0NIM10pKFtDSDNdKVtDQEBIXTZbT0hd

>  <s_epik_cmdline>  (102) 
J2VwaWtfcHl0aG9uJywgJy1waHQnLCAnMi4wJywgJy1waCcsICc3LjAnLCAnLXRuJywgJzgnLCAnLW1hJywgJzIwMCcsICctaW1hZScsICc8aW5maWxlLm1hZT4nLCAnLW9tYWUnLCAnPG91dGZpbGUubWFlPic=

>  <r_lp_tautomer_probability>  (102) 
1

>  <r_epik_Ionization_Penalty>  (102) 
6.2713e-07

>  <r_epik_Ionization_Penalty_Charging>  (102) 
0

>  <r_epik_Ionization_Penalty_Neutral>  (102) 
6.2713e-07

>  <r_epik_State_Penalty>  (102) 
-0

>  <r_epik_Charging_Adjusted_Penalty>  (102) 
0

>  <i_epik_Tot_Q>  (102) 
0

>  <i_epik_Tot_abs_Q>  (102) 
0

>  <s_lp_Force_Field>  (102) 
OPLS3e

>  <r_lp_Energy>  (102) 
178.195

>  <b_lp_Chiralities_Consistent>  (102) 
1

>  <s_lp_Variant>  (102) 
31:0-1

>  <s_i_glide_gridfile>  (102) 
pfpi4k_grid

>  <i_i_glide_lignum>  (102) 
40

>  <i_i_glide_rotatable_bonds>  (102) 
2

>  <r_i_docking_score>  (102) 
-2.52167

>  <r_i_glide_ligand_efficiency>  (102) 
-0.0840556

>  <r_i_glide_ligand_efficiency_sa>  (102) 
-0.26118

>  <r_i_glide_ligand_efficiency_ln>  (102) 
-0.57295

>  <r_i_glide_gscore>  (102) 
-2.52167

>  <r_i_glide_lipo>  (102) 
-0.312395

>  <r_i_glide_hbond>  (102) 
-0.0951717

>  <r_i_glide_metal>  (102) 
-0

>  <r_i_glide_rewards>  (102) 
-0.573072

>  <r_i_glide_evdw>  (102) 
-18.5701

>  <r_i_glide_ecoul>  (102) 
-3.85111

>  <r_i_glide_erotb>  (102) 
0

>  <r_i_glide_esite>  (102) 
-0.0348571

>  <r_i_glide_emodel>  (102) 
-24.037

>  <r_i_glide_energy>  (102) 
-22.4212

>  <r_i_glide_einternal>  (102) 
2.83272

>  <r_i_glide_intrahb_reward>  (102) 
-0

>  <i_i_glide_confnum>  (102) 
1

>  <i_i_glide_posenum>  (102) 
10

>  <r_i_glide_eff_state_penalty>  (102) 
0

>  <ligand_id>  (102) 
31

>  <original_smiles>  (102) 
CC1(C)C(=O)CCC23C(O)C(C)(C)C2CC(=O)C2(C)C3CC(O)C34OC3CC1C24C

>  <smiles>  (102) 
[H]OC1([H])C([H])([H])C2([H])C3(C([H])([H])[H])C(=O)C([H])([H])C4([H])C(C([H])([H])[H])(C([H])([H])[H])C([H])(O[H])C24C([H])([H])C([H])([H])C(=O)C(C([H])([H])[H])(C([H])([H])[H])C2([H])C([H])([H])C4([H])OC14C23C([H])([H])[H]

$$$$
32:0:0
     RDKit          3D

 61 66  0  0  1  0  0  0  0  0999 V2000
    2.6229   -3.0513    0.8208 C   0  0  0  0  0  0  0  0  0  0  0  0
    3.9880   -3.7107    0.7352 C   0  0  0  0  0  0  0  0  0  0  0  0
    4.4877   -4.7579    1.4146 C   0  0  0  0  0  0  0  0  0  0  0  0
    5.9196   -4.9796    1.1236 C   0  0  2  0  0  0  0  0  0  0  0  0
    6.0754   -4.3511   -0.2579 C   0  0  0  0  0  0  0  0  0  0  0  0
    5.0342   -3.2043   -0.2545 C   0  0  1  0  0  0  0  0  0  0  0  0
    4.5520   -2.8296   -1.6485 C   0  0  0  0  0  0  0  0  0  0  0  0
    3.5845   -1.8447   -2.0061 C   0  0  0  0  0  0  0  0  0  0  0  0
    3.4666   -1.8639   -3.3656 C   0  0  0  0  0  0  0  0  0  0  0  0
    4.3177   -2.7723   -3.9028 O   0  0  0  0  0  0  0  0  0  0  0  0
    4.9698   -3.3388   -2.8520 C   0  0  0  0  0  0  0  0  0  0  0  0
    6.1056   -6.3589    1.3204 O   0  0  0  0  0  0  0  0  0  0  0  0
    5.3552   -6.6070    2.5156 C   0  0  2  0  0  0  0  0  0  0  0  0
    5.3245   -8.1055    2.8389 C   0  0  0  0  0  0  0  0  0  0  0  0
    4.4045   -8.8658    1.8877 C   0  0  1  0  0  0  0  0  0  0  0  0
    4.5692  -10.2517    2.0942 O   0  0  0  0  0  0  0  0  0  0  0  0
    2.9508   -8.3358    2.0041 C   0  0  1  0  0  0  0  0  0  0  0  0
    2.1909   -8.5702    3.3665 C   0  0  2  0  0  0  0  0  0  0  0  0
    1.8361  -10.0648    3.6092 C   0  0  0  0  0  0  0  0  0  0  0  0
    0.4939  -10.3241    2.9231 C   0  0  0  0  0  0  0  0  0  0  0  0
   -0.1490   -8.9557    2.8822 C   0  0  0  0  0  0  0  0  0  0  0  0
   -1.2896   -8.7446    2.4714 O   0  0  0  0  0  0  0  0  0  0  0  0
    0.7843   -7.8909    3.4538 C   0  0  1  0  0  0  0  0  0  0  0  0
    0.3625   -7.6679    4.9281 C   0  0  0  0  0  0  0  0  0  0  0  0
    0.6857   -6.5238    2.7353 C   0  0  0  0  0  0  0  0  0  0  0  0
    1.4918   -6.3882    1.4356 C   0  0  0  0  0  0  0  0  0  0  0  0
    2.9610   -6.8340    1.5753 C   0  0  1  0  0  0  0  0  0  0  0  0
    3.9796   -5.8711    2.3246 C   0  0  2  0  0  0  0  0  0  0  0  0
    3.5183   -5.2715    3.6690 C   0  0  0  0  0  0  0  0  0  0  0  0
    2.7561   -1.9708    0.9015 H   0  0  0  0  0  0  0  0  0  0  0  0
    2.0572   -3.3646    1.6979 H   0  0  0  0  0  0  0  0  0  0  0  0
    2.0475   -3.2468   -0.0843 H   0  0  0  0  0  0  0  0  0  0  0  0
    6.5108   -4.4111    1.8510 H   0  0  0  0  0  0  0  0  0  0  0  0
    7.0883   -4.0385   -0.5027 H   0  0  0  0  0  0  0  0  0  0  0  0
    5.7598   -5.1086   -0.9792 H   0  0  0  0  0  0  0  0  0  0  0  0
    5.4846   -2.3114    0.1824 H   0  0  0  0  0  0  0  0  0  0  0  0
    3.0191   -1.2042   -1.3443 H   0  0  0  0  0  0  0  0  0  0  0  0
    2.8524   -1.3219   -4.0711 H   0  0  0  0  0  0  0  0  0  0  0  0
    5.6922   -4.0903   -3.1298 H   0  0  0  0  0  0  0  0  0  0  0  0
    5.9133   -6.1258    3.3245 H   0  0  0  0  0  0  0  0  0  0  0  0
    6.3383   -8.4945    2.7621 H   0  0  0  0  0  0  0  0  0  0  0  0
    5.0322   -8.2627    3.8784 H   0  0  0  0  0  0  0  0  0  0  0  0
    4.7569   -8.6809    0.8753 H   0  0  0  0  0  0  0  0  0  0  0  0
    4.2367  -10.7844    1.3683 H   0  0  0  0  0  0  0  0  0  0  0  0
    2.3785   -8.8727    1.2473 H   0  0  0  0  0  0  0  0  0  0  0  0
    2.8125   -8.2227    4.1874 H   0  0  0  0  0  0  0  0  0  0  0  0
    2.5848  -10.7805    3.2870 H   0  0  0  0  0  0  0  0  0  0  0  0
    1.7254  -10.2390    4.6825 H   0  0  0  0  0  0  0  0  0  0  0  0
    0.6257  -10.6676    1.9011 H   0  0  0  0  0  0  0  0  0  0  0  0
   -0.1106  -11.0447    3.4700 H   0  0  0  0  0  0  0  0  0  0  0  0
    1.0953   -7.0587    5.4554 H   0  0  0  0  0  0  0  0  0  0  0  0
    0.2565   -8.6039    5.4805 H   0  0  0  0  0  0  0  0  0  0  0  0
   -0.5983   -7.1523    4.9926 H   0  0  0  0  0  0  0  0  0  0  0  0
   -0.3562   -6.3137    2.5098 H   0  0  0  0  0  0  0  0  0  0  0  0
    0.9590   -5.7340    3.4310 H   0  0  0  0  0  0  0  0  0  0  0  0
    1.0093   -6.9958    0.6685 H   0  0  0  0  0  0  0  0  0  0  0  0
    1.4325   -5.3750    1.0611 H   0  0  0  0  0  0  0  0  0  0  0  0
    3.3326   -6.8427    0.5476 H   0  0  0  0  0  0  0  0  0  0  0  0
    3.1787   -6.0320    4.3683 H   0  0  0  0  0  0  0  0  0  0  0  0
    2.7240   -4.5382    3.5380 H   0  0  0  0  0  0  0  0  0  0  0  0
    4.3288   -4.7299    4.1613 H   0  0  0  0  0  0  0  0  0  0  0  0
  1  2  1  0
  1 30  1  0
  1 31  1  0
  1 32  1  0
  2  6  1  0
  2  3  2  0
  3 28  1  0
  3  4  1  0
  4  5  1  0
  4 12  1  0
  4 33  1  1
  5  6  1  0
  5 34  1  0
  5 35  1  0
  6  7  1  0
  6 36  1  1
  7 11  2  0
  7  8  1  0
  8  9  2  0
  8 37  1  0
  9 10  1  0
  9 38  1  0
 10 11  1  0
 11 39  1  0
 12 13  1  0
 13 28  1  0
 13 14  1  0
 13 40  1  1
 14 15  1  0
 14 41  1  0
 14 42  1  0
 15 16  1  0
 15 17  1  0
 15 43  1  6
 16 44  1  0
 17 27  1  0
 17 18  1  0
 17 45  1  6
 18 23  1  0
 18 19  1  0
 18 46  1  1
 19 20  1  0
 19 47  1  0
 19 48  1  0
 20 21  1  0
 20 49  1  0
 20 50  1  0
 21 22  2  0
 21 23  1  0
 23 24  1  1
 23 25  1  0
 24 51  1  0
 24 52  1  0
 24 53  1  0
 25 26  1  0
 25 54  1  0
 25 55  1  0
 26 27  1  0
 26 56  1  0
 26 57  1  0
 27 28  1  0
 27 58  1  6
 28 29  1  1
 29 59  1  0
 29 60  1  0
 29 61  1  0
M  END
>  <i_m_ct_stereo_status>  (103) 
1

>  <s_m_source_file>  (103) 
/var/tmp/pbs.5076255.sched01/tmp8nmo4hef/06hb_edth.sdf

>  <i_m_source_file_index>  (103) 
41

>  <i_lp_mmshare_version>  (103) 
48012

>  <i_f3d_flags>  (103) 
0

>  <s_epik_input>  (103) 
W2NIXTFvW2NIXVtjSF1jMVtDQEBIXShDPTJbQ0gzXSlbQ0gyXVtDQEhdKE9bQ0BASF0zW0NIMl1bQ0BIXTRbT0hdKUMyW0NAQF0zKFtDSDNdKVtDQEhdKFtDSDJdW0NIMl01KVtDQEBIXTRbQ0BASF0oW0NAQF01NltDSDNdKVtDSDJdW0NIMl1DNj1P

>  <s_epik_cmdline>  (103) 
J2VwaWtfcHl0aG9uJywgJy1waHQnLCAnMi4wJywgJy1waCcsICc3LjAnLCAnLXRuJywgJzgnLCAnLW1hJywgJzIwMCcsICctaW1hZScsICc8aW5maWxlLm1hZT4nLCAnLW9tYWUnLCAnPG91dGZpbGUubWFlPic=

>  <r_lp_tautomer_probability>  (103) 
1

>  <r_epik_Ionization_Penalty>  (103) 
4.31315e-07

>  <r_epik_Ionization_Penalty_Charging>  (103) 
0

>  <r_epik_Ionization_Penalty_Neutral>  (103) 
4.31315e-07

>  <r_epik_State_Penalty>  (103) 
-0

>  <r_epik_Charging_Adjusted_Penalty>  (103) 
0

>  <i_epik_Tot_Q>  (103) 
0

>  <i_epik_Tot_abs_Q>  (103) 
0

>  <s_lp_Force_Field>  (103) 
OPLS3e

>  <r_lp_Energy>  (103) 
24.5489

>  <b_lp_Chiralities_Consistent>  (103) 
1

>  <s_lp_Variant>  (103) 
32:0-1

>  <s_i_glide_gridfile>  (103) 
pfpi4k_grid

>  <i_i_glide_lignum>  (103) 
41

>  <i_i_glide_rotatable_bonds>  (103) 
2

>  <r_i_docking_score>  (103) 
-4.01967

>  <r_i_glide_ligand_efficiency>  (103) 
-0.138609

>  <r_i_glide_ligand_efficiency_sa>  (103) 
-0.425852

>  <r_i_glide_ligand_efficiency_ln>  (103) 
-0.920403

>  <r_i_glide_gscore>  (103) 
-4.01967

>  <r_i_glide_lipo>  (103) 
-0.683077

>  <r_i_glide_hbond>  (103) 
-0.278223

>  <r_i_glide_metal>  (103) 
-0

>  <r_i_glide_rewards>  (103) 
-0.705551

>  <r_i_glide_evdw>  (103) 
-34.8162

>  <r_i_glide_ecoul>  (103) 
-4.69683

>  <r_i_glide_erotb>  (103) 
0.124442

>  <r_i_glide_esite>  (103) 
-0.0319277

>  <r_i_glide_emodel>  (103) 
-48.7688

>  <r_i_glide_energy>  (103) 
-39.513

>  <r_i_glide_einternal>  (103) 
1.43072

>  <r_i_glide_intrahb_reward>  (103) 
-0

>  <i_i_glide_confnum>  (103) 
1

>  <i_i_glide_posenum>  (103) 
34

>  <r_i_glide_eff_state_penalty>  (103) 
0

>  <ligand_id>  (103) 
32

>  <original_smiles>  (103) 
CC1=C2C(CC1c1ccoc1)OC1CC(O)C3C4CCC(=O)C4(C)CCC3C21C

>  <smiles>  (103) 
[H]OC1([H])C([H])([H])C2([H])OC3([H])C(=C(C([H])([H])[H])C([H])(c4c([H])oc([H])c4[H])C3([H])[H])C2(C([H])([H])[H])C2([H])C([H])([H])C([H])([H])C3(C([H])([H])[H])C(=O)C([H])([H])C([H])([H])C3([H])C12[H]

$$$$
32:0:1
     RDKit          3D

 61 66  0  0  1  0  0  0  0  0999 V2000
    3.7742   -2.6847    2.0958 C   0  0  0  0  0  0  0  0  0  0  0  0
    4.8620   -3.7035    1.7827 C   0  0  0  0  0  0  0  0  0  0  0  0
    5.0484   -4.9425    2.2554 C   0  0  0  0  0  0  0  0  0  0  0  0
    6.3244   -5.5358    1.7877 C   0  0  2  0  0  0  0  0  0  0  0  0
    6.5957   -4.7696    0.4975 C   0  0  0  0  0  0  0  0  0  0  0  0
    5.9644   -3.3755    0.7775 C   0  0  1  0  0  0  0  0  0  0  0  0
    5.5436   -2.6312   -0.4748 C   0  0  0  0  0  0  0  0  0  0  0  0
    5.1086   -1.2748   -0.5862 C   0  0  0  0  0  0  0  0  0  0  0  0
    4.8393   -1.0541   -1.9068 C   0  0  0  0  0  0  0  0  0  0  0  0
    5.0998   -2.1581   -2.6414 O   0  0  0  0  0  0  0  0  0  0  0  0
    5.5305   -3.0993   -1.7624 C   0  0  0  0  0  0  0  0  0  0  0  0
    6.0761   -6.9194    1.7654 O   0  0  0  0  0  0  0  0  0  0  0  0
    5.3461   -7.1256    2.9797 C   0  0  2  0  0  0  0  0  0  0  0  0
    4.8739   -8.5804    3.0788 C   0  0  0  0  0  0  0  0  0  0  0  0
    3.7200   -8.8545    2.1174 C   0  0  1  0  0  0  0  0  0  0  0  0
    3.3999  -10.2349    2.0915 O   0  0  0  0  0  0  0  0  0  0  0  0
    2.5113   -7.9413    2.4590 C   0  0  1  0  0  0  0  0  0  0  0  0
    1.7774   -8.1737    3.8363 C   0  0  2  0  0  0  0  0  0  0  0  0
    0.9840   -9.5108    3.8751 C   0  0  0  0  0  0  0  0  0  0  0  0
   -0.3905   -9.2345    3.2616 C   0  0  0  0  0  0  0  0  0  0  0  0
   -0.5759   -7.7521    3.5047 C   0  0  0  0  0  0  0  0  0  0  0  0
   -1.6061   -7.1287    3.2412 O   0  0  0  0  0  0  0  0  0  0  0  0
    0.6615   -7.1306    4.1624 C   0  0  1  0  0  0  0  0  0  0  0  0
    0.3929   -7.0518    5.6833 C   0  0  0  0  0  0  0  0  0  0  0  0
    0.9703   -5.6921    3.6882 C   0  0  0  0  0  0  0  0  0  0  0  0
    1.7003   -5.5784    2.3427 C   0  0  0  0  0  0  0  0  0  0  0  0
    2.9573   -6.4601    2.2526 C   0  0  1  0  0  0  0  0  0  0  0  0
    4.2630   -5.9947    3.0354 C   0  0  2  0  0  0  0  0  0  0  0  0
    4.0731   -5.5242    4.4921 C   0  0  0  0  0  0  0  0  0  0  0  0
    4.2398   -1.7247    2.3257 H   0  0  0  0  0  0  0  0  0  0  0  0
    3.1780   -2.9576    2.9683 H   0  0  0  0  0  0  0  0  0  0  0  0
    3.1173   -2.5381    1.2388 H   0  0  0  0  0  0  0  0  0  0  0  0
    7.0933   -5.3041    2.5317 H   0  0  0  0  0  0  0  0  0  0  0  0
    7.6452   -4.7312    0.2080 H   0  0  0  0  0  0  0  0  0  0  0  0
    6.0473   -5.2902   -0.2889 H   0  0  0  0  0  0  0  0  0  0  0  0
    6.6835   -2.7466    1.3023 H   0  0  0  0  0  0  0  0  0  0  0  0
    4.9874   -0.5469    0.1998 H   0  0  0  0  0  0  0  0  0  0  0  0
    4.4813   -0.2013   -2.4661 H   0  0  0  0  0  0  0  0  0  0  0  0
    5.7813   -4.0456   -2.2208 H   0  0  0  0  0  0  0  0  0  0  0  0
    6.0643   -6.9747    3.7901 H   0  0  0  0  0  0  0  0  0  0  0  0
    5.7104   -9.2342    2.8428 H   0  0  0  0  0  0  0  0  0  0  0  0
    4.5918   -8.8190    4.1069 H   0  0  0  0  0  0  0  0  0  0  0  0
    4.0545   -8.6021    1.1110 H   0  0  0  0  0  0  0  0  0  0  0  0
    3.9109  -10.7225    1.4509 H   0  0  0  0  0  0  0  0  0  0  0  0
    1.7639   -8.1501    1.6907 H   0  0  0  0  0  0  0  0  0  0  0  0
    2.5150   -8.1768    4.6384 H   0  0  0  0  0  0  0  0  0  0  0  0
    1.4590  -10.3531    3.3883 H   0  0  0  0  0  0  0  0  0  0  0  0
    0.8585   -9.8241    4.9126 H   0  0  0  0  0  0  0  0  0  0  0  0
   -0.4106   -9.4428    2.1935 H   0  0  0  0  0  0  0  0  0  0  0  0
   -1.1723   -9.8315    3.7204 H   0  0  0  0  0  0  0  0  0  0  0  0
    1.3017   -6.7866    6.2240 H   0  0  0  0  0  0  0  0  0  0  0  0
    0.0291   -7.9929    6.0968 H   0  0  0  0  0  0  0  0  0  0  0  0
   -0.3535   -6.2900    5.9169 H   0  0  0  0  0  0  0  0  0  0  0  0
    0.0432   -5.1350    3.6220 H   0  0  0  0  0  0  0  0  0  0  0  0
    1.5084   -5.1555    4.4653 H   0  0  0  0  0  0  0  0  0  0  0  0
    1.0144   -5.8808    1.5523 H   0  0  0  0  0  0  0  0  0  0  0  0
    1.9259   -4.5407    2.1252 H   0  0  0  0  0  0  0  0  0  0  0  0
    3.2531   -6.4020    1.2005 H   0  0  0  0  0  0  0  0  0  0  0  0
    3.5482   -6.2567    5.0995 H   0  0  0  0  0  0  0  0  0  0  0  0
    3.5433   -4.5752    4.5536 H   0  0  0  0  0  0  0  0  0  0  0  0
    5.0342   -5.3444    4.9777 H   0  0  0  0  0  0  0  0  0  0  0  0
  1  2  1  0
  1 30  1  0
  1 31  1  0
  1 32  1  0
  2  6  1  0
  2  3  2  0
  3 28  1  0
  3  4  1  0
  4  5  1  0
  4 12  1  0
  4 33  1  1
  5  6  1  0
  5 34  1  0
  5 35  1  0
  6  7  1  0
  6 36  1  1
  7 11  2  0
  7  8  1  0
  8  9  2  0
  8 37  1  0
  9 10  1  0
  9 38  1  0
 10 11  1  0
 11 39  1  0
 12 13  1  0
 13 28  1  0
 13 14  1  0
 13 40  1  1
 14 15  1  0
 14 41  1  0
 14 42  1  0
 15 16  1  0
 15 17  1  0
 15 43  1  6
 16 44  1  0
 17 27  1  0
 17 18  1  0
 17 45  1  6
 18 23  1  0
 18 19  1  0
 18 46  1  1
 19 20  1  0
 19 47  1  0
 19 48  1  0
 20 21  1  0
 20 49  1  0
 20 50  1  0
 21 22  2  0
 21 23  1  0
 23 24  1  1
 23 25  1  0
 24 51  1  0
 24 52  1  0
 24 53  1  0
 25 26  1  0
 25 54  1  0
 25 55  1  0
 26 27  1  0
 26 56  1  0
 26 57  1  0
 27 28  1  0
 27 58  1  6
 28 29  1  1
 29 59  1  0
 29 60  1  0
 29 61  1  0
M  END
>  <i_m_ct_stereo_status>  (104) 
1

>  <s_m_source_file>  (104) 
/var/tmp/pbs.5076255.sched01/tmp8nmo4hef/06hb_edth.sdf

>  <i_m_source_file_index>  (104) 
41

>  <i_lp_mmshare_version>  (104) 
48012

>  <i_f3d_flags>  (104) 
0

>  <s_epik_input>  (104) 
W2NIXTFvW2NIXVtjSF1jMVtDQEBIXShDPTJbQ0gzXSlbQ0gyXVtDQEhdKE9bQ0BASF0zW0NIMl1bQ0BIXTRbT0hdKUMyW0NAQF0zKFtDSDNdKVtDQEhdKFtDSDJdW0NIMl01KVtDQEBIXTRbQ0BASF0oW0NAQF01NltDSDNdKVtDSDJdW0NIMl1DNj1P

>  <s_epik_cmdline>  (104) 
J2VwaWtfcHl0aG9uJywgJy1waHQnLCAnMi4wJywgJy1waCcsICc3LjAnLCAnLXRuJywgJzgnLCAnLW1hJywgJzIwMCcsICctaW1hZScsICc8aW5maWxlLm1hZT4nLCAnLW9tYWUnLCAnPG91dGZpbGUubWFlPic=

>  <r_lp_tautomer_probability>  (104) 
1

>  <r_epik_Ionization_Penalty>  (104) 
4.31315e-07

>  <r_epik_Ionization_Penalty_Charging>  (104) 
0

>  <r_epik_Ionization_Penalty_Neutral>  (104) 
4.31315e-07

>  <r_epik_State_Penalty>  (104) 
-0

>  <r_epik_Charging_Adjusted_Penalty>  (104) 
0

>  <i_epik_Tot_Q>  (104) 
0

>  <i_epik_Tot_abs_Q>  (104) 
0

>  <s_lp_Force_Field>  (104) 
OPLS3e

>  <r_lp_Energy>  (104) 
24.5489

>  <b_lp_Chiralities_Consistent>  (104) 
1

>  <s_lp_Variant>  (104) 
32:0-1

>  <s_i_glide_gridfile>  (104) 
pfpi4k_grid

>  <i_i_glide_lignum>  (104) 
41

>  <i_i_glide_rotatable_bonds>  (104) 
2

>  <r_i_docking_score>  (104) 
-3.56464

>  <r_i_glide_ligand_efficiency>  (104) 
-0.122919

>  <r_i_glide_ligand_efficiency_sa>  (104) 
-0.377645

>  <r_i_glide_ligand_efficiency_ln>  (104) 
-0.816213

>  <r_i_glide_gscore>  (104) 
-3.56464

>  <r_i_glide_lipo>  (104) 
-0.391083

>  <r_i_glide_hbond>  (104) 
-0.273183

>  <r_i_glide_metal>  (104) 
-0

>  <r_i_glide_rewards>  (104) 
-0.705551

>  <r_i_glide_evdw>  (104) 
-29.8344

>  <r_i_glide_ecoul>  (104) 
-5.1479

>  <r_i_glide_erotb>  (104) 
0.124442

>  <r_i_glide_esite>  (104) 
-0.055363

>  <r_i_glide_emodel>  (104) 
-42.6565

>  <r_i_glide_energy>  (104) 
-34.9823

>  <r_i_glide_einternal>  (104) 
1.92773

>  <r_i_glide_intrahb_reward>  (104) 
-0

>  <i_i_glide_confnum>  (104) 
1

>  <i_i_glide_posenum>  (104) 
39

>  <r_i_glide_eff_state_penalty>  (104) 
0

>  <ligand_id>  (104) 
32

>  <original_smiles>  (104) 
CC1=C2C(CC1c1ccoc1)OC1CC(O)C3C4CCC(=O)C4(C)CCC3C21C

>  <smiles>  (104) 
[H]OC1([H])C([H])([H])C2([H])OC3([H])C(=C(C([H])([H])[H])C([H])(c4c([H])oc([H])c4[H])C3([H])[H])C2(C([H])([H])[H])C2([H])C([H])([H])C([H])([H])C3(C([H])([H])[H])C(=O)C([H])([H])C([H])([H])C3([H])C12[H]

$$$$
32:0:2
     RDKit          3D

 61 66  0  0  1  0  0  0  0  0999 V2000
    4.5304   -3.3222    2.2011 C   0  0  0  0  0  0  0  0  0  0  0  0
    5.5195   -4.4776    2.1628 C   0  0  0  0  0  0  0  0  0  0  0  0
    5.4735   -5.6801    2.7647 C   0  0  0  0  0  0  0  0  0  0  0  0
    6.7246   -6.4470    2.5686 C   0  0  2  0  0  0  0  0  0  0  0  0
    7.2930   -5.8578    1.2770 C   0  0  0  0  0  0  0  0  0  0  0  0
    6.7984   -4.3886    1.3349 C   0  0  1  0  0  0  0  0  0  0  0  0
    6.6895   -3.7414   -0.0222 C   0  0  0  0  0  0  0  0  0  0  0  0
    5.5687   -3.7410   -0.9085 C   0  0  0  0  0  0  0  0  0  0  0  0
    5.9449   -3.0490   -2.0196 C   0  0  0  0  0  0  0  0  0  0  0  0
    7.2291   -2.6247   -1.9080 O   0  0  0  0  0  0  0  0  0  0  0  0
    7.6670   -3.0569   -0.6964 C   0  0  0  0  0  0  0  0  0  0  0  0
    6.3211   -7.7929    2.6459 O   0  0  0  0  0  0  0  0  0  0  0  0
    5.3888   -7.7805    3.7357 C   0  0  2  0  0  0  0  0  0  0  0  0
    4.7322   -9.1519    3.8999 C   0  0  0  0  0  0  0  0  0  0  0  0
    3.7123   -9.4080    2.8022 C   0  0  1  0  0  0  0  0  0  0  0  0
    3.2706  -10.7421    2.8716 O   0  0  0  0  0  0  0  0  0  0  0  0
    2.5865   -8.3472    2.8194 C   0  0  1  0  0  0  0  0  0  0  0  0
    1.6237   -8.3508    4.0633 C   0  0  2  0  0  0  0  0  0  0  0  0
    0.6769   -9.5877    4.0958 C   0  0  0  0  0  0  0  0  0  0  0  0
   -0.5460   -9.2378    3.2482 C   0  0  0  0  0  0  0  0  0  0  0  0
   -0.5756   -7.7309    3.3061 C   0  0  0  0  0  0  0  0  0  0  0  0
   -1.4836   -7.0598    2.8282 O   0  0  0  0  0  0  0  0  0  0  0  0
    0.6103   -7.1645    4.0901 C   0  0  1  0  0  0  0  0  0  0  0  0
    0.1193   -6.8871    5.5294 C   0  0  0  0  0  0  0  0  0  0  0  0
    1.1513   -5.8280    3.5278 C   0  0  0  0  0  0  0  0  0  0  0  0
    2.1024   -5.9444    2.3295 C   0  0  0  0  0  0  0  0  0  0  0  0
    3.2419   -6.9574    2.5522 C   0  0  1  0  0  0  0  0  0  0  0  0
    4.4536   -6.5427    3.4968 C   0  0  2  0  0  0  0  0  0  0  0  0
    4.0937   -5.8979    4.8515 C   0  0  0  0  0  0  0  0  0  0  0  0
    5.0736   -2.3968    2.4020 H   0  0  0  0  0  0  0  0  0  0  0  0
    3.7803   -3.4331    2.9850 H   0  0  0  0  0  0  0  0  0  0  0  0
    4.0173   -3.1944    1.2492 H   0  0  0  0  0  0  0  0  0  0  0  0
    7.3903   -6.2116    3.4070 H   0  0  0  0  0  0  0  0  0  0  0  0
    8.3721   -5.9623    1.1743 H   0  0  0  0  0  0  0  0  0  0  0  0
    6.8213   -6.3632    0.4345 H   0  0  0  0  0  0  0  0  0  0  0  0
    7.5076   -3.8015    1.9085 H   0  0  0  0  0  0  0  0  0  0  0  0
    4.6070   -4.2015   -0.7521 H   0  0  0  0  0  0  0  0  0  0  0  0
    5.4467   -2.7969   -2.9440 H   0  0  0  0  0  0  0  0  0  0  0  0
    8.6951   -2.7989   -0.4808 H   0  0  0  0  0  0  0  0  0  0  0  0
    5.9824   -7.6167    4.6394 H   0  0  0  0  0  0  0  0  0  0  0  0
    5.5056   -9.9176    3.8609 H   0  0  0  0  0  0  0  0  0  0  0  0
    4.2684   -9.2477    4.8841 H   0  0  0  0  0  0  0  0  0  0  0  0
    4.2284   -9.3315    1.8452 H   0  0  0  0  0  0  0  0  0  0  0  0
    2.8188  -10.8858    3.6881 H   0  0  0  0  0  0  0  0  0  0  0  0
    1.9602   -8.5679    1.9515 H   0  0  0  0  0  0  0  0  0  0  0  0
    2.2194   -8.3384    4.9729 H   0  0  0  0  0  0  0  0  0  0  0  0
    1.1065  -10.5266    3.7706 H   0  0  0  0  0  0  0  0  0  0  0  0
    0.3581   -9.7697    5.1237 H   0  0  0  0  0  0  0  0  0  0  0  0
   -0.4298   -9.5708    2.2176 H   0  0  0  0  0  0  0  0  0  0  0  0
   -1.4539   -9.6801    3.6520 H   0  0  0  0  0  0  0  0  0  0  0  0
    0.9566   -6.6628    6.1891 H   0  0  0  0  0  0  0  0  0  0  0  0
   -0.4121   -7.7379    5.9572 H   0  0  0  0  0  0  0  0  0  0  0  0
   -0.5601   -6.0323    5.5620 H   0  0  0  0  0  0  0  0  0  0  0  0
    0.3203   -5.1936    3.2313 H   0  0  0  0  0  0  0  0  0  0  0  0
    1.6169   -5.2662    4.3317 H   0  0  0  0  0  0  0  0  0  0  0  0
    1.5232   -6.2580    1.4586 H   0  0  0  0  0  0  0  0  0  0  0  0
    2.4867   -4.9662    2.0623 H   0  0  0  0  0  0  0  0  0  0  0  0
    3.7085   -7.0557    1.5671 H   0  0  0  0  0  0  0  0  0  0  0  0
    3.3953   -6.4993    5.4277 H   0  0  0  0  0  0  0  0  0  0  0  0
    3.6772   -4.8996    4.7312 H   0  0  0  0  0  0  0  0  0  0  0  0
    4.9809   -5.7640    5.4741 H   0  0  0  0  0  0  0  0  0  0  0  0
  1  2  1  0
  1 30  1  0
  1 31  1  0
  1 32  1  0
  2  6  1  0
  2  3  2  0
  3 28  1  0
  3  4  1  0
  4  5  1  0
  4 12  1  0
  4 33  1  1
  5  6  1  0
  5 34  1  0
  5 35  1  0
  6  7  1  0
  6 36  1  1
  7 11  2  0
  7  8  1  0
  8  9  2  0
  8 37  1  0
  9 10  1  0
  9 38  1  0
 10 11  1  0
 11 39  1  0
 12 13  1  0
 13 28  1  0
 13 14  1  0
 13 40  1  1
 14 15  1  0
 14 41  1  0
 14 42  1  0
 15 16  1  0
 15 17  1  0
 15 43  1  6
 16 44  1  0
 17 27  1  0
 17 18  1  0
 17 45  1  6
 18 23  1  0
 18 19  1  0
 18 46  1  1
 19 20  1  0
 19 47  1  0
 19 48  1  0
 20 21  1  0
 20 49  1  0
 20 50  1  0
 21 22  2  0
 21 23  1  0
 23 24  1  1
 23 25  1  0
 24 51  1  0
 24 52  1  0
 24 53  1  0
 25 26  1  0
 25 54  1  0
 25 55  1  0
 26 27  1  0
 26 56  1  0
 26 57  1  0
 27 28  1  0
 27 58  1  6
 28 29  1  1
 29 59  1  0
 29 60  1  0
 29 61  1  0
M  END
>  <i_m_ct_stereo_status>  (105) 
1

>  <s_m_source_file>  (105) 
/var/tmp/pbs.5076255.sched01/tmp8nmo4hef/06hb_edth.sdf

>  <i_m_source_file_index>  (105) 
41

>  <i_lp_mmshare_version>  (105) 
48012

>  <i_f3d_flags>  (105) 
0

>  <s_epik_input>  (105) 
W2NIXTFvW2NIXVtjSF1jMVtDQEBIXShDPTJbQ0gzXSlbQ0gyXVtDQEhdKE9bQ0BASF0zW0NIMl1bQ0BIXTRbT0hdKUMyW0NAQF0zKFtDSDNdKVtDQEhdKFtDSDJdW0NIMl01KVtDQEBIXTRbQ0BASF0oW0NAQF01NltDSDNdKVtDSDJdW0NIMl1DNj1P

>  <s_epik_cmdline>  (105) 
J2VwaWtfcHl0aG9uJywgJy1waHQnLCAnMi4wJywgJy1waCcsICc3LjAnLCAnLXRuJywgJzgnLCAnLW1hJywgJzIwMCcsICctaW1hZScsICc8aW5maWxlLm1hZT4nLCAnLW9tYWUnLCAnPG91dGZpbGUubWFlPic=

>  <r_lp_tautomer_probability>  (105) 
1

>  <r_epik_Ionization_Penalty>  (105) 
4.31315e-07

>  <r_epik_Ionization_Penalty_Charging>  (105) 
0

>  <r_epik_Ionization_Penalty_Neutral>  (105) 
4.31315e-07

>  <r_epik_State_Penalty>  (105) 
-0

>  <r_epik_Charging_Adjusted_Penalty>  (105) 
0

>  <i_epik_Tot_Q>  (105) 
0

>  <i_epik_Tot_abs_Q>  (105) 
0

>  <s_lp_Force_Field>  (105) 
OPLS3e

>  <r_lp_Energy>  (105) 
24.5489

>  <b_lp_Chiralities_Consistent>  (105) 
1

>  <s_lp_Variant>  (105) 
32:0-1

>  <s_i_glide_gridfile>  (105) 
pfpi4k_grid

>  <i_i_glide_lignum>  (105) 
41

>  <i_i_glide_rotatable_bonds>  (105) 
2

>  <r_i_docking_score>  (105) 
-3.4035

>  <r_i_glide_ligand_efficiency>  (105) 
-0.117362

>  <r_i_glide_ligand_efficiency_sa>  (105) 
-0.360573

>  <r_i_glide_ligand_efficiency_ln>  (105) 
-0.779315

>  <r_i_glide_gscore>  (105) 
-3.4035

>  <r_i_glide_lipo>  (105) 
-0.611311

>  <r_i_glide_hbond>  (105) 
-0.299907

>  <r_i_glide_metal>  (105) 
-0

>  <r_i_glide_rewards>  (105) 
-0.705551

>  <r_i_glide_evdw>  (105) 
-28.8857

>  <r_i_glide_ecoul>  (105) 
-2.73025

>  <r_i_glide_erotb>  (105) 
0.124442

>  <r_i_glide_esite>  (105) 
-0.0573487

>  <r_i_glide_emodel>  (105) 
-40.1246

>  <r_i_glide_energy>  (105) 
-31.6159

>  <r_i_glide_einternal>  (105) 
0.040426

>  <r_i_glide_intrahb_reward>  (105) 
-0

>  <i_i_glide_confnum>  (105) 
4

>  <i_i_glide_posenum>  (105) 
40

>  <r_i_glide_eff_state_penalty>  (105) 
0

>  <ligand_id>  (105) 
32

>  <original_smiles>  (105) 
CC1=C2C(CC1c1ccoc1)OC1CC(O)C3C4CCC(=O)C4(C)CCC3C21C

>  <smiles>  (105) 
[H]OC1([H])C([H])([H])C2([H])OC3([H])C(=C(C([H])([H])[H])C([H])(c4c([H])oc([H])c4[H])C3([H])[H])C2(C([H])([H])[H])C2([H])C([H])([H])C([H])([H])C3(C([H])([H])[H])C(=O)C([H])([H])C([H])([H])C3([H])C12[H]

$$$$
33:0:0
     RDKit          3D

 46 49  0  0  1  0  0  0  0  0999 V2000
    7.0430  -12.5264    3.4293 C   0  0  0  0  0  0  0  0  0  0  0  0
    6.4055  -11.7476    2.4509 C   0  0  0  0  0  0  0  0  0  0  0  0
    6.5653  -10.3519    2.4869 C   0  0  0  0  0  0  0  0  0  0  0  0
    5.9420   -9.4742    1.4205 C   0  0  0  0  0  0  0  0  0  0  0  0
    4.8471   -8.6402    1.9648 N   0  0  2  0  0  0  0  0  0  0  0  0
    3.5770   -9.3644    2.2278 C   0  0  0  0  0  0  0  0  0  0  0  0
    2.4395   -8.3297    2.0588 C   0  0  1  0  0  0  0  0  0  0  0  0
    1.6983   -8.2241    3.2654 O   0  0  0  0  0  0  0  0  0  0  0  0
    0.5602   -9.0683    3.3287 C   0  0  0  0  0  0  0  0  0  0  0  0
   -0.5594   -8.4548    2.5051 C   0  0  0  0  0  0  0  0  0  0  0  0
   -1.6563   -7.6708    3.1822 C   0  0  0  0  0  0  0  0  0  0  0  0
   -1.9450   -9.0284    2.5967 C   0  0  0  0  0  0  0  0  0  0  0  0
    3.1633   -7.0054    1.7629 C   0  0  2  0  0  0  0  0  0  0  0  0
    2.5456   -6.0891    0.8684 O   0  0  0  0  0  0  0  0  0  0  0  0
    3.3591   -4.9248    0.6559 C   0  0  0  0  0  0  0  0  0  0  0  0
    4.7506   -5.2902    0.0900 C   0  0  0  0  0  0  0  0  0  0  0  0
    5.4378   -6.3496    0.9654 C   0  0  0  0  0  0  0  0  0  0  0  0
    4.4429   -7.5093    1.1103 C   0  0  1  0  0  0  0  0  0  0  0  0
    7.3486   -9.7865    3.5199 C   0  0  0  0  0  0  0  0  0  0  0  0
    7.9450  -10.6587    4.4505 C   0  0  0  0  0  0  0  0  0  0  0  0
    7.8072  -11.9980    4.4089 N   0  0  0  0  0  0  0  0  0  0  0  0
    6.9450  -13.6000    3.4210 H   0  0  0  0  0  0  0  0  0  0  0  0
    5.8160  -12.2225    1.6782 H   0  0  0  0  0  0  0  0  0  0  0  0
    6.7377   -8.8526    1.0169 H   0  0  0  0  0  0  0  0  0  0  0  0
    5.5870  -10.0785    0.5835 H   0  0  0  0  0  0  0  0  0  0  0  0
    3.4220  -10.1439    1.4775 H   0  0  0  0  0  0  0  0  0  0  0  0
    3.5747   -9.8522    3.2035 H   0  0  0  0  0  0  0  0  0  0  0  0
    1.8320   -8.6170    1.2048 H   0  0  0  0  0  0  0  0  0  0  0  0
    0.7862  -10.0778    2.9795 H   0  0  0  0  0  0  0  0  0  0  0  0
    0.2409   -9.1615    4.3688 H   0  0  0  0  0  0  0  0  0  0  0  0
   -0.2732   -8.1227    1.5097 H   0  0  0  0  0  0  0  0  0  0  0  0
   -1.6224   -7.5752    4.2662 H   0  0  0  0  0  0  0  0  0  0  0  0
   -2.0341   -6.8052    2.6440 H   0  0  0  0  0  0  0  0  0  0  0  0
   -2.5340   -9.0588    1.6809 H   0  0  0  0  0  0  0  0  0  0  0  0
   -2.1047   -9.8564    3.2758 H   0  0  0  0  0  0  0  0  0  0  0  0
    3.3895   -6.4983    2.7062 H   0  0  0  0  0  0  0  0  0  0  0  0
    2.8590   -4.2578   -0.0478 H   0  0  0  0  0  0  0  0  0  0  0  0
    3.4837   -4.3650    1.5868 H   0  0  0  0  0  0  0  0  0  0  0  0
    4.6383   -5.6717   -0.9263 H   0  0  0  0  0  0  0  0  0  0  0  0
    5.3920   -4.4048    0.0137 H   0  0  0  0  0  0  0  0  0  0  0  0
    6.3682   -6.6673    0.4915 H   0  0  0  0  0  0  0  0  0  0  0  0
    5.6931   -5.9328    1.9443 H   0  0  0  0  0  0  0  0  0  0  0  0
    4.2150   -7.9074    0.1180 H   0  0  0  0  0  0  0  0  0  0  0  0
    7.5126   -8.7231    3.5937 H   0  0  0  0  0  0  0  0  0  0  0  0
    8.5600  -10.2711    5.2510 H   0  0  0  0  0  0  0  0  0  0  0  0
    5.1354   -8.2473    2.8517 H   0  0  0  0  0  0  0  0  0  0  0  0
  1 21  2  0
  1  2  1  0
  1 22  1  0
  2  3  2  0
  2 23  1  0
  3  4  1  0
  3 19  1  0
  4  5  1  0
  4 24  1  0
  4 25  1  0
  5 18  1  0
  5  6  1  0
  5 46  1  1
  6  7  1  0
  6 26  1  0
  6 27  1  0
  7  8  1  0
  7 13  1  0
  7 28  1  6
  8  9  1  0
  9 10  1  0
  9 29  1  0
  9 30  1  0
 10 12  1  0
 10 11  1  0
 10 31  1  0
 11 12  1  0
 11 32  1  0
 11 33  1  0
 12 34  1  0
 12 35  1  0
 13 18  1  0
 13 14  1  0
 13 36  1  1
 14 15  1  0
 15 16  1  0
 15 37  1  0
 15 38  1  0
 16 17  1  0
 16 39  1  0
 16 40  1  0
 17 18  1  0
 17 41  1  0
 17 42  1  0
 18 43  1  6
 19 20  2  0
 19 44  1  0
 20 21  1  0
 20 45  1  0
M  CHG  1   5   1
M  END
>  <i_m_ct_stereo_status>  (106) 
1

>  <s_m_source_file>  (106) 
/var/tmp/pbs.5076255.sched01/tmp8nmo4hef/06hb_edth.sdf

>  <i_m_source_file_index>  (106) 
42

>  <i_lp_mmshare_version>  (106) 
48012

>  <i_f3d_flags>  (106) 
0

>  <s_epik_input>  (106) 
W2NIXTFbY0hdbltjSF1bY0hdYzFbQ0gyXU4oW0NAQEhdKFtDQEhdMjMpW0NIMl1bQ0gyXVtDSDJdTzMpW0NIMl1bQ0BIXTJPW0NIMl1bQ0hdNFtDSDJdW0NIMl00

>  <s_epik_cmdline>  (106) 
J2VwaWtfcHl0aG9uJywgJy1waHQnLCAnMi4wJywgJy1waCcsICc3LjAnLCAnLXRuJywgJzgnLCAnLW1hJywgJzIwMCcsICctaW1hZScsICc8aW5maWxlLm1hZT4nLCAnLW9tYWUnLCAnPG91dGZpbGUubWFlPic=

>  <r_epik_Ionization_Penalty>  (106) 
0.0396627

>  <r_epik_Ionization_Penalty_Charging>  (106) 
0.0395278

>  <r_epik_Ionization_Penalty_Neutral>  (106) 
0.000134844

>  <r_epik_State_Penalty>  (106) 
0.0332159

>  <r_epik_Charging_Adjusted_Penalty>  (106) 
0.0727437

>  <i_epik_Tot_Q>  (106) 
1

>  <i_epik_Tot_abs_Q>  (106) 
1

>  <s_lp_Force_Field>  (106) 
OPLS3e

>  <r_lp_Energy>  (106) 
39.4551

>  <b_lp_Chiralities_Consistent>  (106) 
1

>  <s_lp_Variant>  (106) 
33:0-1

>  <s_i_glide_gridfile>  (106) 
pfpi4k_grid

>  <i_i_glide_lignum>  (106) 
42

>  <i_i_glide_rotatable_bonds>  (106) 
5

>  <r_i_docking_score>  (106) 
-2.52349

>  <r_i_glide_ligand_efficiency>  (106) 
-0.120166

>  <r_i_glide_ligand_efficiency_sa>  (106) 
-0.331529

>  <r_i_glide_ligand_efficiency_ln>  (106) 
-0.623927

>  <r_i_glide_gscore>  (106) 
-2.52349

>  <r_i_glide_lipo>  (106) 
-0.443241

>  <r_i_glide_hbond>  (106) 
0

>  <r_i_glide_metal>  (106) 
-0

>  <r_i_glide_rewards>  (106) 
-1.43596

>  <r_i_glide_evdw>  (106) 
-26.2701

>  <r_i_glide_ecoul>  (106) 
-2.72587

>  <r_i_glide_erotb>  (106) 
1.08708

>  <r_i_glide_esite>  (106) 
-0.00897938

>  <r_i_glide_emodel>  (106) 
-33.3425

>  <r_i_glide_energy>  (106) 
-28.996

>  <r_i_glide_einternal>  (106) 
2.5776

>  <r_i_glide_intrahb_reward>  (106) 
-0

>  <i_i_glide_confnum>  (106) 
4

>  <i_i_glide_posenum>  (106) 
35

>  <r_i_glide_eff_state_penalty>  (106) 
0

>  <ligand_id>  (106) 
33

>  <original_smiles>  (106) 
c1cc(CN2CC(OCC3CC3)C3OCCCC32)ccn1

>  <smiles>  (106) 
[H]c1nc([H])c([H])c(C([H])([H])[N+]2([H])C([H])([H])C([H])(OC([H])([H])C3([H])C([H])([H])C3([H])[H])C3([H])OC([H])([H])C([H])([H])C([H])([H])C32[H])c1[H]

$$$$
33:0:1
     RDKit          3D

 46 49  0  0  1  0  0  0  0  0999 V2000
    7.1160  -10.1070    4.0159 C   0  0  0  0  0  0  0  0  0  0  0  0
    5.7985   -9.6946    4.2924 C   0  0  0  0  0  0  0  0  0  0  0  0
    4.7340  -10.4617    3.7694 C   0  0  0  0  0  0  0  0  0  0  0  0
    3.2902  -10.0761    4.0365 C   0  0  0  0  0  0  0  0  0  0  0  0
    2.7543   -9.1447    3.0104 N   0  0  2  0  0  0  0  0  0  0  0  0
    3.4823   -7.8553    2.8751 C   0  0  0  0  0  0  0  0  0  0  0  0
    2.4536   -6.7980    2.3936 C   0  0  1  0  0  0  0  0  0  0  0  0
    2.8300   -6.2201    1.1525 O   0  0  0  0  0  0  0  0  0  0  0  0
    3.8895   -5.2790    1.2458 C   0  0  0  0  0  0  0  0  0  0  0  0
    3.9666   -4.4993   -0.0503 C   0  0  0  0  0  0  0  0  0  0  0  0
    5.2945   -4.2421   -0.7243 C   0  0  0  0  0  0  0  0  0  0  0  0
    4.5629   -3.1080   -0.0568 C   0  0  0  0  0  0  0  0  0  0  0  0
    1.1531   -7.6012    2.2283 C   0  0  2  0  0  0  0  0  0  0  0  0
   -0.0718   -6.9442    2.5402 O   0  0  0  0  0  0  0  0  0  0  0  0
   -1.1855   -7.8343    2.3801 C   0  0  0  0  0  0  0  0  0  0  0  0
   -1.0647   -9.0790    3.2728 C   0  0  0  0  0  0  0  0  0  0  0  0
    0.2781   -9.7933    3.0669 C   0  0  0  0  0  0  0  0  0  0  0  0
    1.3608   -8.7256    3.2343 C   0  0  1  0  0  0  0  0  0  0  0  0
    5.0447  -11.5920    2.9937 C   0  0  0  0  0  0  0  0  0  0  0  0
    6.3930  -11.9176    2.7776 C   0  0  0  0  0  0  0  0  0  0  0  0
    7.4152  -11.1910    3.2787 N   0  0  0  0  0  0  0  0  0  0  0  0
    7.9543   -9.5470    4.4037 H   0  0  0  0  0  0  0  0  0  0  0  0
    5.6193   -8.8151    4.8902 H   0  0  0  0  0  0  0  0  0  0  0  0
    2.6911  -10.9867    4.0592 H   0  0  0  0  0  0  0  0  0  0  0  0
    3.2095   -9.6438    5.0343 H   0  0  0  0  0  0  0  0  0  0  0  0
    3.8458   -7.5408    3.8557 H   0  0  0  0  0  0  0  0  0  0  0  0
    4.3467   -7.9543    2.2195 H   0  0  0  0  0  0  0  0  0  0  0  0
    2.3258   -6.0305    3.1554 H   0  0  0  0  0  0  0  0  0  0  0  0
    3.6922   -4.5751    2.0526 H   0  0  0  0  0  0  0  0  0  0  0  0
    4.8472   -5.7608    1.4519 H   0  0  0  0  0  0  0  0  0  0  0  0
    3.1034   -4.6359   -0.7007 H   0  0  0  0  0  0  0  0  0  0  0  0
    6.1912   -4.6295   -0.2441 H   0  0  0  0  0  0  0  0  0  0  0  0
    5.3019   -4.2634   -1.8132 H   0  0  0  0  0  0  0  0  0  0  0  0
    4.0917   -2.3689   -0.7033 H   0  0  0  0  0  0  0  0  0  0  0  0
    4.9658   -2.7201    0.8773 H   0  0  0  0  0  0  0  0  0  0  0  0
    1.1067   -8.0079    1.2147 H   0  0  0  0  0  0  0  0  0  0  0  0
   -2.1036   -7.3061    2.6390 H   0  0  0  0  0  0  0  0  0  0  0  0
   -1.2812   -8.1500    1.3358 H   0  0  0  0  0  0  0  0  0  0  0  0
   -1.1699   -8.7949    4.3200 H   0  0  0  0  0  0  0  0  0  0  0  0
   -1.8794   -9.7800    3.0642 H   0  0  0  0  0  0  0  0  0  0  0  0
    0.3908  -10.5984    3.7964 H   0  0  0  0  0  0  0  0  0  0  0  0
    0.3246  -10.2423    2.0714 H   0  0  0  0  0  0  0  0  0  0  0  0
    1.2875   -8.3149    4.2451 H   0  0  0  0  0  0  0  0  0  0  0  0
    4.2676  -12.2056    2.5512 H   0  0  0  0  0  0  0  0  0  0  0  0
    6.6624  -12.7805    2.1891 H   0  0  0  0  0  0  0  0  0  0  0  0
    2.7956   -9.5955    2.1045 H   0  0  0  0  0  0  0  0  0  0  0  0
  1 21  2  0
  1  2  1  0
  1 22  1  0
  2  3  2  0
  2 23  1  0
  3  4  1  0
  3 19  1  0
  4  5  1  0
  4 24  1  0
  4 25  1  0
  5 18  1  0
  5  6  1  0
  5 46  1  6
  6  7  1  0
  6 26  1  0
  6 27  1  0
  7  8  1  0
  7 13  1  0
  7 28  1  1
  8  9  1  0
  9 10  1  0
  9 29  1  0
  9 30  1  0
 10 12  1  0
 10 11  1  0
 10 31  1  0
 11 12  1  0
 11 32  1  0
 11 33  1  0
 12 34  1  0
 12 35  1  0
 13 18  1  0
 13 14  1  0
 13 36  1  6
 14 15  1  0
 15 16  1  0
 15 37  1  0
 15 38  1  0
 16 17  1  0
 16 39  1  0
 16 40  1  0
 17 18  1  0
 17 41  1  0
 17 42  1  0
 18 43  1  1
 19 20  2  0
 19 44  1  0
 20 21  1  0
 20 45  1  0
M  CHG  1   5   1
M  END
>  <i_m_ct_stereo_status>  (107) 
1

>  <s_m_source_file>  (107) 
/var/tmp/pbs.5076255.sched01/tmp8nmo4hef/06hb_edth.sdf

>  <i_m_source_file_index>  (107) 
42

>  <i_lp_mmshare_version>  (107) 
48012

>  <i_f3d_flags>  (107) 
0

>  <s_epik_input>  (107) 
W2NIXTFbY0hdbltjSF1bY0hdYzFbQ0gyXU4oW0NAQEhdKFtDQEhdMjMpW0NIMl1bQ0gyXVtDSDJdTzMpW0NIMl1bQ0BIXTJPW0NIMl1bQ0hdNFtDSDJdW0NIMl00

>  <s_epik_cmdline>  (107) 
J2VwaWtfcHl0aG9uJywgJy1waHQnLCAnMi4wJywgJy1waCcsICc3LjAnLCAnLXRuJywgJzgnLCAnLW1hJywgJzIwMCcsICctaW1hZScsICc8aW5maWxlLm1hZT4nLCAnLW9tYWUnLCAnPG91dGZpbGUubWFlPic=

>  <r_epik_Ionization_Penalty>  (107) 
0.0396627

>  <r_epik_Ionization_Penalty_Charging>  (107) 
0.0395278

>  <r_epik_Ionization_Penalty_Neutral>  (107) 
0.000134844

>  <r_epik_State_Penalty>  (107) 
0.0332159

>  <r_epik_Charging_Adjusted_Penalty>  (107) 
0.0727437

>  <i_epik_Tot_Q>  (107) 
1

>  <i_epik_Tot_abs_Q>  (107) 
1

>  <s_lp_Force_Field>  (107) 
OPLS3e

>  <r_lp_Energy>  (107) 
39.4551

>  <b_lp_Chiralities_Consistent>  (107) 
1

>  <s_lp_Variant>  (107) 
33:0-1

>  <s_i_glide_gridfile>  (107) 
pfpi4k_grid

>  <i_i_glide_lignum>  (107) 
42

>  <i_i_glide_rotatable_bonds>  (107) 
5

>  <r_i_docking_score>  (107) 
-2.38156

>  <r_i_glide_ligand_efficiency>  (107) 
-0.113408

>  <r_i_glide_ligand_efficiency_sa>  (107) 
-0.312883

>  <r_i_glide_ligand_efficiency_ln>  (107) 
-0.588836

>  <r_i_glide_gscore>  (107) 
-2.38156

>  <r_i_glide_lipo>  (107) 
-0.0973172

>  <r_i_glide_hbond>  (107) 
-0.0739145

>  <r_i_glide_metal>  (107) 
-0

>  <r_i_glide_rewards>  (107) 
-1.43596

>  <r_i_glide_evdw>  (107) 
-22.6017

>  <r_i_glide_ecoul>  (107) 
-4.82164

>  <r_i_glide_erotb>  (107) 
1.08708

>  <r_i_glide_esite>  (107) 
-0.00811556

>  <r_i_glide_emodel>  (107) 
-32.0495

>  <r_i_glide_energy>  (107) 
-27.4234

>  <r_i_glide_einternal>  (107) 
1.33899

>  <r_i_glide_intrahb_reward>  (107) 
-0

>  <i_i_glide_confnum>  (107) 
4

>  <i_i_glide_posenum>  (107) 
13

>  <r_i_glide_eff_state_penalty>  (107) 
0

>  <ligand_id>  (107) 
33

>  <original_smiles>  (107) 
c1cc(CN2CC(OCC3CC3)C3OCCCC32)ccn1

>  <smiles>  (107) 
[H]c1nc([H])c([H])c(C([H])([H])[N+]2([H])C([H])([H])C([H])(OC([H])([H])C3([H])C([H])([H])C3([H])[H])C3([H])OC([H])([H])C([H])([H])C([H])([H])C32[H])c1[H]

$$$$
33:0:2
     RDKit          3D

 46 49  0  0  1  0  0  0  0  0999 V2000
    5.8866  -10.5105    2.4967 C   0  0  0  0  0  0  0  0  0  0  0  0
    5.7531   -9.3413    1.7347 C   0  0  0  0  0  0  0  0  0  0  0  0
    6.1641   -8.1073    2.3063 C   0  0  0  0  0  0  0  0  0  0  0  0
    6.0458   -6.8111    1.5313 C   0  0  0  0  0  0  0  0  0  0  0  0
    4.7199   -6.1635    1.6947 N   0  0  2  0  0  0  0  0  0  0  0  0
    3.5382   -6.9856    1.3274 C   0  0  0  0  0  0  0  0  0  0  0  0
    2.4147   -6.0202    0.8719 C   0  0  1  0  0  0  0  0  0  0  0  0
    1.2622   -6.1714    1.6904 O   0  0  0  0  0  0  0  0  0  0  0  0
    0.5618   -7.3939    1.4829 C   0  0  0  0  0  0  0  0  0  0  0  0
   -0.4602   -7.5790    2.5794 C   0  0  0  0  0  0  0  0  0  0  0  0
   -0.3947   -8.7617    3.5199 C   0  0  0  0  0  0  0  0  0  0  0  0
   -1.4894   -8.6817    2.4891 C   0  0  0  0  0  0  0  0  0  0  0  0
    3.0533   -4.6319    1.0643 C   0  0  2  0  0  0  0  0  0  0  0  0
    2.7449   -3.6294    0.1198 O   0  0  0  0  0  0  0  0  0  0  0  0
    3.3998   -2.4006    0.4176 C   0  0  0  0  0  0  0  0  0  0  0  0
    4.9340   -2.5614    0.4002 C   0  0  0  0  0  0  0  0  0  0  0  0
    5.3632   -3.7162    1.3210 C   0  0  0  0  0  0  0  0  0  0  0  0
    4.5298   -4.9307    0.9144 C   0  0  1  0  0  0  0  0  0  0  0  0
    6.6813   -8.1247    3.6201 C   0  0  0  0  0  0  0  0  0  0  0  0
    6.7857   -9.3537    4.2832 C   0  0  0  0  0  0  0  0  0  0  0  0
    6.4014  -10.5309    3.7420 N   0  0  0  0  0  0  0  0  0  0  0  0
    5.5743  -11.4671    2.0950 H   0  0  0  0  0  0  0  0  0  0  0  0
    5.3303   -9.4004    0.7441 H   0  0  0  0  0  0  0  0  0  0  0  0
    6.8473   -6.1401    1.8647 H   0  0  0  0  0  0  0  0  0  0  0  0
    6.2518   -7.0064    0.4794 H   0  0  0  0  0  0  0  0  0  0  0  0
    3.8012   -7.6196    0.4782 H   0  0  0  0  0  0  0  0  0  0  0  0
    3.2645   -7.6485    2.1548 H   0  0  0  0  0  0  0  0  0  0  0  0
    2.1704   -6.2016   -0.1783 H   0  0  0  0  0  0  0  0  0  0  0  0
    0.0608   -7.3608    0.5170 H   0  0  0  0  0  0  0  0  0  0  0  0
    1.2076   -8.2726    1.4685 H   0  0  0  0  0  0  0  0  0  0  0  0
   -0.8272   -6.6490    3.0050 H   0  0  0  0  0  0  0  0  0  0  0  0
    0.3979   -9.4929    3.3643 H   0  0  0  0  0  0  0  0  0  0  0  0
   -0.6756   -8.5975    4.5572 H   0  0  0  0  0  0  0  0  0  0  0  0
   -2.4925   -8.4690    2.8500 H   0  0  0  0  0  0  0  0  0  0  0  0
   -1.4323   -9.3639    1.6433 H   0  0  0  0  0  0  0  0  0  0  0  0
    2.8355   -4.2757    2.0760 H   0  0  0  0  0  0  0  0  0  0  0  0
    3.1037   -1.6720   -0.3327 H   0  0  0  0  0  0  0  0  0  0  0  0
    3.0680   -2.0066    1.3838 H   0  0  0  0  0  0  0  0  0  0  0  0
    5.2569   -2.7679   -0.6221 H   0  0  0  0  0  0  0  0  0  0  0  0
    5.4203   -1.6399    0.7046 H   0  0  0  0  0  0  0  0  0  0  0  0
    6.4335   -3.9092    1.2013 H   0  0  0  0  0  0  0  0  0  0  0  0
    5.1813   -3.4550    2.3679 H   0  0  0  0  0  0  0  0  0  0  0  0
    4.7352   -5.1627   -0.1343 H   0  0  0  0  0  0  0  0  0  0  0  0
    7.0081   -7.2126    4.1056 H   0  0  0  0  0  0  0  0  0  0  0  0
    7.1927   -9.4088    5.2835 H   0  0  0  0  0  0  0  0  0  0  0  0
    4.5707   -5.9236    2.6651 H   0  0  0  0  0  0  0  0  0  0  0  0
  1 21  2  0
  1  2  1  0
  1 22  1  0
  2  3  2  0
  2 23  1  0
  3  4  1  0
  3 19  1  0
  4  5  1  0
  4 24  1  0
  4 25  1  0
  5 18  1  0
  5  6  1  0
  5 46  1  1
  6  7  1  0
  6 26  1  0
  6 27  1  0
  7  8  1  0
  7 13  1  0
  7 28  1  6
  8  9  1  0
  9 10  1  0
  9 29  1  0
  9 30  1  0
 10 12  1  0
 10 11  1  0
 10 31  1  0
 11 12  1  0
 11 32  1  0
 11 33  1  0
 12 34  1  0
 12 35  1  0
 13 18  1  0
 13 14  1  0
 13 36  1  1
 14 15  1  0
 15 16  1  0
 15 37  1  0
 15 38  1  0
 16 17  1  0
 16 39  1  0
 16 40  1  0
 17 18  1  0
 17 41  1  0
 17 42  1  0
 18 43  1  6
 19 20  2  0
 19 44  1  0
 20 21  1  0
 20 45  1  0
M  CHG  1   5   1
M  END
>  <i_m_ct_stereo_status>  (108) 
1

>  <s_m_source_file>  (108) 
/var/tmp/pbs.5076255.sched01/tmp8nmo4hef/06hb_edth.sdf

>  <i_m_source_file_index>  (108) 
42

>  <i_lp_mmshare_version>  (108) 
48012

>  <i_f3d_flags>  (108) 
0

>  <s_epik_input>  (108) 
W2NIXTFbY0hdbltjSF1bY0hdYzFbQ0gyXU4oW0NAQEhdKFtDQEhdMjMpW0NIMl1bQ0gyXVtDSDJdTzMpW0NIMl1bQ0BIXTJPW0NIMl1bQ0hdNFtDSDJdW0NIMl00

>  <s_epik_cmdline>  (108) 
J2VwaWtfcHl0aG9uJywgJy1waHQnLCAnMi4wJywgJy1waCcsICc3LjAnLCAnLXRuJywgJzgnLCAnLW1hJywgJzIwMCcsICctaW1hZScsICc8aW5maWxlLm1hZT4nLCAnLW9tYWUnLCAnPG91dGZpbGUubWFlPic=

>  <r_epik_Ionization_Penalty>  (108) 
0.0396627

>  <r_epik_Ionization_Penalty_Charging>  (108) 
0.0395278

>  <r_epik_Ionization_Penalty_Neutral>  (108) 
0.000134844

>  <r_epik_State_Penalty>  (108) 
0.0332159

>  <r_epik_Charging_Adjusted_Penalty>  (108) 
0.0727437

>  <i_epik_Tot_Q>  (108) 
1

>  <i_epik_Tot_abs_Q>  (108) 
1

>  <s_lp_Force_Field>  (108) 
OPLS3e

>  <r_lp_Energy>  (108) 
39.4551

>  <b_lp_Chiralities_Consistent>  (108) 
1

>  <s_lp_Variant>  (108) 
33:0-1

>  <s_i_glide_gridfile>  (108) 
pfpi4k_grid

>  <i_i_glide_lignum>  (108) 
42

>  <i_i_glide_rotatable_bonds>  (108) 
5

>  <r_i_docking_score>  (108) 
-2.37666

>  <r_i_glide_ligand_efficiency>  (108) 
-0.113174

>  <r_i_glide_ligand_efficiency_sa>  (108) 
-0.312239

>  <r_i_glide_ligand_efficiency_ln>  (108) 
-0.587623

>  <r_i_glide_gscore>  (108) 
-2.37666

>  <r_i_glide_lipo>  (108) 
-0.428208

>  <r_i_glide_hbond>  (108) 
-0.0699316

>  <r_i_glide_metal>  (108) 
-0

>  <r_i_glide_rewards>  (108) 
-1.43596

>  <r_i_glide_evdw>  (108) 
-24.1508

>  <r_i_glide_ecoul>  (108) 
-2.14732

>  <r_i_glide_erotb>  (108) 
1.08708

>  <r_i_glide_esite>  (108) 
0

>  <r_i_glide_emodel>  (108) 
-31.0474

>  <r_i_glide_energy>  (108) 
-26.2981

>  <r_i_glide_einternal>  (108) 
0.979575

>  <r_i_glide_intrahb_reward>  (108) 
-0

>  <i_i_glide_confnum>  (108) 
4

>  <i_i_glide_posenum>  (108) 
34

>  <r_i_glide_eff_state_penalty>  (108) 
0

>  <ligand_id>  (108) 
33

>  <original_smiles>  (108) 
c1cc(CN2CC(OCC3CC3)C3OCCCC32)ccn1

>  <smiles>  (108) 
[H]c1nc([H])c([H])c(C([H])([H])[N+]2([H])C([H])([H])C([H])(OC([H])([H])C3([H])C([H])([H])C3([H])[H])C3([H])OC([H])([H])C([H])([H])C([H])([H])C32[H])c1[H]

$$$$
33:1:0
     RDKit          3D

 45 48  0  0  1  0  0  0  0  0999 V2000
   -0.4977    4.7448    3.6726 C   0  0  0  0  0  0  0  0  0  0  0  0
    0.2756    3.5900    3.9527 C   0  0  0  0  0  0  0  0  0  0  0  0
   -0.3382    2.3416    3.7722 C   0  0  0  0  0  0  0  0  0  0  0  0
    0.4537    1.0703    4.0207 C   0  0  0  0  0  0  0  0  0  0  0  0
   -0.0326    0.3635    5.1977 N   0  0  0  0  0  0  0  0  0  0  0  0
    0.3002    1.0837    6.4302 C   0  0  0  0  0  0  0  0  0  0  0  0
    0.4493    0.0532    7.5242 C   0  0  1  0  0  0  0  0  0  0  0  0
   -0.5378    0.2367    8.5069 O   0  0  0  0  0  0  0  0  0  0  0  0
   -0.2265    1.1894    9.5138 C   0  0  0  0  0  0  0  0  0  0  0  0
    0.7723    0.6295   10.5294 C   0  0  0  0  0  0  0  0  0  0  0  0
    1.8078   -0.4430   10.2026 C   0  0  0  0  0  0  0  0  0  0  0  0
    0.6089   -0.7876   11.0228 C   0  0  0  0  0  0  0  0  0  0  0  0
    0.1985   -1.2983    6.8127 C   0  0  2  0  0  0  0  0  0  0  0  0
    0.9153   -2.4818    7.2221 O   0  0  0  0  0  0  0  0  0  0  0  0
    0.5630   -3.6343    6.4113 C   0  0  0  0  0  0  0  0  0  0  0  0
    0.8292   -3.3650    4.9070 C   0  0  0  0  0  0  0  0  0  0  0  0
    0.1621   -2.0664    4.4549 C   0  0  0  0  0  0  0  0  0  0  0  0
    0.5925   -0.9315    5.3779 C   0  0  1  0  0  0  0  0  0  0  0  0
   -1.6747    2.2832    3.3664 C   0  0  0  0  0  0  0  0  0  0  0  0
   -2.3633    3.4907    3.1236 C   0  0  0  0  0  0  0  0  0  0  0  0
   -1.7743    4.6994    3.2842 N   0  0  0  0  0  0  0  0  0  0  0  0
   -0.0545    5.7206    3.7874 H   0  0  0  0  0  0  0  0  0  0  0  0
    1.2968    3.6782    4.2544 H   0  0  0  0  0  0  0  0  0  0  0  0
    0.3658    0.4202    3.1461 H   0  0  0  0  0  0  0  0  0  0  0  0
    1.5181    1.3175    4.1326 H   0  0  0  0  0  0  0  0  0  0  0  0
    1.2683    1.5805    6.3207 H   0  0  0  0  0  0  0  0  0  0  0  0
   -0.4226    1.8722    6.6569 H   0  0  0  0  0  0  0  0  0  0  0  0
    1.4737    0.1794    7.8280 H   0  0  0  0  0  0  0  0  0  0  0  0
    0.1618    2.1098    9.0672 H   0  0  0  0  0  0  0  0  0  0  0  0
   -1.1519    1.4809   10.0358 H   0  0  0  0  0  0  0  0  0  0  0  0
    1.0221    1.3657   11.3082 H   0  0  0  0  0  0  0  0  0  0  0  0
    1.8182   -1.0220    9.2825 H   0  0  0  0  0  0  0  0  0  0  0  0
    2.7645   -0.2843   10.6870 H   0  0  0  0  0  0  0  0  0  0  0  0
    0.8074   -1.0650   12.0609 H   0  0  0  0  0  0  0  0  0  0  0  0
   -0.1673   -1.3794   10.5340 H   0  0  0  0  0  0  0  0  0  0  0  0
   -0.8870   -1.5377    6.8538 H   0  0  0  0  0  0  0  0  0  0  0  0
    1.1479   -4.5136    6.7332 H   0  0  0  0  0  0  0  0  0  0  0  0
   -0.4941   -3.9210    6.5692 H   0  0  0  0  0  0  0  0  0  0  0  0
    1.9041   -3.3152    4.7493 H   0  0  0  0  0  0  0  0  0  0  0  0
    0.4593   -4.2016    4.3161 H   0  0  0  0  0  0  0  0  0  0  0  0
    0.4423   -1.8408    3.4393 H   0  0  0  0  0  0  0  0  0  0  0  0
   -0.9207   -2.1649    4.4970 H   0  0  0  0  0  0  0  0  0  0  0  0
    1.6857   -0.8429    5.3645 H   0  0  0  0  0  0  0  0  0  0  0  0
   -2.1662    1.3380    3.2305 H   0  0  0  0  0  0  0  0  0  0  0  0
   -3.3866    3.4844    2.8045 H   0  0  0  0  0  0  0  0  0  0  0  0
  1 21  2  0
  1  2  1  0
  1 22  1  0
  2  3  2  0
  2 23  1  0
  3  4  1  0
  3 19  1  0
  4  5  1  0
  4 24  1  0
  4 25  1  0
  5 18  1  0
  5  6  1  0
  6  7  1  0
  6 26  1  0
  6 27  1  0
  7  8  1  0
  7 13  1  0
  7 28  1  1
  8  9  1  0
  9 10  1  0
  9 29  1  0
  9 30  1  0
 10 12  1  0
 10 11  1  0
 10 31  1  0
 11 12  1  0
 11 32  1  0
 11 33  1  0
 12 34  1  0
 12 35  1  0
 13 18  1  0
 13 14  1  0
 13 36  1  6
 14 15  1  0
 15 16  1  0
 15 37  1  0
 15 38  1  0
 16 17  1  0
 16 39  1  0
 16 40  1  0
 17 18  1  0
 17 41  1  0
 17 42  1  0
 18 43  1  1
 19 20  2  0
 19 44  1  0
 20 21  1  0
 20 45  1  0
M  END
>  <i_m_ct_stereo_status>  (109) 
1

>  <s_m_source_file>  (109) 
/var/tmp/pbs.5076255.sched01/tmp8nmo4hef/06hb_edth.sdf

>  <i_m_source_file_index>  (109) 
43

>  <i_lp_mmshare_version>  (109) 
48012

>  <i_f3d_flags>  (109) 
0

>  <s_epik_input>  (109) 
W2NIXTFbY0hdbltjSF1bY0hdYzFbQ0gyXU4oW0NAQEhdKFtDQEhdMjMpW0NIMl1bQ0gyXVtDSDJdTzMpW0NIMl1bQ0BIXTJPW0NIMl1bQ0hdNFtDSDJdW0NIMl00

>  <s_epik_cmdline>  (109) 
J2VwaWtfcHl0aG9uJywgJy1waHQnLCAnMi4wJywgJy1waCcsICc3LjAnLCAnLXRuJywgJzgnLCAnLW1hJywgJzIwMCcsICctaW1hZScsICc8aW5maWxlLm1hZT4nLCAnLW9tYWUnLCAnPG91dGZpbGUubWFlPic=

>  <r_epik_Ionization_Penalty>  (109) 
1.6303

>  <r_epik_Ionization_Penalty_Charging>  (109) 
0

>  <r_epik_Ionization_Penalty_Neutral>  (109) 
1.6303

>  <r_epik_State_Penalty>  (109) 
1.72366

>  <r_epik_Charging_Adjusted_Penalty>  (109) 
1.72366

>  <i_epik_Tot_Q>  (109) 
0

>  <i_epik_Tot_abs_Q>  (109) 
0

>  <s_lp_Force_Field>  (109) 
OPLS3e

>  <r_lp_Energy>  (109) 
50.4805

>  <b_lp_Chiralities_Consistent>  (109) 
1

>  <s_lp_Variant>  (109) 
33:0-2

>  <s_i_glide_gridfile>  (109) 
pfpi4k_grid

>  <i_i_glide_lignum>  (109) 
43

>  <i_i_glide_rotatable_bonds>  (109) 
5

>  <r_i_docking_score>  (109) 
-2.25278

>  <r_i_glide_ligand_efficiency>  (109) 
-0.107275

>  <r_i_glide_ligand_efficiency_sa>  (109) 
-0.295964

>  <r_i_glide_ligand_efficiency_ln>  (109) 
-0.556995

>  <r_i_glide_gscore>  (109) 
-2.25278

>  <r_i_glide_lipo>  (109) 
-0.0519098

>  <r_i_glide_hbond>  (109) 
-0.16656

>  <r_i_glide_metal>  (109) 
-0

>  <r_i_glide_rewards>  (109) 
-1.44283

>  <r_i_glide_evdw>  (109) 
-15.2122

>  <r_i_glide_ecoul>  (109) 
-6.16384

>  <r_i_glide_erotb>  (109) 
1.09371

>  <r_i_glide_esite>  (109) 
0

>  <r_i_glide_emodel>  (109) 
-23.2096

>  <r_i_glide_energy>  (109) 
-21.376

>  <r_i_glide_einternal>  (109) 
0.981989

>  <r_i_glide_intrahb_reward>  (109) 
-0

>  <i_i_glide_confnum>  (109) 
6

>  <i_i_glide_posenum>  (109) 
1

>  <r_i_glide_eff_state_penalty>  (109) 
0

>  <ligand_id>  (109) 
33

>  <original_smiles>  (109) 
c1cc(CN2CC(OCC3CC3)C3OCCCC32)ccn1

>  <smiles>  (109) 
[H]c1nc([H])c([H])c(C([H])([H])N2C([H])([H])C([H])(OC([H])([H])C3([H])C([H])([H])C3([H])[H])C3([H])OC([H])([H])C([H])([H])C([H])([H])C23[H])c1[H]

$$$$
33:1:1
     RDKit          3D

 45 48  0  0  1  0  0  0  0  0999 V2000
   -1.8659    3.8877    3.2701 C   0  0  0  0  0  0  0  0  0  0  0  0
   -1.6859    2.5144    3.0400 C   0  0  0  0  0  0  0  0  0  0  0  0
   -0.9093    1.7826    3.9613 C   0  0  0  0  0  0  0  0  0  0  0  0
   -0.6896    0.2990    3.7589 C   0  0  0  0  0  0  0  0  0  0  0  0
    0.7150   -0.0476    3.5960 N   0  0  0  0  0  0  0  0  0  0  0  0
    1.2585    0.3782    2.3051 C   0  0  0  0  0  0  0  0  0  0  0  0
    2.4151   -0.5774    1.9663 C   0  0  1  0  0  0  0  0  0  0  0  0
    3.6370    0.1392    1.8517 O   0  0  0  0  0  0  0  0  0  0  0  0
    4.7281   -0.6538    1.4059 C   0  0  0  0  0  0  0  0  0  0  0  0
    4.5188   -1.0797   -0.0364 C   0  0  0  0  0  0  0  0  0  0  0  0
    3.8733   -2.4155   -0.3442 C   0  0  0  0  0  0  0  0  0  0  0  0
    5.3332   -2.1990   -0.6413 C   0  0  0  0  0  0  0  0  0  0  0  0
    2.4250   -1.5607    3.1482 C   0  0  2  0  0  0  0  0  0  0  0  0
    2.7119   -2.9271    2.8653 O   0  0  0  0  0  0  0  0  0  0  0  0
    2.7047   -3.7064    4.0695 C   0  0  0  0  0  0  0  0  0  0  0  0
    1.3198   -3.6568    4.7465 C   0  0  0  0  0  0  0  0  0  0  0  0
    0.8597   -2.2021    4.9589 C   0  0  0  0  0  0  0  0  0  0  0  0
    0.9868   -1.4658    3.6222 C   0  0  1  0  0  0  0  0  0  0  0  0
   -0.3571    2.4542    5.0662 C   0  0  0  0  0  0  0  0  0  0  0  0
   -0.6054    3.8347    5.2031 C   0  0  0  0  0  0  0  0  0  0  0  0
   -1.3581    4.5422    4.3326 N   0  0  0  0  0  0  0  0  0  0  0  0
   -2.4393    4.4781    2.5722 H   0  0  0  0  0  0  0  0  0  0  0  0
   -2.1141    2.0369    2.1735 H   0  0  0  0  0  0  0  0  0  0  0  0
   -1.0959   -0.2089    4.6324 H   0  0  0  0  0  0  0  0  0  0  0  0
   -1.2689   -0.0361    2.8988 H   0  0  0  0  0  0  0  0  0  0  0  0
    0.5105    0.2772    1.5126 H   0  0  0  0  0  0  0  0  0  0  0  0
    1.5757    1.4229    2.3227 H   0  0  0  0  0  0  0  0  0  0  0  0
    2.1365   -1.0656    1.0365 H   0  0  0  0  0  0  0  0  0  0  0  0
    5.6375   -0.0527    1.4611 H   0  0  0  0  0  0  0  0  0  0  0  0
    4.8805   -1.5206    2.0531 H   0  0  0  0  0  0  0  0  0  0  0  0
    4.2583   -0.2581   -0.7049 H   0  0  0  0  0  0  0  0  0  0  0  0
    3.6104   -3.0472    0.5031 H   0  0  0  0  0  0  0  0  0  0  0  0
    3.1594   -2.4189   -1.1671 H   0  0  0  0  0  0  0  0  0  0  0  0
    5.6167   -2.1110   -1.6867 H   0  0  0  0  0  0  0  0  0  0  0  0
    6.0599   -2.6924   -0.0005 H   0  0  0  0  0  0  0  0  0  0  0  0
    3.1130   -1.1942    3.9202 H   0  0  0  0  0  0  0  0  0  0  0  0
    2.9457   -4.7366    3.8135 H   0  0  0  0  0  0  0  0  0  0  0  0
    3.4821   -3.3633    4.7632 H   0  0  0  0  0  0  0  0  0  0  0  0
    0.5996   -4.1702    4.1133 H   0  0  0  0  0  0  0  0  0  0  0  0
    1.3378   -4.1803    5.7028 H   0  0  0  0  0  0  0  0  0  0  0  0
   -0.1674   -2.1682    5.3326 H   0  0  0  0  0  0  0  0  0  0  0  0
    1.5029   -1.7117    5.6978 H   0  0  0  0  0  0  0  0  0  0  0  0
    0.3544   -1.9679    2.8916 H   0  0  0  0  0  0  0  0  0  0  0  0
    0.2560    1.9311    5.7886 H   0  0  0  0  0  0  0  0  0  0  0  0
   -0.1907    4.3869    6.0299 H   0  0  0  0  0  0  0  0  0  0  0  0
  1 21  2  0
  1  2  1  0
  1 22  1  0
  2  3  2  0
  2 23  1  0
  3  4  1  0
  3 19  1  0
  4  5  1  0
  4 24  1  0
  4 25  1  0
  5 18  1  0
  5  6  1  0
  6  7  1  0
  6 26  1  0
  6 27  1  0
  7  8  1  0
  7 13  1  0
  7 28  1  6
  8  9  1  0
  9 10  1  0
  9 29  1  0
  9 30  1  0
 10 12  1  0
 10 11  1  0
 10 31  1  0
 11 12  1  0
 11 32  1  0
 11 33  1  0
 12 34  1  0
 12 35  1  0
 13 18  1  0
 13 14  1  0
 13 36  1  1
 14 15  1  0
 15 16  1  0
 15 37  1  0
 15 38  1  0
 16 17  1  0
 16 39  1  0
 16 40  1  0
 17 18  1  0
 17 41  1  0
 17 42  1  0
 18 43  1  6
 19 20  2  0
 19 44  1  0
 20 21  1  0
 20 45  1  0
M  END
>  <i_m_ct_stereo_status>  (110) 
1

>  <s_m_source_file>  (110) 
/var/tmp/pbs.5076255.sched01/tmp8nmo4hef/06hb_edth.sdf

>  <i_m_source_file_index>  (110) 
43

>  <i_lp_mmshare_version>  (110) 
48012

>  <i_f3d_flags>  (110) 
0

>  <s_epik_input>  (110) 
W2NIXTFbY0hdbltjSF1bY0hdYzFbQ0gyXU4oW0NAQEhdKFtDQEhdMjMpW0NIMl1bQ0gyXVtDSDJdTzMpW0NIMl1bQ0BIXTJPW0NIMl1bQ0hdNFtDSDJdW0NIMl00

>  <s_epik_cmdline>  (110) 
J2VwaWtfcHl0aG9uJywgJy1waHQnLCAnMi4wJywgJy1waCcsICc3LjAnLCAnLXRuJywgJzgnLCAnLW1hJywgJzIwMCcsICctaW1hZScsICc8aW5maWxlLm1hZT4nLCAnLW9tYWUnLCAnPG91dGZpbGUubWFlPic=

>  <r_epik_Ionization_Penalty>  (110) 
1.6303

>  <r_epik_Ionization_Penalty_Charging>  (110) 
0

>  <r_epik_Ionization_Penalty_Neutral>  (110) 
1.6303

>  <r_epik_State_Penalty>  (110) 
1.72366

>  <r_epik_Charging_Adjusted_Penalty>  (110) 
1.72366

>  <i_epik_Tot_Q>  (110) 
0

>  <i_epik_Tot_abs_Q>  (110) 
0

>  <s_lp_Force_Field>  (110) 
OPLS3e

>  <r_lp_Energy>  (110) 
50.4805

>  <b_lp_Chiralities_Consistent>  (110) 
1

>  <s_lp_Variant>  (110) 
33:0-2

>  <s_i_glide_gridfile>  (110) 
pfpi4k_grid

>  <i_i_glide_lignum>  (110) 
43

>  <i_i_glide_rotatable_bonds>  (110) 
5

>  <r_i_docking_score>  (110) 
-2.142

>  <r_i_glide_ligand_efficiency>  (110) 
-0.102

>  <r_i_glide_ligand_efficiency_sa>  (110) 
-0.281411

>  <r_i_glide_ligand_efficiency_ln>  (110) 
-0.529606

>  <r_i_glide_gscore>  (110) 
-2.142

>  <r_i_glide_lipo>  (110) 
-0.135419

>  <r_i_glide_hbond>  (110) 
-0.0834674

>  <r_i_glide_metal>  (110) 
-0

>  <r_i_glide_rewards>  (110) 
-1.44283

>  <r_i_glide_evdw>  (110) 
-22.7004

>  <r_i_glide_ecoul>  (110) 
-2.92648

>  <r_i_glide_erotb>  (110) 
1.09371

>  <r_i_glide_esite>  (110) 
0

>  <r_i_glide_emodel>  (110) 
-28.1298

>  <r_i_glide_energy>  (110) 
-25.6269

>  <r_i_glide_einternal>  (110) 
1.40231

>  <r_i_glide_intrahb_reward>  (110) 
-0

>  <i_i_glide_confnum>  (110) 
2

>  <i_i_glide_posenum>  (110) 
32

>  <r_i_glide_eff_state_penalty>  (110) 
0

>  <ligand_id>  (110) 
33

>  <original_smiles>  (110) 
c1cc(CN2CC(OCC3CC3)C3OCCCC32)ccn1

>  <smiles>  (110) 
[H]c1nc([H])c([H])c(C([H])([H])N2C([H])([H])C([H])(OC([H])([H])C3([H])C([H])([H])C3([H])[H])C3([H])OC([H])([H])C([H])([H])C([H])([H])C23[H])c1[H]

$$$$
33:1:2
     RDKit          3D

 45 48  0  0  1  0  0  0  0  0999 V2000
   -1.5735    3.4984    3.3751 C   0  0  0  0  0  0  0  0  0  0  0  0
   -1.3824    2.1064    3.2838 C   0  0  0  0  0  0  0  0  0  0  0  0
   -1.4086    1.3476    4.4729 C   0  0  0  0  0  0  0  0  0  0  0  0
   -1.2258   -0.1530    4.4266 C   0  0  0  0  0  0  0  0  0  0  0  0
    0.0611   -0.5821    4.9559 N   0  0  0  0  0  0  0  0  0  0  0  0
    1.1764   -0.2455    4.0709 C   0  0  0  0  0  0  0  0  0  0  0  0
    2.3015   -1.2806    4.3234 C   0  0  1  0  0  0  0  0  0  0  0  0
    3.4405   -0.6587    4.8816 O   0  0  0  0  0  0  0  0  0  0  0  0
    4.3132   -0.0164    3.9655 C   0  0  0  0  0  0  0  0  0  0  0  0
    5.5086    0.4992    4.7434 C   0  0  0  0  0  0  0  0  0  0  0  0
    5.9631   -0.2043    6.0098 C   0  0  0  0  0  0  0  0  0  0  0  0
    5.3068    1.1485    6.0973 C   0  0  0  0  0  0  0  0  0  0  0  0
    1.6819   -2.2040    5.3864 C   0  0  2  0  0  0  0  0  0  0  0  0
    1.9737   -3.5930    5.3117 O   0  0  0  0  0  0  0  0  0  0  0  0
    1.3320   -4.3155    6.3681 C   0  0  0  0  0  0  0  0  0  0  0  0
   -0.2021   -4.1654    6.2862 C   0  0  0  0  0  0  0  0  0  0  0  0
   -0.6090   -2.6823    6.2352 C   0  0  0  0  0  0  0  0  0  0  0  0
    0.1956   -2.0118    5.1164 C   0  0  1  0  0  0  0  0  0  0  0  0
   -1.6197    2.0120    5.6955 C   0  0  0  0  0  0  0  0  0  0  0  0
   -1.8004    3.4073    5.6733 C   0  0  0  0  0  0  0  0  0  0  0  0
   -1.7852    4.1442    4.5386 N   0  0  0  0  0  0  0  0  0  0  0  0
   -1.5585    4.1070    2.4830 H   0  0  0  0  0  0  0  0  0  0  0  0
   -1.2187    1.6425    2.3251 H   0  0  0  0  0  0  0  0  0  0  0  0
   -2.0375   -0.5996    4.9987 H   0  0  0  0  0  0  0  0  0  0  0  0
   -1.3430   -0.4927    3.4003 H   0  0  0  0  0  0  0  0  0  0  0  0
    0.8820   -0.3149    3.0219 H   0  0  0  0  0  0  0  0  0  0  0  0
    1.5095    0.7764    4.2485 H   0  0  0  0  0  0  0  0  0  0  0  0
    2.5411   -1.8280    3.4124 H   0  0  0  0  0  0  0  0  0  0  0  0
    4.6662   -0.7181    3.2096 H   0  0  0  0  0  0  0  0  0  0  0  0
    3.8293    0.8142    3.4474 H   0  0  0  0  0  0  0  0  0  0  0  0
    6.2939    0.9199    4.1190 H   0  0  0  0  0  0  0  0  0  0  0  0
    5.3973   -1.0763    6.3377 H   0  0  0  0  0  0  0  0  0  0  0  0
    7.0328   -0.2541    6.2017 H   0  0  0  0  0  0  0  0  0  0  0  0
    5.9429    1.9938    6.3514 H   0  0  0  0  0  0  0  0  0  0  0  0
    4.2856    1.2063    6.4731 H   0  0  0  0  0  0  0  0  0  0  0  0
    1.9346   -1.8292    6.3845 H   0  0  0  0  0  0  0  0  0  0  0  0
    1.5898   -5.3703    6.2687 H   0  0  0  0  0  0  0  0  0  0  0  0
    1.6908   -3.9943    7.3532 H   0  0  0  0  0  0  0  0  0  0  0  0
   -0.5600   -4.6712    5.3890 H   0  0  0  0  0  0  0  0  0  0  0  0
   -0.6865   -4.6543    7.1378 H   0  0  0  0  0  0  0  0  0  0  0  0
   -1.6822   -2.5854    6.0655 H   0  0  0  0  0  0  0  0  0  0  0  0
   -0.3699   -2.2016    7.1887 H   0  0  0  0  0  0  0  0  0  0  0  0
   -0.0458   -2.5019    4.1714 H   0  0  0  0  0  0  0  0  0  0  0  0
   -1.6357    1.4743    6.6326 H   0  0  0  0  0  0  0  0  0  0  0  0
   -1.9602    3.9526    6.5893 H   0  0  0  0  0  0  0  0  0  0  0  0
  1 21  2  0
  1  2  1  0
  1 22  1  0
  2  3  2  0
  2 23  1  0
  3  4  1  0
  3 19  1  0
  4  5  1  0
  4 24  1  0
  4 25  1  0
  5 18  1  0
  5  6  1  0
  6  7  1  0
  6 26  1  0
  6 27  1  0
  7  8  1  0
  7 13  1  0
  7 28  1  6
  8  9  1  0
  9 10  1  0
  9 29  1  0
  9 30  1  0
 10 12  1  0
 10 11  1  0
 10 31  1  0
 11 12  1  0
 11 32  1  0
 11 33  1  0
 12 34  1  0
 12 35  1  0
 13 18  1  0
 13 14  1  0
 13 36  1  1
 14 15  1  0
 15 16  1  0
 15 37  1  0
 15 38  1  0
 16 17  1  0
 16 39  1  0
 16 40  1  0
 17 18  1  0
 17 41  1  0
 17 42  1  0
 18 43  1  6
 19 20  2  0
 19 44  1  0
 20 21  1  0
 20 45  1  0
M  END
>  <i_m_ct_stereo_status>  (111) 
1

>  <s_m_source_file>  (111) 
/var/tmp/pbs.5076255.sched01/tmp8nmo4hef/06hb_edth.sdf

>  <i_m_source_file_index>  (111) 
43

>  <i_lp_mmshare_version>  (111) 
48012

>  <i_f3d_flags>  (111) 
0

>  <s_epik_input>  (111) 
W2NIXTFbY0hdbltjSF1bY0hdYzFbQ0gyXU4oW0NAQEhdKFtDQEhdMjMpW0NIMl1bQ0gyXVtDSDJdTzMpW0NIMl1bQ0BIXTJPW0NIMl1bQ0hdNFtDSDJdW0NIMl00

>  <s_epik_cmdline>  (111) 
J2VwaWtfcHl0aG9uJywgJy1waHQnLCAnMi4wJywgJy1waCcsICc3LjAnLCAnLXRuJywgJzgnLCAnLW1hJywgJzIwMCcsICctaW1hZScsICc8aW5maWxlLm1hZT4nLCAnLW9tYWUnLCAnPG91dGZpbGUubWFlPic=

>  <r_epik_Ionization_Penalty>  (111) 
1.6303

>  <r_epik_Ionization_Penalty_Charging>  (111) 
0

>  <r_epik_Ionization_Penalty_Neutral>  (111) 
1.6303

>  <r_epik_State_Penalty>  (111) 
1.72366

>  <r_epik_Charging_Adjusted_Penalty>  (111) 
1.72366

>  <i_epik_Tot_Q>  (111) 
0

>  <i_epik_Tot_abs_Q>  (111) 
0

>  <s_lp_Force_Field>  (111) 
OPLS3e

>  <r_lp_Energy>  (111) 
50.4805

>  <b_lp_Chiralities_Consistent>  (111) 
1

>  <s_lp_Variant>  (111) 
33:0-2

>  <s_i_glide_gridfile>  (111) 
pfpi4k_grid

>  <i_i_glide_lignum>  (111) 
43

>  <i_i_glide_rotatable_bonds>  (111) 
5

>  <r_i_docking_score>  (111) 
-1.92439

>  <r_i_glide_ligand_efficiency>  (111) 
-0.0916376

>  <r_i_glide_ligand_efficiency_sa>  (111) 
-0.252821

>  <r_i_glide_ligand_efficiency_ln>  (111) 
-0.475801

>  <r_i_glide_gscore>  (111) 
-1.92439

>  <r_i_glide_lipo>  (111) 
-0.208651

>  <r_i_glide_hbond>  (111) 
-0.0175696

>  <r_i_glide_metal>  (111) 
-0

>  <r_i_glide_rewards>  (111) 
-1.44283

>  <r_i_glide_evdw>  (111) 
-19.5138

>  <r_i_glide_ecoul>  (111) 
-2.48905

>  <r_i_glide_erotb>  (111) 
1.09371

>  <r_i_glide_esite>  (111) 
0

>  <r_i_glide_emodel>  (111) 
-24.8485

>  <r_i_glide_energy>  (111) 
-22.0028

>  <r_i_glide_einternal>  (111) 
0.196736

>  <r_i_glide_intrahb_reward>  (111) 
-0

>  <i_i_glide_confnum>  (111) 
1

>  <i_i_glide_posenum>  (111) 
18

>  <r_i_glide_eff_state_penalty>  (111) 
0

>  <ligand_id>  (111) 
33

>  <original_smiles>  (111) 
c1cc(CN2CC(OCC3CC3)C3OCCCC32)ccn1

>  <smiles>  (111) 
[H]c1nc([H])c([H])c(C([H])([H])N2C([H])([H])C([H])(OC([H])([H])C3([H])C([H])([H])C3([H])[H])C3([H])OC([H])([H])C([H])([H])C([H])([H])C23[H])c1[H]

$$$$
35:0:0
     RDKit          3D

 56 62  0  0  1  0  0  0  0  0999 V2000
    8.1446   -3.8478    0.8675 C   0  0  0  0  0  0  0  0  0  0  0  0
    6.8466   -4.6134    0.6984 C   0  0  0  0  0  0  0  0  0  0  0  0
    7.1238   -6.0854    0.8912 C   0  0  0  0  0  0  0  0  0  0  0  0
    5.5258   -4.0562    1.2047 C   0  0  1  0  0  0  0  0  0  0  0  0
    5.2535   -2.5900    1.4763 C   0  0  2  0  0  0  0  0  0  0  0  0
    4.1872   -2.0688    2.4305 C   0  0  1  0  0  0  0  0  0  0  0  0
    4.7270   -2.0344    3.8523 C   0  0  0  0  0  0  0  0  0  0  0  0
    4.2223   -2.6526    4.9378 C   0  0  0  0  0  0  0  0  0  0  0  0
    2.9712   -3.4965    5.0580 C   0  0  2  0  0  0  0  0  0  0  0  0
    2.7085   -4.3385    3.9319 O   0  0  0  0  0  0  0  0  0  0  0  0
    1.3447   -4.3484    3.6096 C   0  0  1  0  0  0  0  0  0  0  0  0
    0.7492   -5.6105    4.1735 N   0  0  0  0  0  0  0  0  0  0  0  0
    0.7388   -6.0452    5.4480 C   0  0  0  0  0  0  0  0  0  0  0  0
    0.1033   -7.1942    5.7250 N   0  0  0  0  0  0  0  0  0  0  0  0
   -0.3226   -7.5473    4.4595 C   0  0  0  0  0  0  0  0  0  0  0  0
   -1.0542   -8.6541    4.0055 C   0  0  0  0  0  0  0  0  0  0  0  0
   -1.3508   -8.7859    2.6412 C   0  0  0  0  0  0  0  0  0  0  0  0
   -0.8730   -7.7974    1.7597 C   0  0  0  0  0  0  0  0  0  0  0  0
   -0.1972   -6.6832    2.1221 N   0  0  0  0  0  0  0  0  0  0  0  0
    0.0735   -6.6032    3.4709 C   0  0  0  0  0  0  0  0  0  0  0  0
    0.7418   -3.1351    4.2787 C   0  0  1  0  0  0  0  0  0  0  0  0
    0.5649   -3.1667    5.6965 O   0  0  0  0  0  0  0  0  0  0  0  0
    1.7642   -2.6014    5.1769 C   0  0  1  0  0  0  0  0  0  0  0  0
    3.8173   -0.6890    1.7953 C   0  0  1  0  0  0  0  0  0  0  0  0
    4.0124    0.4182    2.6494 O   0  0  0  0  0  0  0  0  0  0  0  0
    4.5521   -0.5949    0.4262 C   0  0  1  0  0  0  0  0  0  0  0  0
    5.7941    0.0469    0.5642 O   0  0  0  0  0  0  0  0  0  0  0  0
    4.7408   -2.0674    0.1670 C   0  0  1  0  0  0  0  0  0  0  0  0
    5.6489   -2.7494   -0.8200 C   0  0  0  0  0  0  0  0  0  0  0  0
    6.1585   -2.2280   -1.8177 O   0  0  0  0  0  0  0  0  0  0  0  0
    5.8171   -4.1517   -0.2970 C   0  0  1  0  0  0  0  0  0  0  0  0
    4.9957   -5.0630   -0.9314 F   0  0  0  0  0  0  0  0  0  0  0  0
    8.5120   -3.9872    1.8804 H   0  0  0  0  0  0  0  0  0  0  0  0
    7.9901   -2.7903    0.6648 H   0  0  0  0  0  0  0  0  0  0  0  0
    8.8981   -4.2125    0.1694 H   0  0  0  0  0  0  0  0  0  0  0  0
    6.1994   -6.6496    0.7788 H   0  0  0  0  0  0  0  0  0  0  0  0
    7.5247   -6.2780    1.8872 H   0  0  0  0  0  0  0  0  0  0  0  0
    7.8394   -6.4302    0.1458 H   0  0  0  0  0  0  0  0  0  0  0  0
    4.7865   -4.7558    1.5872 H   0  0  0  0  0  0  0  0  0  0  0  0
    6.2024   -2.1228    1.7460 H   0  0  0  0  0  0  0  0  0  0  0  0
    3.2940   -2.6807    2.3801 H   0  0  0  0  0  0  0  0  0  0  0  0
    5.6229   -1.4356    3.9916 H   0  0  0  0  0  0  0  0  0  0  0  0
    4.7457   -2.5152    5.8733 H   0  0  0  0  0  0  0  0  0  0  0  0
    3.0580   -4.1514    5.9204 H   0  0  0  0  0  0  0  0  0  0  0  0
    1.2167   -4.4030    2.5360 H   0  0  0  0  0  0  0  0  0  0  0  0
    1.1867   -5.4918    6.2603 H   0  0  0  0  0  0  0  0  0  0  0  0
   -1.3339   -9.4137    4.7186 H   0  0  0  0  0  0  0  0  0  0  0  0
   -1.8791   -9.6601    2.2981 H   0  0  0  0  0  0  0  0  0  0  0  0
   -1.0457   -7.9203    0.7060 H   0  0  0  0  0  0  0  0  0  0  0  0
    0.0951   -2.4442    3.7371 H   0  0  0  0  0  0  0  0  0  0  0  0
    1.8691   -1.5196    5.2897 H   0  0  0  0  0  0  0  0  0  0  0  0
    2.7502   -0.7085    1.5852 H   0  0  0  0  0  0  0  0  0  0  0  0
    3.8372    1.2176    2.1721 H   0  0  0  0  0  0  0  0  0  0  0  0
    3.9651   -0.1138   -0.3475 H   0  0  0  0  0  0  0  0  0  0  0  0
    5.6674    0.9499    0.2954 H   0  0  0  0  0  0  0  0  0  0  0  0
    3.7536   -2.4806   -0.0382 H   0  0  0  0  0  0  0  0  0  0  0  0
  1  2  1  0
  1 33  1  0
  1 34  1  0
  1 35  1  0
  2 31  1  0
  2  3  1  0
  2  4  1  0
  3 36  1  0
  3 37  1  0
  3 38  1  0
  4 31  1  0
  4  5  1  0
  4 39  1  6
  5 28  1  0
  5  6  1  0
  5 40  1  1
  6  7  1  0
  6 24  1  0
  6 41  1  1
  7  8  2  3
  7 42  1  0
  8  9  1  0
  8 43  1  0
  9 23  1  0
  9 10  1  0
  9 44  1  1
 10 11  1  0
 11 12  1  0
 11 21  1  0
 11 45  1  6
 12 20  1  0
 12 13  1  0
 13 14  2  0
 13 46  1  0
 14 15  1  0
 15 20  2  0
 15 16  1  0
 16 17  2  0
 16 47  1  0
 17 18  1  0
 17 48  1  0
 18 19  2  0
 18 49  1  0
 19 20  1  0
 21 23  1  0
 21 22  1  0
 21 50  1  6
 22 23  1  0
 23 51  1  6
 24 25  1  0
 24 26  1  0
 24 52  1  6
 25 53  1  0
 26 27  1  0
 26 28  1  0
 26 54  1  6
 27 55  1  0
 28 29  1  0
 28 56  1  6
 29 30  2  0
 29 31  1  0
 31 32  1  6
M  END
>  <i_m_ct_stereo_status>  (112) 
1

>  <s_m_source_file>  (112) 
/var/tmp/pbs.5076255.sched01/tmpxnahmhzs/434e81vi2s.sdf

>  <i_m_source_file_index>  (112) 
3

>  <i_lp_mmshare_version>  (112) 
48012

>  <i_f3d_flags>  (112) 
0

>  <s_epik_input>  (112) 
W0NIM11DMShbQ0gzXSlbQ0BIXShDMTJGKVtDQEhdM1tDQEhdKEMyPU8pW0NASF0oW09IXSlbQ0BIXShbT0hdKVtDQEBIXTMvW0NIXT1bQ0hdL1tDQEBIXShbQ0BIXShPNClbQ0BIXTQ1KU9bQ0BIXTVuKFtjSF1uNiljKGM2NyluW2NIXVtjSF1bY0hdNw==

>  <s_epik_cmdline>  (112) 
J2VwaWtfcHl0aG9uJywgJy1waHQnLCAnMi4wJywgJy1waCcsICc3LjAnLCAnLXRuJywgJzgnLCAnLW1hJywgJzIwMCcsICctaW1hZScsICc8aW5maWxlLm1hZT4nLCAnLW9tYWUnLCAnPG91dGZpbGUubWFlPic=

>  <r_lp_tautomer_probability>  (112) 
1

>  <r_epik_Ionization_Penalty>  (112) 
0.000965263

>  <r_epik_Ionization_Penalty_Charging>  (112) 
0.000958924

>  <r_epik_Ionization_Penalty_Neutral>  (112) 
6.339e-06

>  <r_epik_State_Penalty>  (112) 
0.000623328

>  <r_epik_Charging_Adjusted_Penalty>  (112) 
0.00158225

>  <i_epik_Tot_Q>  (112) 
0

>  <i_epik_Tot_abs_Q>  (112) 
0

>  <s_epik_Chemistry_Notes>  (112) 
This compound contains an acetal/aminal-like group ( X-CH(R)-Y where X, Y are N, S, or O) that may be acid/base labile, releasing an aldehyde.

>  <s_lp_Force_Field>  (112) 
OPLS3e

>  <r_lp_Energy>  (112) 
45.2251

>  <b_lp_Chiralities_Consistent>  (112) 
1

>  <s_lp_Variant>  (112) 
35:0-1

>  <s_i_glide_gridfile>  (112) 
pfpi4k_grid

>  <i_i_glide_lignum>  (112) 
3

>  <i_i_glide_rotatable_bonds>  (112) 
5

>  <r_i_docking_score>  (112) 
-3.96246

>  <r_i_glide_ligand_efficiency>  (112) 
-0.123827

>  <r_i_glide_ligand_efficiency_sa>  (112) 
-0.393126

>  <r_i_glide_ligand_efficiency_ln>  (112) 
-0.887303

>  <r_i_glide_gscore>  (112) 
-3.96246

>  <r_i_glide_lipo>  (112) 
-0.715003

>  <r_i_glide_hbond>  (112) 
-0.213958

>  <r_i_glide_metal>  (112) 
-0

>  <r_i_glide_rewards>  (112) 
-0.39919

>  <r_i_glide_evdw>  (112) 
-22.5049

>  <r_i_glide_ecoul>  (112) 
-11.3517

>  <r_i_glide_erotb>  (112) 
0.307499

>  <r_i_glide_esite>  (112) 
-0.113817

>  <r_i_glide_emodel>  (112) 
-40.6339

>  <r_i_glide_energy>  (112) 
-33.8565

>  <r_i_glide_einternal>  (112) 
4.19204

>  <r_i_glide_intrahb_reward>  (112) 
-0

>  <i_i_glide_confnum>  (112) 
2

>  <i_i_glide_posenum>  (112) 
2

>  <r_i_glide_eff_state_penalty>  (112) 
0

>  <ligand_id>  (112) 
35

>  <original_smiles>  (112) 
CC1(C)C2C3C(C=CC4OC(n5cnc6cccnc65)C5OC45)C(O)C(O)C3C(=O)C21F

>  <smiles>  (112) 
[H]OC1([H])C([H])(O[H])C([H])(C([H])=C([H])C2([H])OC([H])(n3c([H])nc4c([H])c([H])c([H])nc43)C3([H])OC23[H])C2([H])C1([H])C(=O)C1(F)C2([H])C1(C([H])([H])[H])C([H])([H])[H]

$$$$
35:0:1
     RDKit          3D

 56 62  0  0  1  0  0  0  0  0999 V2000
    5.6626   -5.7908    3.3495 C   0  0  0  0  0  0  0  0  0  0  0  0
    4.1898   -5.4025    3.3658 C   0  0  0  0  0  0  0  0  0  0  0  0
    3.5640   -5.7885    4.6930 C   0  0  0  0  0  0  0  0  0  0  0  0
    3.6959   -4.1322    2.6831 C   0  0  1  0  0  0  0  0  0  0  0  0
    4.4746   -3.4055    1.5990 C   0  0  2  0  0  0  0  0  0  0  0  0
    4.3379   -1.9190    1.2859 C   0  0  1  0  0  0  0  0  0  0  0  0
    5.2385   -1.0760    2.1819 C   0  0  0  0  0  0  0  0  0  0  0  0
    4.8737   -0.0922    3.0244 C   0  0  0  0  0  0  0  0  0  0  0  0
    3.4796    0.4270    3.3490 C   0  0  2  0  0  0  0  0  0  0  0  0
    2.9680    1.3074    2.3308 O   0  0  0  0  0  0  0  0  0  0  0  0
    2.2930    2.4232    2.8822 C   0  0  1  0  0  0  0  0  0  0  0  0
    0.8207    2.1397    2.9000 N   0  0  0  0  0  0  0  0  0  0  0  0
    0.1130    1.3734    2.0440 C   0  0  0  0  0  0  0  0  0  0  0  0
   -1.2093    1.3050    2.2184 N   0  0  0  0  0  0  0  0  0  0  0  0
   -1.3836    2.1619    3.2886 C   0  0  0  0  0  0  0  0  0  0  0  0
   -2.5432    2.5511    3.9970 C   0  0  0  0  0  0  0  0  0  0  0  0
   -2.4107    3.4223    5.0936 C   0  0  0  0  0  0  0  0  0  0  0  0
   -1.1319    3.9333    5.4100 C   0  0  0  0  0  0  0  0  0  0  0  0
    0.0011    3.6301    4.7383 N   0  0  0  0  0  0  0  0  0  0  0  0
   -0.1463    2.7270    3.7172 C   0  0  0  0  0  0  0  0  0  0  0  0
    2.8040    2.5365    4.2892 C   0  0  1  0  0  0  0  0  0  0  0  0
    2.3087    1.5942    5.2542 O   0  0  0  0  0  0  0  0  0  0  0  0
    3.5382    1.3027    4.5813 C   0  0  1  0  0  0  0  0  0  0  0  0
    4.7105   -1.8905   -0.2475 C   0  0  1  0  0  0  0  0  0  0  0  0
    5.8059   -1.0583   -0.6010 O   0  0  0  0  0  0  0  0  0  0  0  0
    4.8437   -3.3700   -0.7564 C   0  0  1  0  0  0  0  0  0  0  0  0
    6.1803   -3.8368   -0.6959 O   0  0  0  0  0  0  0  0  0  0  0  0
    3.9903   -4.0328    0.3192 C   0  0  1  0  0  0  0  0  0  0  0  0
    3.9061   -5.4926    0.7119 C   0  0  0  0  0  0  0  0  0  0  0  0
    4.2821   -6.4586    0.0504 O   0  0  0  0  0  0  0  0  0  0  0  0
    3.3680   -5.5200    2.1163 C   0  0  1  0  0  0  0  0  0  0  0  0
    2.0362   -5.8919    2.1983 F   0  0  0  0  0  0  0  0  0  0  0  0
    6.2222   -5.1852    4.0629 H   0  0  0  0  0  0  0  0  0  0  0  0
    6.1005   -5.6429    2.3634 H   0  0  0  0  0  0  0  0  0  0  0  0
    5.7807   -6.8465    3.5962 H   0  0  0  0  0  0  0  0  0  0  0  0
    2.5115   -5.5054    4.7108 H   0  0  0  0  0  0  0  0  0  0  0  0
    4.0670   -5.2787    5.5151 H   0  0  0  0  0  0  0  0  0  0  0  0
    3.6278   -6.8661    4.8447 H   0  0  0  0  0  0  0  0  0  0  0  0
    2.8774   -3.5822    3.1447 H   0  0  0  0  0  0  0  0  0  0  0  0
    5.5367   -3.6119    1.7529 H   0  0  0  0  0  0  0  0  0  0  0  0
    3.3063   -1.5936    1.4088 H   0  0  0  0  0  0  0  0  0  0  0  0
    6.2944   -1.3069    2.1200 H   0  0  0  0  0  0  0  0  0  0  0  0
    5.6783    0.3926    3.5607 H   0  0  0  0  0  0  0  0  0  0  0  0
    2.7749   -0.3922    3.5105 H   0  0  0  0  0  0  0  0  0  0  0  0
    2.3938    3.3202    2.2717 H   0  0  0  0  0  0  0  0  0  0  0  0
    0.5900    0.8490    1.2250 H   0  0  0  0  0  0  0  0  0  0  0  0
   -3.4996    2.1521    3.6852 H   0  0  0  0  0  0  0  0  0  0  0  0
   -3.2697    3.7125    5.6749 H   0  0  0  0  0  0  0  0  0  0  0  0
   -1.0119    4.6166    6.2378 H   0  0  0  0  0  0  0  0  0  0  0  0
    3.1666    3.4875    4.6813 H   0  0  0  0  0  0  0  0  0  0  0  0
    4.4481    1.3907    5.1758 H   0  0  0  0  0  0  0  0  0  0  0  0
    3.8490   -1.4586   -0.7578 H   0  0  0  0  0  0  0  0  0  0  0  0
    5.5420   -0.1624   -0.4250 H   0  0  0  0  0  0  0  0  0  0  0  0
    4.4403   -3.5072   -1.7632 H   0  0  0  0  0  0  0  0  0  0  0  0
    6.1770   -4.7540   -0.9404 H   0  0  0  0  0  0  0  0  0  0  0  0
    2.9581   -3.7329    0.1360 H   0  0  0  0  0  0  0  0  0  0  0  0
  1  2  1  0
  1 33  1  0
  1 34  1  0
  1 35  1  0
  2 31  1  0
  2  3  1  0
  2  4  1  0
  3 36  1  0
  3 37  1  0
  3 38  1  0
  4 31  1  0
  4  5  1  0
  4 39  1  1
  5 28  1  0
  5  6  1  0
  5 40  1  1
  6  7  1  0
  6 24  1  0
  6 41  1  6
  7  8  2  3
  7 42  1  0
  8  9  1  0
  8 43  1  0
  9 23  1  0
  9 10  1  0
  9 44  1  1
 10 11  1  0
 11 12  1  0
 11 21  1  0
 11 45  1  6
 12 20  1  0
 12 13  1  0
 13 14  2  0
 13 46  1  0
 14 15  1  0
 15 20  2  0
 15 16  1  0
 16 17  2  0
 16 47  1  0
 17 18  1  0
 17 48  1  0
 18 19  2  0
 18 49  1  0
 19 20  1  0
 21 23  1  0
 21 22  1  0
 21 50  1  1
 22 23  1  0
 23 51  1  1
 24 25  1  0
 24 26  1  0
 24 52  1  6
 25 53  1  0
 26 27  1  0
 26 28  1  0
 26 54  1  6
 27 55  1  0
 28 29  1  0
 28 56  1  6
 29 30  2  0
 29 31  1  0
 31 32  1  1
M  END
>  <i_m_ct_stereo_status>  (113) 
1

>  <s_m_source_file>  (113) 
/var/tmp/pbs.5076255.sched01/tmpxnahmhzs/434e81vi2s.sdf

>  <i_m_source_file_index>  (113) 
3

>  <i_lp_mmshare_version>  (113) 
48012

>  <i_f3d_flags>  (113) 
0

>  <s_epik_input>  (113) 
W0NIM11DMShbQ0gzXSlbQ0BIXShDMTJGKVtDQEhdM1tDQEhdKEMyPU8pW0NASF0oW09IXSlbQ0BIXShbT0hdKVtDQEBIXTMvW0NIXT1bQ0hdL1tDQEBIXShbQ0BIXShPNClbQ0BIXTQ1KU9bQ0BIXTVuKFtjSF1uNiljKGM2NyluW2NIXVtjSF1bY0hdNw==

>  <s_epik_cmdline>  (113) 
J2VwaWtfcHl0aG9uJywgJy1waHQnLCAnMi4wJywgJy1waCcsICc3LjAnLCAnLXRuJywgJzgnLCAnLW1hJywgJzIwMCcsICctaW1hZScsICc8aW5maWxlLm1hZT4nLCAnLW9tYWUnLCAnPG91dGZpbGUubWFlPic=

>  <r_lp_tautomer_probability>  (113) 
1

>  <r_epik_Ionization_Penalty>  (113) 
0.000965263

>  <r_epik_Ionization_Penalty_Charging>  (113) 
0.000958924

>  <r_epik_Ionization_Penalty_Neutral>  (113) 
6.339e-06

>  <r_epik_State_Penalty>  (113) 
0.000623328

>  <r_epik_Charging_Adjusted_Penalty>  (113) 
0.00158225

>  <i_epik_Tot_Q>  (113) 
0

>  <i_epik_Tot_abs_Q>  (113) 
0

>  <s_epik_Chemistry_Notes>  (113) 
This compound contains an acetal/aminal-like group ( X-CH(R)-Y where X, Y are N, S, or O) that may be acid/base labile, releasing an aldehyde.

>  <s_lp_Force_Field>  (113) 
OPLS3e

>  <r_lp_Energy>  (113) 
45.2251

>  <b_lp_Chiralities_Consistent>  (113) 
1

>  <s_lp_Variant>  (113) 
35:0-1

>  <s_i_glide_gridfile>  (113) 
pfpi4k_grid

>  <i_i_glide_lignum>  (113) 
3

>  <i_i_glide_rotatable_bonds>  (113) 
5

>  <r_i_docking_score>  (113) 
-2.87382

>  <r_i_glide_ligand_efficiency>  (113) 
-0.0898067

>  <r_i_glide_ligand_efficiency_sa>  (113) 
-0.285119

>  <r_i_glide_ligand_efficiency_ln>  (113) 
-0.643526

>  <r_i_glide_gscore>  (113) 
-2.87382

>  <r_i_glide_lipo>  (113) 
-0.293171

>  <r_i_glide_hbond>  (113) 
0

>  <r_i_glide_metal>  (113) 
-0

>  <r_i_glide_rewards>  (113) 
-0.437423

>  <r_i_glide_evdw>  (113) 
-30.9034

>  <r_i_glide_ecoul>  (113) 
-4.39641

>  <r_i_glide_erotb>  (113) 
0.307499

>  <r_i_glide_esite>  (113) 
-0.246091

>  <r_i_glide_emodel>  (113) 
-39.5442

>  <r_i_glide_energy>  (113) 
-35.2998

>  <r_i_glide_einternal>  (113) 
4.56735

>  <r_i_glide_intrahb_reward>  (113) 
-0

>  <i_i_glide_confnum>  (113) 
1

>  <i_i_glide_posenum>  (113) 
33

>  <r_i_glide_eff_state_penalty>  (113) 
0

>  <ligand_id>  (113) 
35

>  <original_smiles>  (113) 
CC1(C)C2C3C(C=CC4OC(n5cnc6cccnc65)C5OC45)C(O)C(O)C3C(=O)C21F

>  <smiles>  (113) 
[H]OC1([H])C([H])(O[H])C([H])(C([H])=C([H])C2([H])OC([H])(n3c([H])nc4c([H])c([H])c([H])nc43)C3([H])OC23[H])C2([H])C1([H])C(=O)C1(F)C2([H])C1(C([H])([H])[H])C([H])([H])[H]

$$$$
35:0:2
     RDKit          3D

 56 62  0  0  1  0  0  0  0  0999 V2000
    5.3619   -5.4257    3.3429 C   0  0  0  0  0  0  0  0  0  0  0  0
    3.9157   -4.9637    3.3927 C   0  0  0  0  0  0  0  0  0  0  0  0
    3.2958   -5.3305    4.7258 C   0  0  0  0  0  0  0  0  0  0  0  0
    3.4813   -3.6608    2.7293 C   0  0  1  0  0  0  0  0  0  0  0  0
    4.2694   -2.9645    1.6324 C   0  0  2  0  0  0  0  0  0  0  0  0
    4.2003   -1.4754    1.3297 C   0  0  1  0  0  0  0  0  0  0  0  0
    5.1593   -0.6990    2.2180 C   0  0  0  0  0  0  0  0  0  0  0  0
    4.8534    0.1800    3.1891 C   0  0  0  0  0  0  0  0  0  0  0  0
    3.5018    0.6778    3.6628 C   0  0  2  0  0  0  0  0  0  0  0  0
    2.5614    0.9182    2.6070 O   0  0  0  0  0  0  0  0  0  0  0  0
    1.7777    2.0568    2.8163 C   0  0  1  0  0  0  0  0  0  0  0  0
    0.4274    1.6784    3.3864 N   0  0  0  0  0  0  0  0  0  0  0  0
   -0.6850    2.4427    3.3743 C   0  0  0  0  0  0  0  0  0  0  0  0
   -1.7820    1.9795    3.9958 N   0  0  0  0  0  0  0  0  0  0  0  0
   -1.3320    0.7371    4.4232 C   0  0  0  0  0  0  0  0  0  0  0  0
   -1.9507   -0.3293    5.1244 C   0  0  0  0  0  0  0  0  0  0  0  0
   -1.2079   -1.4852    5.4455 C   0  0  0  0  0  0  0  0  0  0  0  0
    0.1383   -1.5605    5.0348 C   0  0  0  0  0  0  0  0  0  0  0  0
    0.7614   -0.6008    4.3288 N   0  0  0  0  0  0  0  0  0  0  0  0
    0.0293    0.5225    4.0565 C   0  0  0  0  0  0  0  0  0  0  0  0
    2.5321    2.8747    3.8113 C   0  0  1  0  0  0  0  0  0  0  0  0
    2.5013    2.4121    5.1632 O   0  0  0  0  0  0  0  0  0  0  0  0
    3.5968    2.0164    4.3368 C   0  0  1  0  0  0  0  0  0  0  0  0
    4.5378   -1.4597   -0.2068 C   0  0  1  0  0  0  0  0  0  0  0  0
    5.6737   -0.7003   -0.5694 O   0  0  0  0  0  0  0  0  0  0  0  0
    4.5826   -2.9387   -0.7354 C   0  0  1  0  0  0  0  0  0  0  0  0
    5.8971   -3.4716   -0.7188 O   0  0  0  0  0  0  0  0  0  0  0  0
    3.7279   -3.5594    0.3610 C   0  0  1  0  0  0  0  0  0  0  0  0
    3.5683   -5.0117    0.7445 C   0  0  0  0  0  0  0  0  0  0  0  0
    3.8960   -5.9814    0.0768 O   0  0  0  0  0  0  0  0  0  0  0  0
    3.0633   -5.0236    2.1571 C   0  0  1  0  0  0  0  0  0  0  0  0
    1.7181   -5.3441    2.2646 F   0  0  0  0  0  0  0  0  0  0  0  0
    5.9661   -4.8544    4.0476 H   0  0  0  0  0  0  0  0  0  0  0  0
    5.7810   -5.2872    2.3487 H   0  0  0  0  0  0  0  0  0  0  0  0
    5.4300   -6.4889    3.5726 H   0  0  0  0  0  0  0  0  0  0  0  0
    2.2610   -4.9930    4.7620 H   0  0  0  0  0  0  0  0  0  0  0  0
    3.8411   -4.8541    5.5401 H   0  0  0  0  0  0  0  0  0  0  0  0
    3.3078   -6.4118    4.8617 H   0  0  0  0  0  0  0  0  0  0  0  0
    2.6951   -3.0834    3.2033 H   0  0  0  0  0  0  0  0  0  0  0  0
    5.3187   -3.2277    1.7626 H   0  0  0  0  0  0  0  0  0  0  0  0
    3.1833   -1.1201    1.4821 H   0  0  0  0  0  0  0  0  0  0  0  0
    6.2120   -0.8984    2.0615 H   0  0  0  0  0  0  0  0  0  0  0  0
    5.6821    0.5924    3.7433 H   0  0  0  0  0  0  0  0  0  0  0  0
    3.1632   -0.0461    4.3944 H   0  0  0  0  0  0  0  0  0  0  0  0
    1.5474    2.5580    1.8812 H   0  0  0  0  0  0  0  0  0  0  0  0
   -0.7056    3.4199    2.8994 H   0  0  0  0  0  0  0  0  0  0  0  0
   -2.9811   -0.2579    5.3846 H   0  0  0  0  0  0  0  0  0  0  0  0
   -1.6417   -2.3236    5.9706 H   0  0  0  0  0  0  0  0  0  0  0  0
    0.7571   -2.4185    5.2598 H   0  0  0  0  0  0  0  0  0  0  0  0
    2.7584    3.9239    3.6445 H   0  0  0  0  0  0  0  0  0  0  0  0
    4.5541    2.4739    4.5645 H   0  0  0  0  0  0  0  0  0  0  0  0
    3.6900   -0.9712   -0.6878 H   0  0  0  0  0  0  0  0  0  0  0  0
    5.4135    0.2198   -0.5705 H   0  0  0  0  0  0  0  0  0  0  0  0
    4.1503   -3.0284   -1.7373 H   0  0  0  0  0  0  0  0  0  0  0  0
    5.8442   -4.3779   -0.9867 H   0  0  0  0  0  0  0  0  0  0  0  0
    2.7131   -3.1995    0.2023 H   0  0  0  0  0  0  0  0  0  0  0  0
  1  2  1  0
  1 33  1  0
  1 34  1  0
  1 35  1  0
  2 31  1  0
  2  3  1  0
  2  4  1  0
  3 36  1  0
  3 37  1  0
  3 38  1  0
  4 31  1  0
  4  5  1  0
  4 39  1  1
  5 28  1  0
  5  6  1  0
  5 40  1  1
  6  7  1  0
  6 24  1  0
  6 41  1  6
  7  8  2  3
  7 42  1  0
  8  9  1  0
  8 43  1  0
  9 23  1  0
  9 10  1  0
  9 44  1  1
 10 11  1  0
 11 12  1  0
 11 21  1  0
 11 45  1  6
 12 20  1  0
 12 13  1  0
 13 14  2  0
 13 46  1  0
 14 15  1  0
 15 20  2  0
 15 16  1  0
 16 17  2  0
 16 47  1  0
 17 18  1  0
 17 48  1  0
 18 19  2  0
 18 49  1  0
 19 20  1  0
 21 23  1  0
 21 22  1  0
 21 50  1  1
 22 23  1  0
 23 51  1  1
 24 25  1  0
 24 26  1  0
 24 52  1  6
 25 53  1  0
 26 27  1  0
 26 28  1  0
 26 54  1  6
 27 55  1  0
 28 29  1  0
 28 56  1  6
 29 30  2  0
 29 31  1  0
 31 32  1  1
M  END
>  <i_m_ct_stereo_status>  (114) 
1

>  <s_m_source_file>  (114) 
/var/tmp/pbs.5076255.sched01/tmpxnahmhzs/434e81vi2s.sdf

>  <i_m_source_file_index>  (114) 
3

>  <i_lp_mmshare_version>  (114) 
48012

>  <i_f3d_flags>  (114) 
0

>  <s_epik_input>  (114) 
W0NIM11DMShbQ0gzXSlbQ0BIXShDMTJGKVtDQEhdM1tDQEhdKEMyPU8pW0NASF0oW09IXSlbQ0BIXShbT0hdKVtDQEBIXTMvW0NIXT1bQ0hdL1tDQEBIXShbQ0BIXShPNClbQ0BIXTQ1KU9bQ0BIXTVuKFtjSF1uNiljKGM2NyluW2NIXVtjSF1bY0hdNw==

>  <s_epik_cmdline>  (114) 
J2VwaWtfcHl0aG9uJywgJy1waHQnLCAnMi4wJywgJy1waCcsICc3LjAnLCAnLXRuJywgJzgnLCAnLW1hJywgJzIwMCcsICctaW1hZScsICc8aW5maWxlLm1hZT4nLCAnLW9tYWUnLCAnPG91dGZpbGUubWFlPic=

>  <r_lp_tautomer_probability>  (114) 
1

>  <r_epik_Ionization_Penalty>  (114) 
0.000965263

>  <r_epik_Ionization_Penalty_Charging>  (114) 
0.000958924

>  <r_epik_Ionization_Penalty_Neutral>  (114) 
6.339e-06

>  <r_epik_State_Penalty>  (114) 
0.000623328

>  <r_epik_Charging_Adjusted_Penalty>  (114) 
0.00158225

>  <i_epik_Tot_Q>  (114) 
0

>  <i_epik_Tot_abs_Q>  (114) 
0

>  <s_epik_Chemistry_Notes>  (114) 
This compound contains an acetal/aminal-like group ( X-CH(R)-Y where X, Y are N, S, or O) that may be acid/base labile, releasing an aldehyde.

>  <s_lp_Force_Field>  (114) 
OPLS3e

>  <r_lp_Energy>  (114) 
45.2251

>  <b_lp_Chiralities_Consistent>  (114) 
1

>  <s_lp_Variant>  (114) 
35:0-1

>  <s_i_glide_gridfile>  (114) 
pfpi4k_grid

>  <i_i_glide_lignum>  (114) 
3

>  <i_i_glide_rotatable_bonds>  (114) 
5

>  <r_i_docking_score>  (114) 
-2.70992

>  <r_i_glide_ligand_efficiency>  (114) 
-0.0846849

>  <r_i_glide_ligand_efficiency_sa>  (114) 
-0.268858

>  <r_i_glide_ligand_efficiency_ln>  (114) 
-0.606824

>  <r_i_glide_gscore>  (114) 
-2.70992

>  <r_i_glide_lipo>  (114) 
-0.194708

>  <r_i_glide_hbond>  (114) 
0

>  <r_i_glide_metal>  (114) 
-0

>  <r_i_glide_rewards>  (114) 
-0.39919

>  <r_i_glide_evdw>  (114) 
-29.1425

>  <r_i_glide_ecoul>  (114) 
-5.2998

>  <r_i_glide_erotb>  (114) 
0.307499

>  <r_i_glide_esite>  (114) 
-0.171425

>  <r_i_glide_emodel>  (114) 
-38.2823

>  <r_i_glide_energy>  (114) 
-34.4422

>  <r_i_glide_einternal>  (114) 
4.26184

>  <r_i_glide_intrahb_reward>  (114) 
-0

>  <i_i_glide_confnum>  (114) 
1

>  <i_i_glide_posenum>  (114) 
39

>  <r_i_glide_eff_state_penalty>  (114) 
0

>  <ligand_id>  (114) 
35

>  <original_smiles>  (114) 
CC1(C)C2C3C(C=CC4OC(n5cnc6cccnc65)C5OC45)C(O)C(O)C3C(=O)C21F

>  <smiles>  (114) 
[H]OC1([H])C([H])(O[H])C([H])(C([H])=C([H])C2([H])OC([H])(n3c([H])nc4c([H])c([H])c([H])nc43)C3([H])OC23[H])C2([H])C1([H])C(=O)C1(F)C2([H])C1(C([H])([H])[H])C([H])([H])[H]

$$$$
36:0:0
     RDKit          3D

 51 55  0  0  1  0  0  0  0  0999 V2000
    4.7869   -0.8047   -1.9051 C   0  0  0  0  0  0  0  0  0  0  0  0
    3.7088   -1.7116   -2.4484 C   0  0  0  0  0  0  0  0  0  0  0  0
    3.0583   -1.0199   -3.6391 C   0  0  0  0  0  0  0  0  0  0  0  0
    3.9151   -3.2228   -2.5321 C   0  0  1  0  0  0  0  0  0  0  0  0
    5.2190   -3.8855   -2.0873 C   0  0  0  0  0  0  0  0  0  0  0  0
    5.2009   -4.6483   -0.7385 C   0  0  0  0  0  0  0  0  0  0  0  0
    5.2136   -3.8046    0.5511 C   0  0  2  0  0  0  0  0  0  0  0  0
    6.6196   -3.1657    0.6348 C   0  0  0  0  0  0  0  0  0  0  0  0
    4.8560   -4.5703    1.8466 C   0  0  2  0  0  0  0  0  0  0  0  0
    4.3233   -6.0067    1.8604 C   0  0  0  0  0  0  0  0  0  0  0  0
    3.7420   -6.2799    3.2427 C   0  0  2  0  0  0  0  0  0  0  0  0
    2.6827   -7.2758    3.1557 O   0  0  0  0  0  0  0  0  0  0  0  0
    1.7580   -6.3832    3.6148 C   0  0  0  0  0  0  0  0  0  0  0  0
    0.5505   -6.5265    3.8084 O   0  0  0  0  0  0  0  0  0  0  0  0
    2.7768   -5.2406    3.7823 C   0  0  2  0  0  0  0  0  0  0  0  0
    2.5418   -3.9948    2.9049 C   0  0  0  0  0  0  0  0  0  0  0  0
    3.8854   -3.4692    2.3109 C   0  0  1  0  0  0  0  0  0  0  0  0
    4.4589   -2.5861    3.4421 C   0  0  0  0  0  0  0  0  0  0  0  0
    3.9805   -2.8985    0.8419 C   0  0  1  0  0  0  0  0  0  0  0  0
    4.2657   -1.5188    0.8814 O   0  0  0  0  0  0  0  0  0  0  0  0
    2.7518   -2.9679   -0.1149 C   0  0  2  0  0  0  0  0  0  0  0  0
    2.2220   -4.2831   -0.1909 O   0  0  0  0  0  0  0  0  0  0  0  0
    2.8520   -2.6518   -1.6206 C   0  0  1  0  0  0  0  0  0  0  0  0
    5.4087   -0.4513   -2.7198 H   0  0  0  0  0  0  0  0  0  0  0  0
    5.4431   -1.3255   -1.2133 H   0  0  0  0  0  0  0  0  0  0  0  0
    4.3436    0.0659   -1.4264 H   0  0  0  0  0  0  0  0  0  0  0  0
    2.2871   -1.6471   -4.0865 H   0  0  0  0  0  0  0  0  0  0  0  0
    3.7881   -0.7889   -4.4156 H   0  0  0  0  0  0  0  0  0  0  0  0
    2.6060   -0.0853   -3.3195 H   0  0  0  0  0  0  0  0  0  0  0  0
    3.5186   -3.6983   -3.4290 H   0  0  0  0  0  0  0  0  0  0  0  0
    5.4181   -4.6405   -2.8467 H   0  0  0  0  0  0  0  0  0  0  0  0
    6.0555   -3.1947   -2.1815 H   0  0  0  0  0  0  0  0  0  0  0  0
    4.3578   -5.3359   -0.7553 H   0  0  0  0  0  0  0  0  0  0  0  0
    6.0583   -5.3175   -0.7020 H   0  0  0  0  0  0  0  0  0  0  0  0
    6.7259   -2.5050    1.4908 H   0  0  0  0  0  0  0  0  0  0  0  0
    6.8877   -2.5741   -0.2361 H   0  0  0  0  0  0  0  0  0  0  0  0
    7.3933   -3.9278    0.7384 H   0  0  0  0  0  0  0  0  0  0  0  0
    5.7251   -4.5344    2.5057 H   0  0  0  0  0  0  0  0  0  0  0  0
    3.5336   -6.1345    1.1218 H   0  0  0  0  0  0  0  0  0  0  0  0
    5.0958   -6.7332    1.6048 H   0  0  0  0  0  0  0  0  0  0  0  0
    4.4843   -6.5254    4.0042 H   0  0  0  0  0  0  0  0  0  0  0  0
    2.9849   -5.0304    4.8309 H   0  0  0  0  0  0  0  0  0  0  0  0
    1.8287   -4.2566    2.1302 H   0  0  0  0  0  0  0  0  0  0  0  0
    2.0259   -3.2217    3.4769 H   0  0  0  0  0  0  0  0  0  0  0  0
    3.8122   -1.7340    3.6529 H   0  0  0  0  0  0  0  0  0  0  0  0
    5.4397   -2.1819    3.1975 H   0  0  0  0  0  0  0  0  0  0  0  0
    4.5787   -3.1445    4.3711 H   0  0  0  0  0  0  0  0  0  0  0  0
    3.4366   -1.0729    0.7973 H   0  0  0  0  0  0  0  0  0  0  0  0
    1.9681   -2.3493    0.3163 H   0  0  0  0  0  0  0  0  0  0  0  0
    2.7302   -4.7557   -0.8374 H   0  0  0  0  0  0  0  0  0  0  0  0
    1.8441   -2.7092   -2.0337 H   0  0  0  0  0  0  0  0  0  0  0  0
  1  2  1  0
  1 24  1  0
  1 25  1  0
  1 26  1  0
  2 23  1  0
  2  3  1  0
  2  4  1  0
  3 27  1  0
  3 28  1  0
  3 29  1  0
  4 23  1  0
  4  5  1  0
  4 30  1  6
  5  6  1  0
  5 31  1  0
  5 32  1  0
  6  7  1  0
  6 33  1  0
  6 34  1  0
  7 19  1  0
  7  8  1  1
  7  9  1  0
  8 35  1  0
  8 36  1  0
  8 37  1  0
  9 17  1  0
  9 10  1  0
  9 38  1  1
 10 11  1  0
 10 39  1  0
 10 40  1  0
 11 15  1  0
 11 12  1  0
 11 41  1  1
 12 13  1  0
 13 14  2  0
 13 15  1  0
 15 16  1  0
 15 42  1  1
 16 17  1  0
 16 43  1  0
 16 44  1  0
 17 18  1  1
 17 19  1  0
 18 45  1  0
 18 46  1  0
 18 47  1  0
 19 20  1  1
 19 21  1  0
 20 48  1  0
 21 22  1  0
 21 23  1  0
 21 49  1  1
 22 50  1  0
 23 51  1  6
M  END
>  <i_m_ct_stereo_status>  (115) 
1

>  <s_m_source_file>  (115) 
/var/tmp/pbs.5076255.sched01/tmpxnahmhzs/434e81vi2s.sdf

>  <i_m_source_file_index>  (115) 
4

>  <i_lp_mmshare_version>  (115) 
48012

>  <i_f3d_flags>  (115) 
0

>  <s_epik_input>  (115) 
W0NIM11DMShbQ0gzXSlbQ0BASF0oW0NIMl1bQ0gyXTIpW0NASF0xW0NIXShbT0hdKVtDQEBdMyhbT0hdKVtDQF0oW0NIM10pKFtDQEBIXTRbQ0BAXTIzW0NIM10pW0NIMl1bQ0BASF01W0NASF0oW0NIMl00KU9DNT1P

>  <s_epik_cmdline>  (115) 
J2VwaWtfcHl0aG9uJywgJy1waHQnLCAnMi4wJywgJy1waCcsICc3LjAnLCAnLXRuJywgJzgnLCAnLW1hJywgJzIwMCcsICctaW1hZScsICc8aW5maWxlLm1hZT4nLCAnLW9tYWUnLCAnPG91dGZpbGUubWFlPic=

>  <r_lp_tautomer_probability>  (115) 
1

>  <r_epik_Ionization_Penalty>  (115) 
1.28935e-06

>  <r_epik_Ionization_Penalty_Charging>  (115) 
0

>  <r_epik_Ionization_Penalty_Neutral>  (115) 
1.28935e-06

>  <r_epik_State_Penalty>  (115) 
-0

>  <r_epik_Charging_Adjusted_Penalty>  (115) 
0

>  <i_epik_Tot_Q>  (115) 
0

>  <i_epik_Tot_abs_Q>  (115) 
0

>  <s_epik_Chemistry_Notes>  (115) 
This compound has an ester and may undergo hydrolysis at high or low pH.

>  <s_lp_Force_Field>  (115) 
OPLS3e

>  <r_lp_Energy>  (115) 
68.1494

>  <b_lp_Chiralities_Consistent>  (115) 
1

>  <s_lp_Variant>  (115) 
36:0-1

>  <s_i_glide_gridfile>  (115) 
pfpi4k_grid

>  <i_i_glide_lignum>  (115) 
4

>  <i_i_glide_rotatable_bonds>  (115) 
2

>  <r_i_docking_score>  (115) 
-3.34556

>  <r_i_glide_ligand_efficiency>  (115) 
-0.145459

>  <r_i_glide_ligand_efficiency_sa>  (115) 
-0.413667

>  <r_i_glide_ligand_efficiency_ln>  (115) 
-0.808988

>  <r_i_glide_gscore>  (115) 
-3.34556

>  <r_i_glide_lipo>  (115) 
-0.451796

>  <r_i_glide_hbond>  (115) 
-0.159061

>  <r_i_glide_metal>  (115) 
-0

>  <r_i_glide_rewards>  (115) 
-1.22439

>  <r_i_glide_evdw>  (115) 
-17.3986

>  <r_i_glide_ecoul>  (115) 
-4.22058

>  <r_i_glide_erotb>  (115) 
0

>  <r_i_glide_esite>  (115) 
-0.00729902

>  <r_i_glide_emodel>  (115) 
-25.6058

>  <r_i_glide_energy>  (115) 
-21.6192

>  <r_i_glide_einternal>  (115) 
1.26542

>  <r_i_glide_intrahb_reward>  (115) 
-0

>  <i_i_glide_confnum>  (115) 
2

>  <i_i_glide_posenum>  (115) 
22

>  <r_i_glide_eff_state_penalty>  (115) 
0

>  <ligand_id>  (115) 
36

>  <original_smiles>  (115) 
CC1(C)C2CCC3(C)C4CC5OC(=O)C5CC4(C)C3(O)C(O)C21

>  <smiles>  (115) 
[H]OC1([H])C2([H])C([H])(C([H])([H])C([H])([H])C3(C([H])([H])[H])C4([H])C([H])([H])C5([H])OC(=O)C5([H])C([H])([H])C4(C([H])([H])[H])C13O[H])C2(C([H])([H])[H])C([H])([H])[H]

$$$$
36:0:1
     RDKit          3D

 51 55  0  0  1  0  0  0  0  0999 V2000
    0.2961   -9.8493    3.5262 C   0  0  0  0  0  0  0  0  0  0  0  0
   -0.4771   -8.6460    3.0318 C   0  0  0  0  0  0  0  0  0  0  0  0
   -1.9191   -9.0572    2.7784 C   0  0  0  0  0  0  0  0  0  0  0  0
   -0.2084   -7.2449    3.5999 C   0  0  1  0  0  0  0  0  0  0  0  0
    0.8238   -7.0027    4.6943 C   0  0  0  0  0  0  0  0  0  0  0  0
    2.1532   -6.3319    4.2714 C   0  0  0  0  0  0  0  0  0  0  0  0
    3.1768   -7.1974    3.5149 C   0  0  2  0  0  0  0  0  0  0  0  0
    3.7236   -8.2147    4.5443 C   0  0  0  0  0  0  0  0  0  0  0  0
    4.3181   -6.4178    2.8141 C   0  0  2  0  0  0  0  0  0  0  0  0
    4.3583   -4.8928    2.6805 C   0  0  0  0  0  0  0  0  0  0  0  0
    5.4083   -4.5400    1.6388 C   0  0  2  0  0  0  0  0  0  0  0  0
    5.0652   -3.2792    1.0055 O   0  0  0  0  0  0  0  0  0  0  0  0
    4.9565   -3.8874   -0.2166 C   0  0  0  0  0  0  0  0  0  0  0  0
    4.7244   -3.3995   -1.3198 O   0  0  0  0  0  0  0  0  0  0  0  0
    5.3383   -5.2821    0.3232 C   0  0  2  0  0  0  0  0  0  0  0  0
    4.2534   -6.3699    0.2008 C   0  0  0  0  0  0  0  0  0  0  0  0
    4.1634   -7.2186    1.5072 C   0  0  1  0  0  0  0  0  0  0  0  0
    5.2706   -8.2850    1.3077 C   0  0  0  0  0  0  0  0  0  0  0  0
    2.7824   -7.7213    2.0895 C   0  0  1  0  0  0  0  0  0  0  0  0
    2.6865   -9.1096    1.9473 O   0  0  0  0  0  0  0  0  0  0  0  0
    1.4242   -7.2828    1.4474 C   0  0  2  0  0  0  0  0  0  0  0  0
    1.3538   -5.8895    1.2595 O   0  0  0  0  0  0  0  0  0  0  0  0
    0.0877   -7.5348    2.1548 C   0  0  1  0  0  0  0  0  0  0  0  0
   -0.1942  -10.3021    4.3869 H   0  0  0  0  0  0  0  0  0  0  0  0
    1.2871   -9.5679    3.8707 H   0  0  0  0  0  0  0  0  0  0  0  0
    0.3903  -10.5925    2.7326 H   0  0  0  0  0  0  0  0  0  0  0  0
   -2.5181   -8.2058    2.4510 H   0  0  0  0  0  0  0  0  0  0  0  0
   -2.3675   -9.4471    3.6831 H   0  0  0  0  0  0  0  0  0  0  0  0
   -1.9636   -9.8319    2.0153 H   0  0  0  0  0  0  0  0  0  0  0  0
   -1.1069   -6.6521    3.7558 H   0  0  0  0  0  0  0  0  0  0  0  0
    0.3459   -6.3113    5.3884 H   0  0  0  0  0  0  0  0  0  0  0  0
    0.9740   -7.9064    5.2767 H   0  0  0  0  0  0  0  0  0  0  0  0
    1.8934   -5.4416    3.6944 H   0  0  0  0  0  0  0  0  0  0  0  0
    2.6235   -5.9265    5.1736 H   0  0  0  0  0  0  0  0  0  0  0  0
    4.4321   -8.9150    4.1144 H   0  0  0  0  0  0  0  0  0  0  0  0
    2.9518   -8.8170    5.0151 H   0  0  0  0  0  0  0  0  0  0  0  0
    4.2523   -7.7096    5.3552 H   0  0  0  0  0  0  0  0  0  0  0  0
    5.2589   -6.7381    3.2661 H   0  0  0  0  0  0  0  0  0  0  0  0
    3.3938   -4.5167    2.3583 H   0  0  0  0  0  0  0  0  0  0  0  0
    4.5651   -4.4089    3.6374 H   0  0  0  0  0  0  0  0  0  0  0  0
    6.4334   -4.5516    2.0049 H   0  0  0  0  0  0  0  0  0  0  0  0
    6.3315   -5.5909    0.0016 H   0  0  0  0  0  0  0  0  0  0  0  0
    3.3129   -5.8842   -0.0435 H   0  0  0  0  0  0  0  0  0  0  0  0
    4.4396   -6.9921   -0.6763 H   0  0  0  0  0  0  0  0  0  0  0  0
    5.0561   -8.9336    0.4581 H   0  0  0  0  0  0  0  0  0  0  0  0
    5.3938   -8.9352    2.1689 H   0  0  0  0  0  0  0  0  0  0  0  0
    6.2495   -7.8309    1.1336 H   0  0  0  0  0  0  0  0  0  0  0  0
    3.5187   -9.4779    2.2228 H   0  0  0  0  0  0  0  0  0  0  0  0
    1.3395   -7.7397    0.4834 H   0  0  0  0  0  0  0  0  0  0  0  0
    2.2116   -5.5977    0.9683 H   0  0  0  0  0  0  0  0  0  0  0  0
   -0.6782   -7.2010    1.4622 H   0  0  0  0  0  0  0  0  0  0  0  0
  1  2  1  0
  1 24  1  0
  1 25  1  0
  1 26  1  0
  2 23  1  0
  2  3  1  0
  2  4  1  0
  3 27  1  0
  3 28  1  0
  3 29  1  0
  4 23  1  0
  4  5  1  0
  4 30  1  6
  5  6  1  0
  5 31  1  0
  5 32  1  0
  6  7  1  0
  6 33  1  0
  6 34  1  0
  7 19  1  0
  7  8  1  1
  7  9  1  0
  8 35  1  0
  8 36  1  0
  8 37  1  0
  9 17  1  0
  9 10  1  0
  9 38  1  1
 10 11  1  0
 10 39  1  0
 10 40  1  0
 11 15  1  0
 11 12  1  0
 11 41  1  1
 12 13  1  0
 13 14  2  0
 13 15  1  0
 15 16  1  0
 15 42  1  6
 16 17  1  0
 16 43  1  0
 16 44  1  0
 17 18  1  6
 17 19  1  0
 18 45  1  0
 18 46  1  0
 18 47  1  0
 19 20  1  1
 19 21  1  0
 20 48  1  0
 21 22  1  0
 21 23  1  0
 21 49  1  6
 22 50  1  0
 23 51  1  6
M  END
>  <i_m_ct_stereo_status>  (116) 
1

>  <s_m_source_file>  (116) 
/var/tmp/pbs.5076255.sched01/tmpxnahmhzs/434e81vi2s.sdf

>  <i_m_source_file_index>  (116) 
4

>  <i_lp_mmshare_version>  (116) 
48012

>  <i_f3d_flags>  (116) 
0

>  <s_epik_input>  (116) 
W0NIM11DMShbQ0gzXSlbQ0BASF0oW0NIMl1bQ0gyXTIpW0NASF0xW0NIXShbT0hdKVtDQEBdMyhbT0hdKVtDQF0oW0NIM10pKFtDQEBIXTRbQ0BAXTIzW0NIM10pW0NIMl1bQ0BASF01W0NASF0oW0NIMl00KU9DNT1P

>  <s_epik_cmdline>  (116) 
J2VwaWtfcHl0aG9uJywgJy1waHQnLCAnMi4wJywgJy1waCcsICc3LjAnLCAnLXRuJywgJzgnLCAnLW1hJywgJzIwMCcsICctaW1hZScsICc8aW5maWxlLm1hZT4nLCAnLW9tYWUnLCAnPG91dGZpbGUubWFlPic=

>  <r_lp_tautomer_probability>  (116) 
1

>  <r_epik_Ionization_Penalty>  (116) 
1.28935e-06

>  <r_epik_Ionization_Penalty_Charging>  (116) 
0

>  <r_epik_Ionization_Penalty_Neutral>  (116) 
1.28935e-06

>  <r_epik_State_Penalty>  (116) 
-0

>  <r_epik_Charging_Adjusted_Penalty>  (116) 
0

>  <i_epik_Tot_Q>  (116) 
0

>  <i_epik_Tot_abs_Q>  (116) 
0

>  <s_epik_Chemistry_Notes>  (116) 
This compound has an ester and may undergo hydrolysis at high or low pH.

>  <s_lp_Force_Field>  (116) 
OPLS3e

>  <r_lp_Energy>  (116) 
68.1494

>  <b_lp_Chiralities_Consistent>  (116) 
1

>  <s_lp_Variant>  (116) 
36:0-1

>  <s_i_glide_gridfile>  (116) 
pfpi4k_grid

>  <i_i_glide_lignum>  (116) 
4

>  <i_i_glide_rotatable_bonds>  (116) 
2

>  <r_i_docking_score>  (116) 
-3.17962

>  <r_i_glide_ligand_efficiency>  (116) 
-0.138244

>  <r_i_glide_ligand_efficiency_sa>  (116) 
-0.393148

>  <r_i_glide_ligand_efficiency_ln>  (116) 
-0.76886

>  <r_i_glide_gscore>  (116) 
-3.17962

>  <r_i_glide_lipo>  (116) 
-0.414031

>  <r_i_glide_hbond>  (116) 
-0.14817

>  <r_i_glide_metal>  (116) 
-0

>  <r_i_glide_rewards>  (116) 
-1.28627

>  <r_i_glide_evdw>  (116) 
-20.331

>  <r_i_glide_ecoul>  (116) 
-2.09729

>  <r_i_glide_erotb>  (116) 
0

>  <r_i_glide_esite>  (116) 
0

>  <r_i_glide_emodel>  (116) 
-26.6359

>  <r_i_glide_energy>  (116) 
-22.4283

>  <r_i_glide_einternal>  (116) 
0.447694

>  <r_i_glide_intrahb_reward>  (116) 
-0

>  <i_i_glide_confnum>  (116) 
1

>  <i_i_glide_posenum>  (116) 
38

>  <r_i_glide_eff_state_penalty>  (116) 
0

>  <ligand_id>  (116) 
36

>  <original_smiles>  (116) 
CC1(C)C2CCC3(C)C4CC5OC(=O)C5CC4(C)C3(O)C(O)C21

>  <smiles>  (116) 
[H]OC1([H])C2([H])C([H])(C([H])([H])C([H])([H])C3(C([H])([H])[H])C4([H])C([H])([H])C5([H])OC(=O)C5([H])C([H])([H])C4(C([H])([H])[H])C13O[H])C2(C([H])([H])[H])C([H])([H])[H]

$$$$
36:0:2
     RDKit          3D

 51 55  0  0  1  0  0  0  0  0999 V2000
    5.8154   -2.5982   -1.9545 C   0  0  0  0  0  0  0  0  0  0  0  0
    4.6159   -1.6901   -1.7690 C   0  0  0  0  0  0  0  0  0  0  0  0
    4.8267   -0.4680   -2.6454 C   0  0  0  0  0  0  0  0  0  0  0  0
    3.1924   -2.2366   -1.6719 C   0  0  1  0  0  0  0  0  0  0  0  0
    2.9264   -3.7255   -1.7654 C   0  0  0  0  0  0  0  0  0  0  0  0
    2.5615   -4.4563   -0.4655 C   0  0  0  0  0  0  0  0  0  0  0  0
    3.6746   -4.7491    0.5371 C   0  0  2  0  0  0  0  0  0  0  0  0
    4.5591   -5.8425   -0.1140 C   0  0  0  0  0  0  0  0  0  0  0  0
    3.2163   -5.1611    1.9599 C   0  0  2  0  0  0  0  0  0  0  0  0
    1.7764   -5.0831    2.4467 C   0  0  0  0  0  0  0  0  0  0  0  0
    1.7675   -5.1975    3.9555 C   0  0  2  0  0  0  0  0  0  0  0  0
    0.5964   -4.5078    4.4812 O   0  0  0  0  0  0  0  0  0  0  0  0
    1.3886   -3.6198    5.1550 C   0  0  0  0  0  0  0  0  0  0  0  0
    1.0747   -2.7185    5.9312 O   0  0  0  0  0  0  0  0  0  0  0  0
    2.7108   -4.2736    4.7041 C   0  0  2  0  0  0  0  0  0  0  0  0
    3.6228   -3.3929    3.8354 C   0  0  0  0  0  0  0  0  0  0  0  0
    4.1978   -4.1910    2.6283 C   0  0  1  0  0  0  0  0  0  0  0  0
    5.4310   -4.9087    3.2337 C   0  0  0  0  0  0  0  0  0  0  0  0
    4.3763   -3.5252    1.2129 C   0  0  1  0  0  0  0  0  0  0  0  0
    5.7377   -3.3809    0.9223 O   0  0  0  0  0  0  0  0  0  0  0  0
    3.8624   -2.0812    0.9262 C   0  0  2  0  0  0  0  0  0  0  0  0
    2.5155   -1.8980    1.3092 O   0  0  0  0  0  0  0  0  0  0  0  0
    3.7951   -1.5208   -0.4992 C   0  0  1  0  0  0  0  0  0  0  0  0
    6.0241   -2.7548   -3.0173 H   0  0  0  0  0  0  0  0  0  0  0  0
    5.6311   -3.5703   -1.5197 H   0  0  0  0  0  0  0  0  0  0  0  0
    6.6942   -2.1697   -1.4717 H   0  0  0  0  0  0  0  0  0  0  0  0
    3.9751    0.1985   -2.6052 H   0  0  0  0  0  0  0  0  0  0  0  0
    4.9636   -0.7608   -3.6831 H   0  0  0  0  0  0  0  0  0  0  0  0
    5.7011    0.0795   -2.3056 H   0  0  0  0  0  0  0  0  0  0  0  0
    2.4882   -1.6653   -2.2501 H   0  0  0  0  0  0  0  0  0  0  0  0
    2.0614   -3.8192   -2.4319 H   0  0  0  0  0  0  0  0  0  0  0  0
    3.7468   -4.1903   -2.3066 H   0  0  0  0  0  0  0  0  0  0  0  0
    1.8113   -3.8536    0.0079 H   0  0  0  0  0  0  0  0  0  0  0  0
    2.0404   -5.3809   -0.7050 H   0  0  0  0  0  0  0  0  0  0  0  0
    5.4204   -6.1114    0.4880 H   0  0  0  0  0  0  0  0  0  0  0  0
    4.9372   -5.5740   -1.0957 H   0  0  0  0  0  0  0  0  0  0  0  0
    3.9935   -6.7603   -0.2521 H   0  0  0  0  0  0  0  0  0  0  0  0
    3.5916   -6.1527    2.1453 H   0  0  0  0  0  0  0  0  0  0  0  0
    1.3969   -4.1146    2.1667 H   0  0  0  0  0  0  0  0  0  0  0  0
    1.1471   -5.8367    1.9839 H   0  0  0  0  0  0  0  0  0  0  0  0
    1.8609   -6.1952    4.3482 H   0  0  0  0  0  0  0  0  0  0  0  0
    3.2127   -4.8246    5.5022 H   0  0  0  0  0  0  0  0  0  0  0  0
    3.0534   -2.5279    3.5122 H   0  0  0  0  0  0  0  0  0  0  0  0
    4.4149   -2.9464    4.4488 H   0  0  0  0  0  0  0  0  0  0  0  0
    6.1838   -4.1996    3.5769 H   0  0  0  0  0  0  0  0  0  0  0  0
    5.9241   -5.5659    2.5272 H   0  0  0  0  0  0  0  0  0  0  0  0
    5.1608   -5.5247    4.0905 H   0  0  0  0  0  0  0  0  0  0  0  0
    6.1143   -4.2321    1.0547 H   0  0  0  0  0  0  0  0  0  0  0  0
    4.4456   -1.3599    1.5174 H   0  0  0  0  0  0  0  0  0  0  0  0
    2.0480   -1.4550    0.6008 H   0  0  0  0  0  0  0  0  0  0  0  0
    3.4860   -0.4982   -0.4024 H   0  0  0  0  0  0  0  0  0  0  0  0
  1  2  1  0
  1 24  1  0
  1 25  1  0
  1 26  1  0
  2 23  1  0
  2  3  1  0
  2  4  1  0
  3 27  1  0
  3 28  1  0
  3 29  1  0
  4 23  1  0
  4  5  1  0
  4 30  1  6
  5  6  1  0
  5 31  1  0
  5 32  1  0
  6  7  1  0
  6 33  1  0
  6 34  1  0
  7 19  1  0
  7  8  1  6
  7  9  1  0
  8 35  1  0
  8 36  1  0
  8 37  1  0
  9 17  1  0
  9 10  1  0
  9 38  1  1
 10 11  1  0
 10 39  1  0
 10 40  1  0
 11 15  1  0
 11 12  1  0
 11 41  1  6
 12 13  1  0
 13 14  2  0
 13 15  1  0
 15 16  1  0
 15 42  1  1
 16 17  1  0
 16 43  1  0
 16 44  1  0
 17 18  1  1
 17 19  1  0
 18 45  1  0
 18 46  1  0
 18 47  1  0
 19 20  1  6
 19 21  1  0
 20 48  1  0
 21 22  1  0
 21 23  1  0
 21 49  1  1
 22 50  1  0
 23 51  1  1
M  END
>  <i_m_ct_stereo_status>  (117) 
1

>  <s_m_source_file>  (117) 
/var/tmp/pbs.5076255.sched01/tmpxnahmhzs/434e81vi2s.sdf

>  <i_m_source_file_index>  (117) 
4

>  <i_lp_mmshare_version>  (117) 
48012

>  <i_f3d_flags>  (117) 
0

>  <s_epik_input>  (117) 
W0NIM11DMShbQ0gzXSlbQ0BASF0oW0NIMl1bQ0gyXTIpW0NASF0xW0NIXShbT0hdKVtDQEBdMyhbT0hdKVtDQF0oW0NIM10pKFtDQEBIXTRbQ0BAXTIzW0NIM10pW0NIMl1bQ0BASF01W0NASF0oW0NIMl00KU9DNT1P

>  <s_epik_cmdline>  (117) 
J2VwaWtfcHl0aG9uJywgJy1waHQnLCAnMi4wJywgJy1waCcsICc3LjAnLCAnLXRuJywgJzgnLCAnLW1hJywgJzIwMCcsICctaW1hZScsICc8aW5maWxlLm1hZT4nLCAnLW9tYWUnLCAnPG91dGZpbGUubWFlPic=

>  <r_lp_tautomer_probability>  (117) 
1

>  <r_epik_Ionization_Penalty>  (117) 
1.28935e-06

>  <r_epik_Ionization_Penalty_Charging>  (117) 
0

>  <r_epik_Ionization_Penalty_Neutral>  (117) 
1.28935e-06

>  <r_epik_State_Penalty>  (117) 
-0

>  <r_epik_Charging_Adjusted_Penalty>  (117) 
0

>  <i_epik_Tot_Q>  (117) 
0

>  <i_epik_Tot_abs_Q>  (117) 
0

>  <s_epik_Chemistry_Notes>  (117) 
This compound has an ester and may undergo hydrolysis at high or low pH.

>  <s_lp_Force_Field>  (117) 
OPLS3e

>  <r_lp_Energy>  (117) 
68.1494

>  <b_lp_Chiralities_Consistent>  (117) 
1

>  <s_lp_Variant>  (117) 
36:0-1

>  <s_i_glide_gridfile>  (117) 
pfpi4k_grid

>  <i_i_glide_lignum>  (117) 
4

>  <i_i_glide_rotatable_bonds>  (117) 
2

>  <r_i_docking_score>  (117) 
-2.42829

>  <r_i_glide_ligand_efficiency>  (117) 
-0.105578

>  <r_i_glide_ligand_efficiency_sa>  (117) 
-0.300249

>  <r_i_glide_ligand_efficiency_ln>  (117) 
-0.587182

>  <r_i_glide_gscore>  (117) 
-2.42829

>  <r_i_glide_lipo>  (117) 
-0.0697159

>  <r_i_glide_hbond>  (117) 
-0.16

>  <r_i_glide_metal>  (117) 
-0

>  <r_i_glide_rewards>  (117) 
-1.22889

>  <r_i_glide_evdw>  (117) 
-13.1563

>  <r_i_glide_ecoul>  (117) 
-2.07912

>  <r_i_glide_erotb>  (117) 
0

>  <r_i_glide_esite>  (117) 
0

>  <r_i_glide_emodel>  (117) 
-17.8449

>  <r_i_glide_energy>  (117) 
-15.2354

>  <r_i_glide_einternal>  (117) 
1.3593

>  <r_i_glide_intrahb_reward>  (117) 
-0

>  <i_i_glide_confnum>  (117) 
1

>  <i_i_glide_posenum>  (117) 
9

>  <r_i_glide_eff_state_penalty>  (117) 
0

>  <ligand_id>  (117) 
36

>  <original_smiles>  (117) 
CC1(C)C2CCC3(C)C4CC5OC(=O)C5CC4(C)C3(O)C(O)C21

>  <smiles>  (117) 
[H]OC1([H])C2([H])C([H])(C([H])([H])C([H])([H])C3(C([H])([H])[H])C4([H])C([H])([H])C5([H])OC(=O)C5([H])C([H])([H])C4(C([H])([H])[H])C13O[H])C2(C([H])([H])[H])C([H])([H])[H]

$$$$
37:0:0
     RDKit          3D

 35 38  0  0  1  0  0  0  0  0999 V2000
    6.6174   -2.8743   -1.8846 C   0  0  0  0  0  0  0  0  0  0  0  0
    6.1432   -2.9305   -0.4284 C   0  0  0  0  0  0  0  0  0  0  0  0
    6.9882   -2.0407    0.4947 C   0  0  0  0  0  0  0  0  0  0  0  0
    4.8173   -2.5068   -0.3691 O   0  0  0  0  0  0  0  0  0  0  0  0
    4.0721   -3.7035   -0.3626 C   0  0  2  0  0  0  0  0  0  0  0  0
    2.6335   -3.6518    0.1815 C   0  0  0  0  0  0  0  0  0  0  0  0
    2.3823   -4.7423    1.0828 O   0  0  0  0  0  0  0  0  0  0  0  0
    2.8987   -6.0042    0.6383 C   0  0  1  0  0  0  0  0  0  0  0  0
    4.4448   -5.9746    0.5195 C   0  0  2  0  0  0  0  0  0  0  0  0
    4.9533   -6.7190    1.6249 O   0  0  0  0  0  0  0  0  0  0  0  0
    3.8991   -7.0075    2.5340 C   0  0  0  0  0  0  0  0  0  0  0  0
    2.6552   -7.1198    1.6539 C   0  0  1  0  0  0  0  0  0  0  0  0
    1.3959   -7.0254    2.3785 N   0  0  0  0  0  0  0  0  0  0  0  0
    1.1195   -6.9480    3.6860 C   0  0  0  0  0  0  0  0  0  0  0  0
   -0.1898   -6.9416    3.9017 N   0  0  0  0  0  0  0  0  0  0  0  0
   -0.7238   -7.0644    2.6330 N   0  0  0  0  0  0  0  0  0  0  0  0
    0.2053   -7.0673    1.7217 N   0  0  0  0  0  0  0  0  0  0  0  0
    4.9467   -4.5257    0.5533 C   0  0  1  0  0  0  0  0  0  0  0  0
    6.2183   -4.2529    0.0050 O   0  0  0  0  0  0  0  0  0  0  0  0
    6.0271   -3.5485   -2.5075 H   0  0  0  0  0  0  0  0  0  0  0  0
    7.6653   -3.1743   -1.9417 H   0  0  0  0  0  0  0  0  0  0  0  0
    6.5070   -1.8586   -2.2624 H   0  0  0  0  0  0  0  0  0  0  0  0
    6.6209   -2.0927    1.5205 H   0  0  0  0  0  0  0  0  0  0  0  0
    6.9311   -1.0046    0.1635 H   0  0  0  0  0  0  0  0  0  0  0  0
    8.0311   -2.3601    0.4756 H   0  0  0  0  0  0  0  0  0  0  0  0
    4.0716   -4.1360   -1.3662 H   0  0  0  0  0  0  0  0  0  0  0  0
    2.4377   -2.7150    0.7066 H   0  0  0  0  0  0  0  0  0  0  0  0
    1.9394   -3.7017   -0.6579 H   0  0  0  0  0  0  0  0  0  0  0  0
    2.4347   -6.2428   -0.3218 H   0  0  0  0  0  0  0  0  0  0  0  0
    4.7523   -6.4721   -0.4008 H   0  0  0  0  0  0  0  0  0  0  0  0
    4.0928   -7.9227    3.0989 H   0  0  0  0  0  0  0  0  0  0  0  0
    3.8041   -6.1726    3.2309 H   0  0  0  0  0  0  0  0  0  0  0  0
    2.6906   -8.0867    1.1470 H   0  0  0  0  0  0  0  0  0  0  0  0
    1.8584   -6.9197    4.4769 H   0  0  0  0  0  0  0  0  0  0  0  0
    4.9002   -4.1244    1.5672 H   0  0  0  0  0  0  0  0  0  0  0  0
  1  2  1  0
  1 20  1  0
  1 21  1  0
  1 22  1  0
  2 19  1  0
  2  3  1  0
  2  4  1  0
  3 23  1  0
  3 24  1  0
  3 25  1  0
  4  5  1  0
  5 18  1  0
  5  6  1  0
  5 26  1  6
  6  7  1  0
  6 27  1  0
  6 28  1  0
  7  8  1  0
  8 12  1  0
  8  9  1  0
  8 29  1  6
  9 10  1  0
  9 18  1  0
  9 30  1  6
 10 11  1  0
 11 12  1  0
 11 31  1  0
 11 32  1  0
 12 13  1  0
 12 33  1  6
 13 17  1  0
 13 14  1  0
 14 15  2  0
 14 34  1  0
 15 16  1  0
 16 17  2  0
 18 19  1  0
 18 35  1  1
M  END
>  <i_m_ct_stereo_status>  (118) 
1

>  <s_m_source_file>  (118) 
/var/tmp/pbs.5076255.sched01/tmpxnahmhzs/434e81vi2s.sdf

>  <i_m_source_file_index>  (118) 
5

>  <i_lp_mmshare_version>  (118) 
48012

>  <i_f3d_flags>  (118) 
0

>  <s_epik_input>  (118) 
W0NIM11DKE8xKShbQ0gzXSlPW0NAQEhdKFtDQEhdMTIpW0NAQEhdM1tDQEhdKE9bQ0gyXTIpW0NAQEhdKFtDSDJdTzMpbjRbY0hdbm5uNA==

>  <s_epik_cmdline>  (118) 
J2VwaWtfcHl0aG9uJywgJy1waHQnLCAnMi4wJywgJy1waCcsICc3LjAnLCAnLXRuJywgJzgnLCAnLW1hJywgJzIwMCcsICctaW1hZScsICc8aW5maWxlLm1hZT4nLCAnLW9tYWUnLCAnPG91dGZpbGUubWFlPic=

>  <r_lp_tautomer_probability>  (118) 
1

>  <r_epik_Ionization_Penalty>  (118) 
1.88415e-09

>  <r_epik_Ionization_Penalty_Charging>  (118) 
0

>  <r_epik_Ionization_Penalty_Neutral>  (118) 
1.88415e-09

>  <r_epik_State_Penalty>  (118) 
-0

>  <r_epik_Charging_Adjusted_Penalty>  (118) 
0

>  <i_epik_Tot_Q>  (118) 
0

>  <i_epik_Tot_abs_Q>  (118) 
0

>  <s_lp_Force_Field>  (118) 
OPLS3e

>  <r_lp_Energy>  (118) 
14.5294

>  <b_lp_Chiralities_Consistent>  (118) 
1

>  <s_lp_Variant>  (118) 
37:0-1

>  <s_i_glide_gridfile>  (118) 
pfpi4k_grid

>  <i_i_glide_lignum>  (118) 
5

>  <i_i_glide_rotatable_bonds>  (118) 
1

>  <r_i_docking_score>  (118) 
-3.39885

>  <r_i_glide_ligand_efficiency>  (118) 
-0.178887

>  <r_i_glide_ligand_efficiency_sa>  (118) 
-0.477342

>  <r_i_glide_ligand_efficiency_ln>  (118) 
-0.861681

>  <r_i_glide_gscore>  (118) 
-3.39885

>  <r_i_glide_lipo>  (118) 
-0.202333

>  <r_i_glide_hbond>  (118) 
0

>  <r_i_glide_metal>  (118) 
-0

>  <r_i_glide_rewards>  (118) 
-1.61735

>  <r_i_glide_evdw>  (118) 
-22.8412

>  <r_i_glide_ecoul>  (118) 
-2.63791

>  <r_i_glide_erotb>  (118) 
0.247988

>  <r_i_glide_esite>  (118) 
-0.289409

>  <r_i_glide_emodel>  (118) 
-30.7628

>  <r_i_glide_energy>  (118) 
-25.4791

>  <r_i_glide_einternal>  (118) 
0.606083

>  <r_i_glide_intrahb_reward>  (118) 
-0

>  <i_i_glide_confnum>  (118) 
2

>  <i_i_glide_posenum>  (118) 
2

>  <r_i_glide_eff_state_penalty>  (118) 
0

>  <ligand_id>  (118) 
37

>  <original_smiles>  (118) 
CC1(C)OC2COC3C(OCC3n3cnnn3)C2O1

>  <smiles>  (118) 
[H]c1nnnn1C1([H])C([H])([H])OC2([H])C3([H])OC(C([H])([H])[H])(C([H])([H])[H])OC3([H])C([H])([H])OC21[H]

$$$$
37:0:1
     RDKit          3D

 35 38  0  0  1  0  0  0  0  0999 V2000
    3.1356   -2.8414   -3.8306 C   0  0  0  0  0  0  0  0  0  0  0  0
    3.8535   -2.1913   -2.6388 C   0  0  0  0  0  0  0  0  0  0  0  0
    4.2379   -0.7377   -2.9301 C   0  0  0  0  0  0  0  0  0  0  0  0
    3.0126   -2.1967   -1.5438 O   0  0  0  0  0  0  0  0  0  0  0  0
    3.3777   -3.3283   -0.8092 C   0  0  2  0  0  0  0  0  0  0  0  0
    2.9881   -3.3691    0.6775 C   0  0  0  0  0  0  0  0  0  0  0  0
    4.0898   -3.7843    1.4861 O   0  0  0  0  0  0  0  0  0  0  0  0
    4.8498   -4.8760    0.9527 C   0  0  1  0  0  0  0  0  0  0  0  0
    5.5103   -4.4695   -0.3894 C   0  0  2  0  0  0  0  0  0  0  0  0
    6.8929   -4.2540   -0.1190 O   0  0  0  0  0  0  0  0  0  0  0  0
    7.1203   -4.2746    1.2792 C   0  0  0  0  0  0  0  0  0  0  0  0
    6.0511   -5.2163    1.8238 C   0  0  1  0  0  0  0  0  0  0  0  0
    5.8163   -5.0685    3.2616 N   0  0  0  0  0  0  0  0  0  0  0  0
    5.4037   -4.0352    4.0034 C   0  0  0  0  0  0  0  0  0  0  0  0
    5.3424   -4.3461    5.2879 N   0  0  0  0  0  0  0  0  0  0  0  0
    5.7585   -5.6652    5.3116 N   0  0  0  0  0  0  0  0  0  0  0  0
    6.0389   -6.0968    4.1119 N   0  0  0  0  0  0  0  0  0  0  0  0
    4.8744   -3.1983   -0.9531 C   0  0  1  0  0  0  0  0  0  0  0  0
    4.9969   -2.9379   -2.3382 O   0  0  0  0  0  0  0  0  0  0  0  0
    2.8757   -3.8728   -3.6061 H   0  0  0  0  0  0  0  0  0  0  0  0
    3.7802   -2.8297   -4.7078 H   0  0  0  0  0  0  0  0  0  0  0  0
    2.2189   -2.2972   -4.0572 H   0  0  0  0  0  0  0  0  0  0  0  0
    4.7260   -0.2884   -2.0644 H   0  0  0  0  0  0  0  0  0  0  0  0
    3.3479   -0.1563   -3.1693 H   0  0  0  0  0  0  0  0  0  0  0  0
    4.9135   -0.7071   -3.7841 H   0  0  0  0  0  0  0  0  0  0  0  0
    3.0194   -4.2300   -1.3088 H   0  0  0  0  0  0  0  0  0  0  0  0
    2.6253   -2.4030    1.0323 H   0  0  0  0  0  0  0  0  0  0  0  0
    2.1804   -4.0862    0.8115 H   0  0  0  0  0  0  0  0  0  0  0  0
    4.2061   -5.7515    0.8384 H   0  0  0  0  0  0  0  0  0  0  0  0
    5.4036   -5.2895   -1.0998 H   0  0  0  0  0  0  0  0  0  0  0  0
    8.1362   -4.6021    1.5102 H   0  0  0  0  0  0  0  0  0  0  0  0
    6.9883   -3.2648    1.6689 H   0  0  0  0  0  0  0  0  0  0  0  0
    6.3684   -6.2371    1.6094 H   0  0  0  0  0  0  0  0  0  0  0  0
    5.1595   -3.0529    3.6248 H   0  0  0  0  0  0  0  0  0  0  0  0
    5.2188   -2.3245   -0.3975 H   0  0  0  0  0  0  0  0  0  0  0  0
  1  2  1  0
  1 20  1  0
  1 21  1  0
  1 22  1  0
  2 19  1  0
  2  3  1  0
  2  4  1  0
  3 23  1  0
  3 24  1  0
  3 25  1  0
  4  5  1  0
  5 18  1  0
  5  6  1  0
  5 26  1  6
  6  7  1  0
  6 27  1  0
  6 28  1  0
  7  8  1  0
  8 12  1  0
  8  9  1  0
  8 29  1  6
  9 10  1  0
  9 18  1  0
  9 30  1  6
 10 11  1  0
 11 12  1  0
 11 31  1  0
 11 32  1  0
 12 13  1  0
 12 33  1  1
 13 17  1  0
 13 14  1  0
 14 15  2  0
 14 34  1  0
 15 16  1  0
 16 17  2  0
 18 19  1  0
 18 35  1  1
M  END
>  <i_m_ct_stereo_status>  (119) 
1

>  <s_m_source_file>  (119) 
/var/tmp/pbs.5076255.sched01/tmpxnahmhzs/434e81vi2s.sdf

>  <i_m_source_file_index>  (119) 
5

>  <i_lp_mmshare_version>  (119) 
48012

>  <i_f3d_flags>  (119) 
0

>  <s_epik_input>  (119) 
W0NIM11DKE8xKShbQ0gzXSlPW0NAQEhdKFtDQEhdMTIpW0NAQEhdM1tDQEhdKE9bQ0gyXTIpW0NAQEhdKFtDSDJdTzMpbjRbY0hdbm5uNA==

>  <s_epik_cmdline>  (119) 
J2VwaWtfcHl0aG9uJywgJy1waHQnLCAnMi4wJywgJy1waCcsICc3LjAnLCAnLXRuJywgJzgnLCAnLW1hJywgJzIwMCcsICctaW1hZScsICc8aW5maWxlLm1hZT4nLCAnLW9tYWUnLCAnPG91dGZpbGUubWFlPic=

>  <r_lp_tautomer_probability>  (119) 
1

>  <r_epik_Ionization_Penalty>  (119) 
1.88415e-09

>  <r_epik_Ionization_Penalty_Charging>  (119) 
0

>  <r_epik_Ionization_Penalty_Neutral>  (119) 
1.88415e-09

>  <r_epik_State_Penalty>  (119) 
-0

>  <r_epik_Charging_Adjusted_Penalty>  (119) 
0

>  <i_epik_Tot_Q>  (119) 
0

>  <i_epik_Tot_abs_Q>  (119) 
0

>  <s_lp_Force_Field>  (119) 
OPLS3e

>  <r_lp_Energy>  (119) 
14.5294

>  <b_lp_Chiralities_Consistent>  (119) 
1

>  <s_lp_Variant>  (119) 
37:0-1

>  <s_i_glide_gridfile>  (119) 
pfpi4k_grid

>  <i_i_glide_lignum>  (119) 
5

>  <i_i_glide_rotatable_bonds>  (119) 
1

>  <r_i_docking_score>  (119) 
-3.05865

>  <r_i_glide_ligand_efficiency>  (119) 
-0.160982

>  <r_i_glide_ligand_efficiency_sa>  (119) 
-0.429564

>  <r_i_glide_ligand_efficiency_ln>  (119) 
-0.775434

>  <r_i_glide_gscore>  (119) 
-3.05865

>  <r_i_glide_lipo>  (119) 
-0.614913

>  <r_i_glide_hbond>  (119) 
0

>  <r_i_glide_metal>  (119) 
-0

>  <r_i_glide_rewards>  (119) 
-1.63275

>  <r_i_glide_evdw>  (119) 
-20.0688

>  <r_i_glide_ecoul>  (119) 
-0.370265

>  <r_i_glide_erotb>  (119) 
0.247988

>  <r_i_glide_esite>  (119) 
0

>  <r_i_glide_emodel>  (119) 
-24.838

>  <r_i_glide_energy>  (119) 
-20.439

>  <r_i_glide_einternal>  (119) 
1.13723

>  <r_i_glide_intrahb_reward>  (119) 
-0

>  <i_i_glide_confnum>  (119) 
3

>  <i_i_glide_posenum>  (119) 
1

>  <r_i_glide_eff_state_penalty>  (119) 
0

>  <ligand_id>  (119) 
37

>  <original_smiles>  (119) 
CC1(C)OC2COC3C(OCC3n3cnnn3)C2O1

>  <smiles>  (119) 
[H]c1nnnn1C1([H])C([H])([H])OC2([H])C3([H])OC(C([H])([H])[H])(C([H])([H])[H])OC3([H])C([H])([H])OC21[H]

$$$$
37:0:2
     RDKit          3D

 35 38  0  0  1  0  0  0  0  0999 V2000
    3.2172   -2.8249   -3.8396 C   0  0  0  0  0  0  0  0  0  0  0  0
    3.8922   -2.1932   -2.6156 C   0  0  0  0  0  0  0  0  0  0  0  0
    4.2687   -0.7287   -2.8589 C   0  0  0  0  0  0  0  0  0  0  0  0
    3.0143   -2.2384   -1.5444 O   0  0  0  0  0  0  0  0  0  0  0  0
    3.3920   -3.3714   -0.8175 C   0  0  2  0  0  0  0  0  0  0  0  0
    2.9655   -3.4517    0.6573 C   0  0  0  0  0  0  0  0  0  0  0  0
    4.0532   -3.8642    1.4868 O   0  0  0  0  0  0  0  0  0  0  0  0
    4.8440   -4.9317    0.9494 C   0  0  1  0  0  0  0  0  0  0  0  0
    5.5245   -4.4876   -0.3684 C   0  0  2  0  0  0  0  0  0  0  0  0
    6.9015   -4.2594   -0.0686 O   0  0  0  0  0  0  0  0  0  0  0  0
    7.1017   -4.3025    1.3351 C   0  0  0  0  0  0  0  0  0  0  0  0
    6.0359   -5.2753    1.8330 C   0  0  1  0  0  0  0  0  0  0  0  0
    5.7763   -5.2361    3.2757 N   0  0  0  0  0  0  0  0  0  0  0  0
    5.8064   -6.2198    4.1751 C   0  0  0  0  0  0  0  0  0  0  0  0
    5.4818   -5.7896    5.3861 N   0  0  0  0  0  0  0  0  0  0  0  0
    5.2439   -4.4450    5.1922 N   0  0  0  0  0  0  0  0  0  0  0  0
    5.4110   -4.1072    3.9435 N   0  0  0  0  0  0  0  0  0  0  0  0
    4.8868   -3.2144   -0.9215 C   0  0  1  0  0  0  0  0  0  0  0  0
    5.0336   -2.9328   -2.2995 O   0  0  0  0  0  0  0  0  0  0  0  0
    2.9673   -3.8660   -3.6424 H   0  0  0  0  0  0  0  0  0  0  0  0
    3.8906   -2.7843   -4.6961 H   0  0  0  0  0  0  0  0  0  0  0  0
    2.2989   -2.2879   -4.0775 H   0  0  0  0  0  0  0  0  0  0  0  0
    4.7317   -0.2934   -1.9726 H   0  0  0  0  0  0  0  0  0  0  0  0
    3.3807   -0.1510   -3.1114 H   0  0  0  0  0  0  0  0  0  0  0  0
    4.9668   -0.6745   -3.6932 H   0  0  0  0  0  0  0  0  0  0  0  0
    3.0649   -4.2611   -1.3454 H   0  0  0  0  0  0  0  0  0  0  0  0
    2.5852   -2.4961    1.0217 H   0  0  0  0  0  0  0  0  0  0  0  0
    2.1665   -4.1832    0.7531 H   0  0  0  0  0  0  0  0  0  0  0  0
    4.2208   -5.8160    0.7953 H   0  0  0  0  0  0  0  0  0  0  0  0
    5.4221   -5.2930   -1.0950 H   0  0  0  0  0  0  0  0  0  0  0  0
    8.1135   -4.6303    1.5844 H   0  0  0  0  0  0  0  0  0  0  0  0
    6.9470   -3.3008    1.7363 H   0  0  0  0  0  0  0  0  0  0  0  0
    6.3736   -6.2807    1.5702 H   0  0  0  0  0  0  0  0  0  0  0  0
    6.0608   -7.2440    3.9458 H   0  0  0  0  0  0  0  0  0  0  0  0
    5.2065   -2.3469   -0.3428 H   0  0  0  0  0  0  0  0  0  0  0  0
  1  2  1  0
  1 20  1  0
  1 21  1  0
  1 22  1  0
  2 19  1  0
  2  3  1  0
  2  4  1  0
  3 23  1  0
  3 24  1  0
  3 25  1  0
  4  5  1  0
  5 18  1  0
  5  6  1  0
  5 26  1  6
  6  7  1  0
  6 27  1  0
  6 28  1  0
  7  8  1  0
  8 12  1  0
  8  9  1  0
  8 29  1  6
  9 10  1  0
  9 18  1  0
  9 30  1  6
 10 11  1  0
 11 12  1  0
 11 31  1  0
 11 32  1  0
 12 13  1  0
 12 33  1  6
 13 17  1  0
 13 14  1  0
 14 15  2  0
 14 34  1  0
 15 16  1  0
 16 17  2  0
 18 19  1  0
 18 35  1  1
M  END
>  <i_m_ct_stereo_status>  (120) 
1

>  <s_m_source_file>  (120) 
/var/tmp/pbs.5076255.sched01/tmpxnahmhzs/434e81vi2s.sdf

>  <i_m_source_file_index>  (120) 
5

>  <i_lp_mmshare_version>  (120) 
48012

>  <i_f3d_flags>  (120) 
0

>  <s_epik_input>  (120) 
W0NIM11DKE8xKShbQ0gzXSlPW0NAQEhdKFtDQEhdMTIpW0NAQEhdM1tDQEhdKE9bQ0gyXTIpW0NAQEhdKFtDSDJdTzMpbjRbY0hdbm5uNA==

>  <s_epik_cmdline>  (120) 
J2VwaWtfcHl0aG9uJywgJy1waHQnLCAnMi4wJywgJy1waCcsICc3LjAnLCAnLXRuJywgJzgnLCAnLW1hJywgJzIwMCcsICctaW1hZScsICc8aW5maWxlLm1hZT4nLCAnLW9tYWUnLCAnPG91dGZpbGUubWFlPic=

>  <r_lp_tautomer_probability>  (120) 
1

>  <r_epik_Ionization_Penalty>  (120) 
1.88415e-09

>  <r_epik_Ionization_Penalty_Charging>  (120) 
0

>  <r_epik_Ionization_Penalty_Neutral>  (120) 
1.88415e-09

>  <r_epik_State_Penalty>  (120) 
-0

>  <r_epik_Charging_Adjusted_Penalty>  (120) 
0

>  <i_epik_Tot_Q>  (120) 
0

>  <i_epik_Tot_abs_Q>  (120) 
0

>  <s_lp_Force_Field>  (120) 
OPLS3e

>  <r_lp_Energy>  (120) 
14.5294

>  <b_lp_Chiralities_Consistent>  (120) 
1

>  <s_lp_Variant>  (120) 
37:0-1

>  <s_i_glide_gridfile>  (120) 
pfpi4k_grid

>  <i_i_glide_lignum>  (120) 
5

>  <i_i_glide_rotatable_bonds>  (120) 
1

>  <r_i_docking_score>  (120) 
-3.01442

>  <r_i_glide_ligand_efficiency>  (120) 
-0.158654

>  <r_i_glide_ligand_efficiency_sa>  (120) 
-0.423352

>  <r_i_glide_ligand_efficiency_ln>  (120) 
-0.764221

>  <r_i_glide_gscore>  (120) 
-3.01442

>  <r_i_glide_lipo>  (120) 
-0.595875

>  <r_i_glide_hbond>  (120) 
0

>  <r_i_glide_metal>  (120) 
-0

>  <r_i_glide_rewards>  (120) 
-1.622

>  <r_i_glide_evdw>  (120) 
-19.7683

>  <r_i_glide_ecoul>  (120) 
-0.374096

>  <r_i_glide_erotb>  (120) 
0.247988

>  <r_i_glide_esite>  (120) 
0

>  <r_i_glide_emodel>  (120) 
-24.8967

>  <r_i_glide_energy>  (120) 
-20.1424

>  <r_i_glide_einternal>  (120) 
0.340192

>  <r_i_glide_intrahb_reward>  (120) 
-0

>  <i_i_glide_confnum>  (120) 
3

>  <i_i_glide_posenum>  (120) 
29

>  <r_i_glide_eff_state_penalty>  (120) 
0

>  <ligand_id>  (120) 
37

>  <original_smiles>  (120) 
CC1(C)OC2COC3C(OCC3n3cnnn3)C2O1

>  <smiles>  (120) 
[H]c1nnnn1C1([H])C([H])([H])OC2([H])C3([H])OC(C([H])([H])[H])(C([H])([H])[H])OC3([H])C([H])([H])OC21[H]

$$$$
38:0:0
     RDKit          3D

 66 70  0  0  1  0  0  0  0  0999 V2000
    3.8682   -0.6548   -2.8440 C   0  0  0  0  0  0  0  0  0  0  0  0
    3.8754   -1.2321   -1.5553 O   0  0  0  0  0  0  0  0  0  0  0  0
    5.0211   -1.6126   -1.0073 C   0  0  0  0  0  0  0  0  0  0  0  0
    6.1088   -1.4568   -1.5939 O   0  0  0  0  0  0  0  0  0  0  0  0
    4.9241   -2.3076    0.3944 C   0  0  2  0  0  0  0  0  0  0  0  0
    6.3307   -3.0137    0.7049 C   0  0  1  0  0  0  0  0  0  0  0  0
    7.3105   -2.0252    0.9466 O   0  0  0  0  0  0  0  0  0  0  0  0
    6.4888   -4.4488    1.4419 C   0  0  1  0  0  0  0  0  0  0  0  0
    7.8613   -4.6990    1.6391 O   0  0  0  0  0  0  0  0  0  0  0  0
    5.5374   -5.0018    2.6582 C   0  0  1  0  0  0  0  0  0  0  0  0
    6.0983   -6.3877    3.0862 C   0  0  0  0  0  0  0  0  0  0  0  0
    5.8053   -4.1820    3.8143 O   0  0  0  0  0  0  0  0  0  0  0  0
    5.4112   -2.8174    3.7346 C   0  0  0  0  0  0  0  0  0  0  0  0
    3.9972   -2.9783    3.3276 C   0  0  2  0  0  0  0  0  0  0  0  0
    3.4582   -3.5873    4.5571 O   0  0  0  0  0  0  0  0  0  0  0  0
    3.3714   -3.0110    5.7862 C   0  0  0  0  0  0  0  0  0  0  0  0
    2.8363   -4.0054    6.7945 C   0  0  0  0  0  0  0  0  0  0  0  0
    3.6972   -1.8667    6.1074 O   0  0  0  0  0  0  0  0  0  0  0  0
    4.0844   -3.8736    1.9830 C   0  0  2  0  0  0  0  0  0  0  0  0
    3.9092   -5.2501    2.3745 C   0  0  1  0  0  0  0  0  0  0  0  0
    2.2473   -4.8289    2.5445 C   0  0  2  0  0  0  0  0  0  0  0  0
    1.5956   -5.5546    3.5536 O   0  0  0  0  0  0  0  0  0  0  0  0
    1.7448   -5.5581    1.2272 C   0  0  0  0  0  0  0  0  0  0  0  0
    2.3333   -5.1927   -0.2160 C   0  0  1  0  0  0  0  0  0  0  0  0
    1.3957   -4.4149   -1.1187 C   0  0  0  0  0  0  0  0  0  0  0  0
    3.8259   -4.6940   -0.4460 C   0  0  0  0  0  0  0  0  0  0  0  0
    3.9942   -3.4408    0.4435 C   0  0  2  0  0  0  0  0  0  0  0  0
    1.8055   -3.1283    2.7268 C   0  0  0  0  0  0  0  0  0  0  0  0
    3.0807   -1.9939    2.7189 C   0  0  1  0  0  0  0  0  0  0  0  0
    2.6257   -0.7720    3.5561 C   0  0  0  0  0  0  0  0  0  0  0  0
    4.0052   -1.3715    1.4367 C   0  0  1  0  0  0  0  0  0  0  0  0
    4.8500   -0.3360    1.8733 O   0  0  0  0  0  0  0  0  0  0  0  0
    2.8378   -0.4788   -3.1419 H   0  0  0  0  0  0  0  0  0  0  0  0
    4.3331   -1.3295   -3.5567 H   0  0  0  0  0  0  0  0  0  0  0  0
    4.4068    0.2980   -2.8663 H   0  0  0  0  0  0  0  0  0  0  0  0
    6.7310   -3.3460   -0.2573 H   0  0  0  0  0  0  0  0  0  0  0  0
    7.0894   -1.5877    1.7632 H   0  0  0  0  0  0  0  0  0  0  0  0
    6.3333   -5.1717    0.6457 H   0  0  0  0  0  0  0  0  0  0  0  0
    8.1473   -4.1572    2.3718 H   0  0  0  0  0  0  0  0  0  0  0  0
    5.9908   -7.1382    2.2941 H   0  0  0  0  0  0  0  0  0  0  0  0
    5.6030   -6.7763    3.9786 H   0  0  0  0  0  0  0  0  0  0  0  0
    7.1555   -6.3296    3.3349 H   0  0  0  0  0  0  0  0  0  0  0  0
    5.5611   -2.3069    4.6862 H   0  0  0  0  0  0  0  0  0  0  0  0
    6.0087   -2.2871    3.0190 H   0  0  0  0  0  0  0  0  0  0  0  0
    3.5154   -4.8585    6.8731 H   0  0  0  0  0  0  0  0  0  0  0  0
    1.8574   -4.3574    6.4684 H   0  0  0  0  0  0  0  0  0  0  0  0
    2.7467   -3.5241    7.7654 H   0  0  0  0  0  0  0  0  0  0  0  0
    3.3042   -3.6659    1.3827 H   0  0  0  0  0  0  0  0  0  0  0  0
    3.8636   -5.6506    3.3837 H   0  0  0  0  0  0  0  0  0  0  0  0
    2.0221   -5.3269    4.3842 H   0  0  0  0  0  0  0  0  0  0  0  0
    2.0240   -6.6118    1.3773 H   0  0  0  0  0  0  0  0  0  0  0  0
    0.6547   -5.5725    1.1994 H   0  0  0  0  0  0  0  0  0  0  0  0
    2.3337   -6.1936   -0.6450 H   0  0  0  0  0  0  0  0  0  0  0  0
    1.2222   -3.4015   -0.8149 H   0  0  0  0  0  0  0  0  0  0  0  0
    0.4591   -4.9582   -1.1888 H   0  0  0  0  0  0  0  0  0  0  0  0
    1.7472   -4.3083   -2.1917 H   0  0  0  0  0  0  0  0  0  0  0  0
    4.5279   -5.5003   -0.2313 H   0  0  0  0  0  0  0  0  0  0  0  0
    4.0010   -4.3903   -1.4834 H   0  0  0  0  0  0  0  0  0  0  0  0
    3.1415   -2.8755   -0.0631 H   0  0  0  0  0  0  0  0  0  0  0  0
    1.1039   -2.7503    1.9996 H   0  0  0  0  0  0  0  0  0  0  0  0
    1.2704   -3.0527    3.6685 H   0  0  0  0  0  0  0  0  0  0  0  0
    2.0874   -0.0585    2.9249 H   0  0  0  0  0  0  0  0  0  0  0  0
    3.4672   -0.2542    4.0285 H   0  0  0  0  0  0  0  0  0  0  0  0
    1.9392   -1.0755    4.3436 H   0  0  0  0  0  0  0  0  0  0  0  0
    3.2730   -0.8543    0.8201 H   0  0  0  0  0  0  0  0  0  0  0  0
    4.2815    0.3636    2.1939 H   0  0  0  0  0  0  0  0  0  0  0  0
  1  2  1  0
  1 33  1  0
  1 34  1  0
  1 35  1  0
  2  3  1  0
  3  4  2  0
  5  3  1  6
  5 27  1  0
  5 31  1  0
  5  6  1  0
  6  7  1  0
  6  8  1  0
  6 36  1  6
  7 37  1  0
  8  9  1  0
  8 10  1  0
  8 38  1  6
  9 39  1  0
 10 20  1  0
 10 11  1  1
 10 12  1  0
 11 40  1  0
 11 41  1  0
 11 42  1  0
 12 13  1  0
 13 14  1  0
 13 43  1  0
 13 44  1  0
 14 29  1  0
 14 15  1  1
 14 19  1  0
 15 16  1  0
 16 17  1  0
 16 18  2  0
 17 45  1  0
 17 46  1  0
 17 47  1  0
 19 27  1  0
 19 20  1  0
 19 48  1  6
 20 21  1  0
 20 49  1  6
 21 22  1  1
 21 23  1  0
 21 28  1  0
 22 50  1  0
 23 24  1  0
 23 51  1  0
 23 52  1  0
 24 25  1  0
 24 26  1  0
 24 53  1  6
 25 54  1  0
 25 55  1  0
 25 56  1  0
 26 27  1  0
 26 57  1  0
 26 58  1  0
 27 59  1  1
 28 29  1  0
 28 60  1  0
 28 61  1  0
 29 30  1  1
 29 31  1  0
 30 62  1  0
 30 63  1  0
 30 64  1  0
 31 32  1  0
 31 65  1  6
 32 66  1  0
M  END
>  <i_m_ct_stereo_status>  (121) 
1

>  <s_m_source_file>  (121) 
/var/tmp/pbs.5076255.sched01/tmpxnahmhzs/434e81vi2s.sdf

>  <i_m_source_file_index>  (121) 
6

>  <i_lp_mmshare_version>  (121) 
48012

>  <i_f3d_flags>  (121) 
0

>  <s_epik_input>  (121) 
W0NIM11PQyg9TylbQ0BAXTEyW0NAQEhdM1tDQEBIXTRbQ0BdNShPQyg9TylbQ0gzXSlbQ0BAXShbQ0gzXSkoW0NASF0yW09IXSlbQ0gyXVtDQEBdKFtPSF0pKFtDSDJdW0NAQEhdKFtDSDNdKVtDSDJdMylbQ0hdNFtDQF0oW0NIM10pKE9bQ0gyXTUpW0NASF0oW09IXSlbQ0BASF0xW09IXQ==

>  <s_epik_cmdline>  (121) 
J2VwaWtfcHl0aG9uJywgJy1waHQnLCAnMi4wJywgJy1waCcsICc3LjAnLCAnLXRuJywgJzgnLCAnLW1hJywgJzIwMCcsICctaW1hZScsICc8aW5maWxlLm1hZT4nLCAnLW9tYWUnLCAnPG91dGZpbGUubWFlPic=

>  <r_lp_tautomer_probability>  (121) 
1

>  <r_epik_Ionization_Penalty>  (121) 
3.44228e-07

>  <r_epik_Ionization_Penalty_Charging>  (121) 
0

>  <r_epik_Ionization_Penalty_Neutral>  (121) 
3.44228e-07

>  <r_epik_State_Penalty>  (121) 
-0

>  <r_epik_Charging_Adjusted_Penalty>  (121) 
0

>  <i_epik_Tot_Q>  (121) 
0

>  <i_epik_Tot_abs_Q>  (121) 
0

>  <s_epik_Chemistry_Notes>  (121) 
This compound has an ester and may undergo hydrolysis at high or low pH.

>  <s_lp_Force_Field>  (121) 
OPLS3e

>  <r_lp_Energy>  (121) 
453.863

>  <b_lp_Chiralities_Consistent>  (121) 
1

>  <s_lp_Variant>  (121) 
38:0-1

>  <s_i_glide_gridfile>  (121) 
pfpi4k_grid

>  <i_i_glide_lignum>  (121) 
6

>  <i_i_glide_rotatable_bonds>  (121) 
8

>  <r_i_docking_score>  (121) 
-1.89976

>  <r_i_glide_ligand_efficiency>  (121) 
-0.0593674

>  <r_i_glide_ligand_efficiency_sa>  (121) 
-0.18848

>  <r_i_glide_ligand_efficiency_ln>  (121) 
-0.425407

>  <r_i_glide_gscore>  (121) 
-1.89976

>  <r_i_glide_lipo>  (121) 
-0.348574

>  <r_i_glide_hbond>  (121) 
-0.107116

>  <r_i_glide_metal>  (121) 
-0

>  <r_i_glide_rewards>  (121) 
-0.810155

>  <r_i_glide_evdw>  (121) 
-3.46624

>  <r_i_glide_ecoul>  (121) 
-4.1456

>  <r_i_glide_erotb>  (121) 
0.194421

>  <r_i_glide_esite>  (121) 
-0.0331806

>  <r_i_glide_emodel>  (121) 
-11.8445

>  <r_i_glide_energy>  (121) 
-7.61185

>  <r_i_glide_einternal>  (121) 
2.7539

>  <r_i_glide_intrahb_reward>  (121) 
-0.5

>  <i_i_glide_confnum>  (121) 
1

>  <i_i_glide_posenum>  (121) 
26

>  <r_i_glide_eff_state_penalty>  (121) 
0

>  <ligand_id>  (121) 
38

>  <original_smiles>  (121) 
COC(=O)C12C(O)C(O)C3(C)OCC4(OC(C)=O)C5C3C(O)(CC(C)CC51)CC4(C)C2O

>  <smiles>  (121) 
[H]OC1([H])C([H])(O[H])C2(C(=O)OC([H])([H])[H])C([H])(O[H])C3(C([H])([H])[H])C([H])([H])C4(O[H])C([H])([H])C([H])(C([H])([H])[H])C([H])([H])C2([H])C2([H])C4([H])C1(C([H])([H])[H])OC([H])([H])C23OC(=O)C([H])([H])[H]

$$$$
38:0:1
     RDKit          3D

 66 70  0  0  1  0  0  0  0  0999 V2000
    3.8701   -0.6537   -2.7857 C   0  0  0  0  0  0  0  0  0  0  0  0
    3.8893   -1.1869   -1.4766 O   0  0  0  0  0  0  0  0  0  0  0  0
    5.0398   -1.5933   -0.9505 C   0  0  0  0  0  0  0  0  0  0  0  0
    6.1213   -1.4843   -1.5481 O   0  0  0  0  0  0  0  0  0  0  0  0
    4.9243   -2.3083    0.4420 C   0  0  2  0  0  0  0  0  0  0  0  0
    6.3332   -2.9969    0.7473 C   0  0  1  0  0  0  0  0  0  0  0  0
    7.2700   -1.9787    1.0014 O   0  0  0  0  0  0  0  0  0  0  0  0
    6.5135   -4.4426    1.4670 C   0  0  1  0  0  0  0  0  0  0  0  0
    7.8990   -4.6589    1.6360 O   0  0  0  0  0  0  0  0  0  0  0  0
    5.5599   -5.0088    2.6879 C   0  0  1  0  0  0  0  0  0  0  0  0
    6.1185   -6.3960    3.1155 C   0  0  0  0  0  0  0  0  0  0  0  0
    5.8223   -4.1970    3.8563 O   0  0  0  0  0  0  0  0  0  0  0  0
    5.4148   -2.8362    3.7841 C   0  0  0  0  0  0  0  0  0  0  0  0
    3.9930   -3.0005    3.3627 C   0  0  2  0  0  0  0  0  0  0  0  0
    3.4539   -3.6150    4.5897 O   0  0  0  0  0  0  0  0  0  0  0  0
    3.3423   -3.0536    5.8168 C   0  0  0  0  0  0  0  0  0  0  0  0
    2.8320   -4.0650    6.8193 C   0  0  0  0  0  0  0  0  0  0  0  0
    3.6394   -1.9024    6.1422 O   0  0  0  0  0  0  0  0  0  0  0  0
    4.0991   -3.8902    2.0079 C   0  0  2  0  0  0  0  0  0  0  0  0
    3.9271   -5.2674    2.3900 C   0  0  1  0  0  0  0  0  0  0  0  0
    2.2648   -4.8479    2.5665 C   0  0  2  0  0  0  0  0  0  0  0  0
    1.6231   -5.5527    3.6022 O   0  0  0  0  0  0  0  0  0  0  0  0
    1.7606   -5.5793    1.2432 C   0  0  0  0  0  0  0  0  0  0  0  0
    2.3679   -5.2002   -0.1937 C   0  0  1  0  0  0  0  0  0  0  0  0
    1.4110   -4.4213   -1.1224 C   0  0  0  0  0  0  0  0  0  0  0  0
    3.8556   -4.7074   -0.4260 C   0  0  0  0  0  0  0  0  0  0  0  0
    4.0082   -3.4527    0.4697 C   0  0  2  0  0  0  0  0  0  0  0  0
    1.8140   -3.1618    2.7529 C   0  0  0  0  0  0  0  0  0  0  0  0
    3.0710   -2.0136    2.7530 C   0  0  1  0  0  0  0  0  0  0  0  0
    2.5982   -0.8055    3.5929 C   0  0  0  0  0  0  0  0  0  0  0  0
    4.0017   -1.3787    1.4889 C   0  0  1  0  0  0  0  0  0  0  0  0
    4.8306   -0.3304    1.9406 O   0  0  0  0  0  0  0  0  0  0  0  0
    2.8471   -0.3822   -3.0262 H   0  0  0  0  0  0  0  0  0  0  0  0
    4.2184   -1.4155   -3.4836 H   0  0  0  0  0  0  0  0  0  0  0  0
    4.5012    0.2287   -2.8825 H   0  0  0  0  0  0  0  0  0  0  0  0
    6.7524   -3.3188   -0.2091 H   0  0  0  0  0  0  0  0  0  0  0  0
    7.1039   -1.6419    1.8759 H   0  0  0  0  0  0  0  0  0  0  0  0
    6.3382   -5.1629    0.6681 H   0  0  0  0  0  0  0  0  0  0  0  0
    8.1064   -5.5633    1.3836 H   0  0  0  0  0  0  0  0  0  0  0  0
    6.0165   -7.1492    2.3264 H   0  0  0  0  0  0  0  0  0  0  0  0
    5.6147   -6.7883    4.0022 H   0  0  0  0  0  0  0  0  0  0  0  0
    7.1727   -6.3272    3.3747 H   0  0  0  0  0  0  0  0  0  0  0  0
    5.5319   -2.3324    4.7426 H   0  0  0  0  0  0  0  0  0  0  0  0
    6.0013   -2.2956    3.0741 H   0  0  0  0  0  0  0  0  0  0  0  0
    3.5368   -4.8962    6.9007 H   0  0  0  0  0  0  0  0  0  0  0  0
    1.8666   -4.4486    6.4882 H   0  0  0  0  0  0  0  0  0  0  0  0
    2.7230   -3.5892    7.7900 H   0  0  0  0  0  0  0  0  0  0  0  0
    3.3231   -3.6802    1.4080 H   0  0  0  0  0  0  0  0  0  0  0  0
    3.8807   -5.6650    3.3953 H   0  0  0  0  0  0  0  0  0  0  0  0
    1.8413   -6.4749    3.4755 H   0  0  0  0  0  0  0  0  0  0  0  0
    2.0258   -6.6376    1.3655 H   0  0  0  0  0  0  0  0  0  0  0  0
    0.6726   -5.6116    1.1905 H   0  0  0  0  0  0  0  0  0  0  0  0
    2.3706   -6.1924   -0.6294 H   0  0  0  0  0  0  0  0  0  0  0  0
    1.2433   -3.3903   -0.8718 H   0  0  0  0  0  0  0  0  0  0  0  0
    0.4967   -4.9732   -1.1929 H   0  0  0  0  0  0  0  0  0  0  0  0
    1.7780   -4.3418   -2.1785 H   0  0  0  0  0  0  0  0  0  0  0  0
    4.5555   -5.5064   -0.2088 H   0  0  0  0  0  0  0  0  0  0  0  0
    4.0365   -4.3964   -1.4623 H   0  0  0  0  0  0  0  0  0  0  0  0
    3.1635   -2.8801   -0.0419 H   0  0  0  0  0  0  0  0  0  0  0  0
    1.1006   -2.7920    2.0387 H   0  0  0  0  0  0  0  0  0  0  0  0
    1.2651   -3.1060    3.6910 H   0  0  0  0  0  0  0  0  0  0  0  0
    2.0624   -0.0926    2.9614 H   0  0  0  0  0  0  0  0  0  0  0  0
    3.4305   -0.2866    4.0783 H   0  0  0  0  0  0  0  0  0  0  0  0
    1.9036   -1.1187    4.3688 H   0  0  0  0  0  0  0  0  0  0  0  0
    3.2629   -0.8663    0.8784 H   0  0  0  0  0  0  0  0  0  0  0  0
    4.2504    0.3397    2.2988 H   0  0  0  0  0  0  0  0  0  0  0  0
  1  2  1  0
  1 33  1  0
  1 34  1  0
  1 35  1  0
  2  3  1  0
  3  4  2  0
  5  3  1  6
  5 27  1  0
  5 31  1  0
  5  6  1  0
  6  7  1  0
  6  8  1  0
  6 36  1  6
  7 37  1  0
  8  9  1  0
  8 10  1  0
  8 38  1  6
  9 39  1  0
 10 20  1  0
 10 11  1  1
 10 12  1  0
 11 40  1  0
 11 41  1  0
 11 42  1  0
 12 13  1  0
 13 14  1  0
 13 43  1  0
 13 44  1  0
 14 29  1  0
 14 15  1  1
 14 19  1  0
 15 16  1  0
 16 17  1  0
 16 18  2  0
 17 45  1  0
 17 46  1  0
 17 47  1  0
 19 27  1  0
 19 20  1  0
 19 48  1  6
 20 21  1  0
 20 49  1  6
 21 22  1  1
 21 23  1  0
 21 28  1  0
 22 50  1  0
 23 24  1  0
 23 51  1  0
 23 52  1  0
 24 25  1  0
 24 26  1  0
 24 53  1  6
 25 54  1  0
 25 55  1  0
 25 56  1  0
 26 27  1  0
 26 57  1  0
 26 58  1  0
 27 59  1  1
 28 29  1  0
 28 60  1  0
 28 61  1  0
 29 30  1  1
 29 31  1  0
 30 62  1  0
 30 63  1  0
 30 64  1  0
 31 32  1  0
 31 65  1  6
 32 66  1  0
M  END
>  <i_m_ct_stereo_status>  (122) 
1

>  <s_m_source_file>  (122) 
/var/tmp/pbs.5076255.sched01/tmpxnahmhzs/434e81vi2s.sdf

>  <i_m_source_file_index>  (122) 
6

>  <i_lp_mmshare_version>  (122) 
48012

>  <i_f3d_flags>  (122) 
0

>  <s_epik_input>  (122) 
W0NIM11PQyg9TylbQ0BAXTEyW0NAQEhdM1tDQEBIXTRbQ0BdNShPQyg9TylbQ0gzXSlbQ0BAXShbQ0gzXSkoW0NASF0yW09IXSlbQ0gyXVtDQEBdKFtPSF0pKFtDSDJdW0NAQEhdKFtDSDNdKVtDSDJdMylbQ0hdNFtDQF0oW0NIM10pKE9bQ0gyXTUpW0NASF0oW09IXSlbQ0BASF0xW09IXQ==

>  <s_epik_cmdline>  (122) 
J2VwaWtfcHl0aG9uJywgJy1waHQnLCAnMi4wJywgJy1waCcsICc3LjAnLCAnLXRuJywgJzgnLCAnLW1hJywgJzIwMCcsICctaW1hZScsICc8aW5maWxlLm1hZT4nLCAnLW9tYWUnLCAnPG91dGZpbGUubWFlPic=

>  <r_lp_tautomer_probability>  (122) 
1

>  <r_epik_Ionization_Penalty>  (122) 
3.44228e-07

>  <r_epik_Ionization_Penalty_Charging>  (122) 
0

>  <r_epik_Ionization_Penalty_Neutral>  (122) 
3.44228e-07

>  <r_epik_State_Penalty>  (122) 
-0

>  <r_epik_Charging_Adjusted_Penalty>  (122) 
0

>  <i_epik_Tot_Q>  (122) 
0

>  <i_epik_Tot_abs_Q>  (122) 
0

>  <s_epik_Chemistry_Notes>  (122) 
This compound has an ester and may undergo hydrolysis at high or low pH.

>  <s_lp_Force_Field>  (122) 
OPLS3e

>  <r_lp_Energy>  (122) 
453.863

>  <b_lp_Chiralities_Consistent>  (122) 
1

>  <s_lp_Variant>  (122) 
38:0-1

>  <s_i_glide_gridfile>  (122) 
pfpi4k_grid

>  <i_i_glide_lignum>  (122) 
6

>  <i_i_glide_rotatable_bonds>  (122) 
8

>  <r_i_docking_score>  (122) 
-1.363

>  <r_i_glide_ligand_efficiency>  (122) 
-0.0425937

>  <r_i_glide_ligand_efficiency_sa>  (122) 
-0.135227

>  <r_i_glide_ligand_efficiency_ln>  (122) 
-0.305213

>  <r_i_glide_gscore>  (122) 
-1.363

>  <r_i_glide_lipo>  (122) 
-0.335875

>  <r_i_glide_hbond>  (122) 
-0.110917

>  <r_i_glide_metal>  (122) 
-0

>  <r_i_glide_rewards>  (122) 
-0.310155

>  <r_i_glide_evdw>  (122) 
-4.0855

>  <r_i_glide_ecoul>  (122) 
-3.75678

>  <r_i_glide_erotb>  (122) 
0.194421

>  <r_i_glide_esite>  (122) 
-0.0326803

>  <r_i_glide_emodel>  (122) 
-4.65971

>  <r_i_glide_energy>  (122) 
-7.84228

>  <r_i_glide_einternal>  (122) 
3.87318

>  <r_i_glide_intrahb_reward>  (122) 
-0

>  <i_i_glide_confnum>  (122) 
1

>  <i_i_glide_posenum>  (122) 
27

>  <r_i_glide_eff_state_penalty>  (122) 
0

>  <ligand_id>  (122) 
38

>  <original_smiles>  (122) 
COC(=O)C12C(O)C(O)C3(C)OCC4(OC(C)=O)C5C3C(O)(CC(C)CC51)CC4(C)C2O

>  <smiles>  (122) 
[H]OC1([H])C([H])(O[H])C2(C(=O)OC([H])([H])[H])C([H])(O[H])C3(C([H])([H])[H])C([H])([H])C4(O[H])C([H])([H])C([H])(C([H])([H])[H])C([H])([H])C2([H])C2([H])C4([H])C1(C([H])([H])[H])OC([H])([H])C23OC(=O)C([H])([H])[H]

$$$$
38:0:2
     RDKit          3D

 66 70  0  0  1  0  0  0  0  0999 V2000
    3.4410   -0.6635   -3.3883 C   0  0  0  0  0  0  0  0  0  0  0  0
    3.5638   -1.1028   -2.0488 O   0  0  0  0  0  0  0  0  0  0  0  0
    4.7524   -1.5525   -1.6089 C   0  0  0  0  0  0  0  0  0  0  0  0
    5.7319   -1.6366   -2.3154 O   0  0  0  0  0  0  0  0  0  0  0  0
    4.7630   -2.0161   -0.1045 C   0  0  2  0  0  0  0  0  0  0  0  0
    6.2540   -2.5375    0.2703 C   0  0  1  0  0  0  0  0  0  0  0  0
    7.1973   -1.4754    0.4381 O   0  0  0  0  0  0  0  0  0  0  0  0
    6.5100   -3.8685    1.1499 C   0  0  1  0  0  0  0  0  0  0  0  0
    7.9090   -4.0197    1.2368 O   0  0  0  0  0  0  0  0  0  0  0  0
    5.6338   -4.2891    2.4787 C   0  0  1  0  0  0  0  0  0  0  0  0
    6.3213   -5.5490    3.0964 C   0  0  0  0  0  0  0  0  0  0  0  0
    5.8047   -3.2889    3.5073 O   0  0  0  0  0  0  0  0  0  0  0  0
    5.4140   -1.9468    3.2000 C   0  0  0  0  0  0  0  0  0  0  0  0
    3.9979   -2.2758    2.8861 C   0  0  2  0  0  0  0  0  0  0  0  0
    3.5464   -2.7184    4.2266 O   0  0  0  0  0  0  0  0  0  0  0  0
    3.4590   -1.9824    5.3682 C   0  0  0  0  0  0  0  0  0  0  0  0
    3.0428   -2.8573    6.5445 C   0  0  0  0  0  0  0  0  0  0  0  0
    3.6849   -0.7858    5.5150 O   0  0  0  0  0  0  0  0  0  0  0  0
    4.0787   -3.3818    1.6975 C   0  0  2  0  0  0  0  0  0  0  0  0
    4.0319   -4.6913    2.2944 C   0  0  1  0  0  0  0  0  0  0  0  0
    2.3746   -4.3505    2.5035 C   0  0  2  0  0  0  0  0  0  0  0  0
    1.8137   -4.9317    3.6672 O   0  0  0  0  0  0  0  0  0  0  0  0
    1.8676   -5.3111    1.3492 C   0  0  0  0  0  0  0  0  0  0  0  0
    2.3677   -5.1709   -0.1635 C   0  0  1  0  0  0  0  0  0  0  0  0
    1.2832   -4.6329   -1.1301 C   0  0  0  0  0  0  0  0  0  0  0  0
    3.8117   -4.5975   -0.5420 C   0  0  0  0  0  0  0  0  0  0  0  0
    3.9259   -3.2077    0.1196 C   0  0  2  0  0  0  0  0  0  0  0  0
    1.7972   -2.6960    2.4397 C   0  0  0  0  0  0  0  0  0  0  0  0
    2.9607   -1.4780    2.2038 C   0  0  1  0  0  0  0  0  0  0  0  0
    2.4468   -0.1891    2.8902 C   0  0  0  0  0  0  0  0  0  0  0  0
    3.7901   -1.0157    0.8144 C   0  0  1  0  0  0  0  0  0  0  0  0
    4.5784    0.1284    1.0928 O   0  0  0  0  0  0  0  0  0  0  0  0
    2.4072   -0.3750   -3.5592 H   0  0  0  0  0  0  0  0  0  0  0  0
    3.6912   -1.4705   -4.0776 H   0  0  0  0  0  0  0  0  0  0  0  0
    4.0651    0.2082   -3.6050 H   0  0  0  0  0  0  0  0  0  0  0  0
    6.6763   -2.9466   -0.6475 H   0  0  0  0  0  0  0  0  0  0  0  0
    7.0108   -1.0012    1.2347 H   0  0  0  0  0  0  0  0  0  0  0  0
    6.3692   -4.6960    0.4545 H   0  0  0  0  0  0  0  0  0  0  0  0
    8.1227   -4.7500    1.7914 H   0  0  0  0  0  0  0  0  0  0  0  0
    6.2363   -6.4239    2.4469 H   0  0  0  0  0  0  0  0  0  0  0  0
    5.8842   -5.8087    4.0531 H   0  0  0  0  0  0  0  0  0  0  0  0
    7.3733   -5.4124    3.2966 H   0  0  0  0  0  0  0  0  0  0  0  0
    5.5811   -1.3023    4.0554 H   0  0  0  0  0  0  0  0  0  0  0  0
    5.9713   -1.4767    2.4400 H   0  0  0  0  0  0  0  0  0  0  0  0
    3.7818   -3.6394    6.7205 H   0  0  0  0  0  0  0  0  0  0  0  0
    2.0817   -3.3256    6.3396 H   0  0  0  0  0  0  0  0  0  0  0  0
    2.9550   -2.2558    7.4481 H   0  0  0  0  0  0  0  0  0  0  0  0
    3.2644   -3.3278    1.1034 H   0  0  0  0  0  0  0  0  0  0  0  0
    4.0526   -4.9093    3.3492 H   0  0  0  0  0  0  0  0  0  0  0  0
    2.0428   -5.8458    3.6688 H   0  0  0  0  0  0  0  0  0  0  0  0
    2.0837   -6.3431    1.6403 H   0  0  0  0  0  0  0  0  0  0  0  0
    0.7953   -5.3803    1.4101 H   0  0  0  0  0  0  0  0  0  0  0  0
    2.4263   -6.2220   -0.4253 H   0  0  0  0  0  0  0  0  0  0  0  0
    1.0210   -3.5963   -0.9392 H   0  0  0  0  0  0  0  0  0  0  0  0
    0.3712   -5.2168   -1.0416 H   0  0  0  0  0  0  0  0  0  0  0  0
    1.5281   -4.6555   -2.1841 H   0  0  0  0  0  0  0  0  0  0  0  0
    4.5770   -5.3194   -0.2629 H   0  0  0  0  0  0  0  0  0  0  0  0
    3.9212   -4.4535   -1.6126 H   0  0  0  0  0  0  0  0  0  0  0  0
    3.0306   -2.7814   -0.4528 H   0  0  0  0  0  0  0  0  0  0  0  0
    1.0216   -2.5207    1.7118 H   0  0  0  0  0  0  0  0  0  0  0  0
    1.2731   -2.5182    3.3809 H   0  0  0  0  0  0  0  0  0  0  0  0
    1.8328    0.3913    2.2049 H   0  0  0  0  0  0  0  0  0  0  0  0
    3.2580    0.4498    3.2465 H   0  0  0  0  0  0  0  0  0  0  0  0
    1.8187   -0.4094    3.7487 H   0  0  0  0  0  0  0  0  0  0  0  0
    2.9823   -0.6286    0.1988 H   0  0  0  0  0  0  0  0  0  0  0  0
    3.9904    0.8112    1.3269 H   0  0  0  0  0  0  0  0  0  0  0  0
  1  2  1  0
  1 33  1  0
  1 34  1  0
  1 35  1  0
  2  3  1  0
  3  4  2  0
  5  3  1  6
  5 27  1  0
  5 31  1  0
  5  6  1  0
  6  7  1  0
  6  8  1  0
  6 36  1  6
  7 37  1  0
  8  9  1  0
  8 10  1  0
  8 38  1  6
  9 39  1  0
 10 20  1  0
 10 11  1  1
 10 12  1  0
 11 40  1  0
 11 41  1  0
 11 42  1  0
 12 13  1  0
 13 14  1  0
 13 43  1  0
 13 44  1  0
 14 29  1  0
 14 15  1  1
 14 19  1  0
 15 16  1  0
 16 17  1  0
 16 18  2  0
 17 45  1  0
 17 46  1  0
 17 47  1  0
 19 27  1  0
 19 20  1  0
 19 48  1  6
 20 21  1  0
 20 49  1  6
 21 22  1  1
 21 23  1  0
 21 28  1  0
 22 50  1  0
 23 24  1  0
 23 51  1  0
 23 52  1  0
 24 25  1  0
 24 26  1  0
 24 53  1  6
 25 54  1  0
 25 55  1  0
 25 56  1  0
 26 27  1  0
 26 57  1  0
 26 58  1  0
 27 59  1  1
 28 29  1  0
 28 60  1  0
 28 61  1  0
 29 30  1  1
 29 31  1  0
 30 62  1  0
 30 63  1  0
 30 64  1  0
 31 32  1  0
 31 65  1  6
 32 66  1  0
M  END
>  <i_m_ct_stereo_status>  (123) 
1

>  <s_m_source_file>  (123) 
/var/tmp/pbs.5076255.sched01/tmpxnahmhzs/434e81vi2s.sdf

>  <i_m_source_file_index>  (123) 
6

>  <i_lp_mmshare_version>  (123) 
48012

>  <i_f3d_flags>  (123) 
0

>  <s_epik_input>  (123) 
W0NIM11PQyg9TylbQ0BAXTEyW0NAQEhdM1tDQEBIXTRbQ0BdNShPQyg9TylbQ0gzXSlbQ0BAXShbQ0gzXSkoW0NASF0yW09IXSlbQ0gyXVtDQEBdKFtPSF0pKFtDSDJdW0NAQEhdKFtDSDNdKVtDSDJdMylbQ0hdNFtDQF0oW0NIM10pKE9bQ0gyXTUpW0NASF0oW09IXSlbQ0BASF0xW09IXQ==

>  <s_epik_cmdline>  (123) 
J2VwaWtfcHl0aG9uJywgJy1waHQnLCAnMi4wJywgJy1waCcsICc3LjAnLCAnLXRuJywgJzgnLCAnLW1hJywgJzIwMCcsICctaW1hZScsICc8aW5maWxlLm1hZT4nLCAnLW9tYWUnLCAnPG91dGZpbGUubWFlPic=

>  <r_lp_tautomer_probability>  (123) 
1

>  <r_epik_Ionization_Penalty>  (123) 
3.44228e-07

>  <r_epik_Ionization_Penalty_Charging>  (123) 
0

>  <r_epik_Ionization_Penalty_Neutral>  (123) 
3.44228e-07

>  <r_epik_State_Penalty>  (123) 
-0

>  <r_epik_Charging_Adjusted_Penalty>  (123) 
0

>  <i_epik_Tot_Q>  (123) 
0

>  <i_epik_Tot_abs_Q>  (123) 
0

>  <s_epik_Chemistry_Notes>  (123) 
This compound has an ester and may undergo hydrolysis at high or low pH.

>  <s_lp_Force_Field>  (123) 
OPLS3e

>  <r_lp_Energy>  (123) 
453.863

>  <b_lp_Chiralities_Consistent>  (123) 
1

>  <s_lp_Variant>  (123) 
38:0-1

>  <s_i_glide_gridfile>  (123) 
pfpi4k_grid

>  <i_i_glide_lignum>  (123) 
6

>  <i_i_glide_rotatable_bonds>  (123) 
8

>  <r_i_docking_score>  (123) 
-1.28355

>  <r_i_glide_ligand_efficiency>  (123) 
-0.040111

>  <r_i_glide_ligand_efficiency_sa>  (123) 
-0.127345

>  <r_i_glide_ligand_efficiency_ln>  (123) 
-0.287423

>  <r_i_glide_gscore>  (123) 
-1.28355

>  <r_i_glide_lipo>  (123) 
-0.422653

>  <r_i_glide_hbond>  (123) 
-0.020137

>  <r_i_glide_metal>  (123) 
-0

>  <r_i_glide_rewards>  (123) 
-0.310155

>  <r_i_glide_evdw>  (123) 
-0.762515

>  <r_i_glide_ecoul>  (123) 
-4.2922

>  <r_i_glide_erotb>  (123) 
0.194421

>  <r_i_glide_esite>  (123) 
-0.0430741

>  <r_i_glide_emodel>  (123) 
-3.5332

>  <r_i_glide_energy>  (123) 
-5.05471

>  <r_i_glide_einternal>  (123) 
3.0174

>  <r_i_glide_intrahb_reward>  (123) 
-0

>  <i_i_glide_confnum>  (123) 
2

>  <i_i_glide_posenum>  (123) 
10

>  <r_i_glide_eff_state_penalty>  (123) 
0

>  <ligand_id>  (123) 
38

>  <original_smiles>  (123) 
COC(=O)C12C(O)C(O)C3(C)OCC4(OC(C)=O)C5C3C(O)(CC(C)CC51)CC4(C)C2O

>  <smiles>  (123) 
[H]OC1([H])C([H])(O[H])C2(C(=O)OC([H])([H])[H])C([H])(O[H])C3(C([H])([H])[H])C([H])([H])C4(O[H])C([H])([H])C([H])(C([H])([H])[H])C([H])([H])C2([H])C2([H])C4([H])C1(C([H])([H])[H])OC([H])([H])C23OC(=O)C([H])([H])[H]

$$$$
39:0:0
     RDKit          3D

 18 19  0  0  1  0  0  0  0  0999 V2000
    6.6060   -1.3030    1.1308 O   0  0  0  0  0  0  0  0  0  0  0  0
    6.0518   -1.7859    0.1491 C   0  0  0  0  0  0  0  0  0  0  0  0
    5.3833   -1.0281   -0.7413 N   0  0  0  0  0  0  0  0  0  0  0  0
    4.7531   -1.5347   -1.8994 C   0  0  0  0  0  0  0  0  0  0  0  0
    4.0747   -0.6805   -2.7933 C   0  0  0  0  0  0  0  0  0  0  0  0
    3.4337   -1.2208   -3.9224 C   0  0  0  0  0  0  0  0  0  0  0  0
    3.4941   -2.6059   -4.1623 C   0  0  0  0  0  0  0  0  0  0  0  0
    4.1942   -3.4559   -3.2923 C   0  0  0  0  0  0  0  0  0  0  0  0
    4.8118   -2.9222   -2.1507 C   0  0  0  0  0  0  0  0  0  0  0  0
    5.4907   -3.7650   -1.2392 N   0  0  0  0  0  0  0  0  0  0  0  0
    6.1163   -3.3248   -0.1331 C   0  0  0  0  0  0  0  0  0  0  0  0
    6.7229   -4.0783    0.6256 O   0  0  0  0  0  0  0  0  0  0  0  0
    5.3195   -0.0311   -0.5745 H   0  0  0  0  0  0  0  0  0  0  0  0
    4.0336    0.3850   -2.6269 H   0  0  0  0  0  0  0  0  0  0  0  0
    2.9017   -0.5772   -4.6035 H   0  0  0  0  0  0  0  0  0  0  0  0
    3.0118   -3.0354   -5.0248 H   0  0  0  0  0  0  0  0  0  0  0  0
    4.2357   -4.5099   -3.5047 H   0  0  0  0  0  0  0  0  0  0  0  0
    5.5095   -4.7550   -1.4415 H   0  0  0  0  0  0  0  0  0  0  0  0
  1  2  2  0
  2 11  1  0
  2  3  1  0
  3 13  1  0
  3  4  1  0
  4  9  2  0
  4  5  1  0
  5  6  2  0
  5 14  1  0
  6  7  1  0
  6 15  1  0
  7  8  2  0
  7 16  1  0
  8  9  1  0
  8 17  1  0
  9 10  1  0
 10 11  1  0
 10 18  1  0
 11 12  2  0
M  END
>  <i_m_ct_stereo_status>  (124) 
1

>  <s_m_source_file>  (124) 
/var/tmp/pbs.5076255.sched01/tmpxnahmhzs/434e81vi2s.sdf

>  <i_m_source_file_index>  (124) 
7

>  <i_lp_mmshare_version>  (124) 
48012

>  <i_f3d_flags>  (124) 
0

>  <s_epik_input>  (124) 
Tz1jKFtuSF0xKWMoW09IXSluYyhjMTIpW2NIXVtjSF1bY0hdW2NIXTI=

>  <s_epik_cmdline>  (124) 
J2VwaWtfcHl0aG9uJywgJy1waHQnLCAnMi4wJywgJy1waCcsICc3LjAnLCAnLXRuJywgJzgnLCAnLW1hJywgJzIwMCcsICctaW1hZScsICc8aW5maWxlLm1hZT4nLCAnLW9tYWUnLCAnPG91dGZpbGUubWFlPic=

>  <r_lp_tautomer_probability>  (124) 
1

>  <r_epik_Ionization_Penalty>  (124) 
0.000220699

>  <r_epik_Ionization_Penalty_Charging>  (124) 
0.000220699

>  <r_epik_Ionization_Penalty_Neutral>  (124) 
0

>  <r_epik_State_Penalty>  (124) 
-0

>  <r_epik_Charging_Adjusted_Penalty>  (124) 
0.000220699

>  <i_epik_Tot_Q>  (124) 
0

>  <i_epik_Tot_abs_Q>  (124) 
0

>  <s_lp_Force_Field>  (124) 
OPLS3e

>  <r_lp_Energy>  (124) 
25.2682

>  <b_lp_Chiralities_Consistent>  (124) 
1

>  <s_lp_Variant>  (124) 
39:0-1

>  <s_i_glide_gridfile>  (124) 
pfpi4k_grid

>  <i_i_glide_lignum>  (124) 
7

>  <i_i_glide_rotatable_bonds>  (124) 
0

>  <r_i_docking_score>  (124) 
-4.41689

>  <r_i_glide_ligand_efficiency>  (124) 
-0.368074

>  <r_i_glide_ligand_efficiency_sa>  (124) 
-0.84268

>  <r_i_glide_ligand_efficiency_ln>  (124) 
-1.26743

>  <r_i_glide_gscore>  (124) 
-4.41689

>  <r_i_glide_lipo>  (124) 
-0.500283

>  <r_i_glide_hbond>  (124) 
-0.268018

>  <r_i_glide_metal>  (124) 
-0

>  <r_i_glide_rewards>  (124) 
-2.25

>  <r_i_glide_evdw>  (124) 
-20.0136

>  <r_i_glide_ecoul>  (124) 
-2.32522

>  <r_i_glide_erotb>  (124) 
0

>  <r_i_glide_esite>  (124) 
-0.0491304

>  <r_i_glide_emodel>  (124) 
-28.2799

>  <r_i_glide_energy>  (124) 
-22.3388

>  <r_i_glide_einternal>  (124) 
0

>  <r_i_glide_intrahb_reward>  (124) 
-0

>  <i_i_glide_confnum>  (124) 
1

>  <i_i_glide_posenum>  (124) 
1

>  <r_i_glide_eff_state_penalty>  (124) 
0

>  <ligand_id>  (124) 
39

>  <original_smiles>  (124) 
O=c1[nH]c2ccccc2nc1O

>  <smiles>  (124) 
[H]c1c([H])c([H])c2c(c1[H])n([H])c(=O)c(=O)n2[H]

$$$$
39:0:1
     RDKit          3D

 18 19  0  0  1  0  0  0  0  0999 V2000
    5.5213   -0.4543    1.6601 O   0  0  0  0  0  0  0  0  0  0  0  0
    5.3069   -1.1587    0.6761 C   0  0  0  0  0  0  0  0  0  0  0  0
    4.8041   -0.6575   -0.4596 N   0  0  0  0  0  0  0  0  0  0  0  0
    4.5588   -1.3994   -1.6316 C   0  0  0  0  0  0  0  0  0  0  0  0
    4.0349   -0.7766   -2.7849 C   0  0  0  0  0  0  0  0  0  0  0  0
    3.7753   -1.5550   -3.9302 C   0  0  0  0  0  0  0  0  0  0  0  0
    4.0490   -2.9377   -3.9172 C   0  0  0  0  0  0  0  0  0  0  0  0
    4.6008   -3.5442   -2.7742 C   0  0  0  0  0  0  0  0  0  0  0  0
    4.8445   -2.7764   -1.6265 C   0  0  0  0  0  0  0  0  0  0  0  0
    5.3735   -3.3700   -0.4489 N   0  0  0  0  0  0  0  0  0  0  0  0
    5.6311   -2.6908    0.6807 C   0  0  0  0  0  0  0  0  0  0  0  0
    6.1080   -3.2295    1.6787 O   0  0  0  0  0  0  0  0  0  0  0  0
    4.6310    0.3387   -0.4972 H   0  0  0  0  0  0  0  0  0  0  0  0
    3.8191    0.2815   -2.7978 H   0  0  0  0  0  0  0  0  0  0  0  0
    3.3519   -1.0919   -4.8064 H   0  0  0  0  0  0  0  0  0  0  0  0
    3.8259   -3.5519   -4.7695 H   0  0  0  0  0  0  0  0  0  0  0  0
    4.7962   -4.6061   -2.7710 H   0  0  0  0  0  0  0  0  0  0  0  0
    5.5518   -4.3598   -0.4637 H   0  0  0  0  0  0  0  0  0  0  0  0
  1  2  2  0
  2 11  1  0
  2  3  1  0
  3 13  1  0
  3  4  1  0
  4  9  2  0
  4  5  1  0
  5  6  2  0
  5 14  1  0
  6  7  1  0
  6 15  1  0
  7  8  2  0
  7 16  1  0
  8  9  1  0
  8 17  1  0
  9 10  1  0
 10 11  1  0
 10 18  1  0
 11 12  2  0
M  END
>  <i_m_ct_stereo_status>  (125) 
1

>  <s_m_source_file>  (125) 
/var/tmp/pbs.5076255.sched01/tmpxnahmhzs/434e81vi2s.sdf

>  <i_m_source_file_index>  (125) 
7

>  <i_lp_mmshare_version>  (125) 
48012

>  <i_f3d_flags>  (125) 
0

>  <s_epik_input>  (125) 
Tz1jKFtuSF0xKWMoW09IXSluYyhjMTIpW2NIXVtjSF1bY0hdW2NIXTI=

>  <s_epik_cmdline>  (125) 
J2VwaWtfcHl0aG9uJywgJy1waHQnLCAnMi4wJywgJy1waCcsICc3LjAnLCAnLXRuJywgJzgnLCAnLW1hJywgJzIwMCcsICctaW1hZScsICc8aW5maWxlLm1hZT4nLCAnLW9tYWUnLCAnPG91dGZpbGUubWFlPic=

>  <r_lp_tautomer_probability>  (125) 
1

>  <r_epik_Ionization_Penalty>  (125) 
0.000220699

>  <r_epik_Ionization_Penalty_Charging>  (125) 
0.000220699

>  <r_epik_Ionization_Penalty_Neutral>  (125) 
0

>  <r_epik_State_Penalty>  (125) 
-0

>  <r_epik_Charging_Adjusted_Penalty>  (125) 
0.000220699

>  <i_epik_Tot_Q>  (125) 
0

>  <i_epik_Tot_abs_Q>  (125) 
0

>  <s_lp_Force_Field>  (125) 
OPLS3e

>  <r_lp_Energy>  (125) 
25.2682

>  <b_lp_Chiralities_Consistent>  (125) 
1

>  <s_lp_Variant>  (125) 
39:0-1

>  <s_i_glide_gridfile>  (125) 
pfpi4k_grid

>  <i_i_glide_lignum>  (125) 
7

>  <i_i_glide_rotatable_bonds>  (125) 
0

>  <r_i_docking_score>  (125) 
-4.3744

>  <r_i_glide_ligand_efficiency>  (125) 
-0.364534

>  <r_i_glide_ligand_efficiency_sa>  (125) 
-0.834573

>  <r_i_glide_ligand_efficiency_ln>  (125) 
-1.25524

>  <r_i_glide_gscore>  (125) 
-4.3744

>  <r_i_glide_lipo>  (125) 
-0.397497

>  <r_i_glide_hbond>  (125) 
-0.362203

>  <r_i_glide_metal>  (125) 
-0

>  <r_i_glide_rewards>  (125) 
-2.25

>  <r_i_glide_evdw>  (125) 
-19.9999

>  <r_i_glide_ecoul>  (125) 
-2.25492

>  <r_i_glide_erotb>  (125) 
0

>  <r_i_glide_esite>  (125) 
-0.0264691

>  <r_i_glide_emodel>  (125) 
-28.1447

>  <r_i_glide_energy>  (125) 
-22.2548

>  <r_i_glide_einternal>  (125) 
0

>  <r_i_glide_intrahb_reward>  (125) 
-0

>  <i_i_glide_confnum>  (125) 
1

>  <i_i_glide_posenum>  (125) 
7

>  <r_i_glide_eff_state_penalty>  (125) 
0

>  <ligand_id>  (125) 
39

>  <original_smiles>  (125) 
O=c1[nH]c2ccccc2nc1O

>  <smiles>  (125) 
[H]c1c([H])c([H])c2c(c1[H])n([H])c(=O)c(=O)n2[H]

$$$$
39:0:2
     RDKit          3D

 18 19  0  0  1  0  0  0  0  0999 V2000
    2.1989   -5.0972    0.7599 O   0  0  0  0  0  0  0  0  0  0  0  0
    2.6968   -4.1422    0.1657 C   0  0  0  0  0  0  0  0  0  0  0  0
    2.4013   -3.8550   -1.1161 N   0  0  0  0  0  0  0  0  0  0  0  0
    3.0049   -2.8142   -1.8556 C   0  0  0  0  0  0  0  0  0  0  0  0
    2.6704   -2.6086   -3.2092 C   0  0  0  0  0  0  0  0  0  0  0  0
    3.2636   -1.5413   -3.9107 C   0  0  0  0  0  0  0  0  0  0  0  0
    4.1788   -0.6913   -3.2627 C   0  0  0  0  0  0  0  0  0  0  0  0
    4.5297   -0.9133   -1.9176 C   0  0  0  0  0  0  0  0  0  0  0  0
    3.9389   -1.9735   -1.2100 C   0  0  0  0  0  0  0  0  0  0  0  0
    4.2649   -2.2097    0.1492 N   0  0  0  0  0  0  0  0  0  0  0  0
    3.7363   -3.2058    0.8844 C   0  0  0  0  0  0  0  0  0  0  0  0
    4.0393   -3.3947    2.0611 O   0  0  0  0  0  0  0  0  0  0  0  0
    1.7855   -4.4809   -1.6171 H   0  0  0  0  0  0  0  0  0  0  0  0
    1.9528   -3.2508   -3.7017 H   0  0  0  0  0  0  0  0  0  0  0  0
    3.0101   -1.3538   -4.9404 H   0  0  0  0  0  0  0  0  0  0  0  0
    4.6035    0.1385   -3.7989 H   0  0  0  0  0  0  0  0  0  0  0  0
    5.2276   -0.2559   -1.4224 H   0  0  0  0  0  0  0  0  0  0  0  0
    4.9192   -1.5894    0.5991 H   0  0  0  0  0  0  0  0  0  0  0  0
  1  2  2  0
  2 11  1  0
  2  3  1  0
  3 13  1  0
  3  4  1  0
  4  9  2  0
  4  5  1  0
  5  6  2  0
  5 14  1  0
  6  7  1  0
  6 15  1  0
  7  8  2  0
  7 16  1  0
  8  9  1  0
  8 17  1  0
  9 10  1  0
 10 11  1  0
 10 18  1  0
 11 12  2  0
M  END
>  <i_m_ct_stereo_status>  (126) 
1

>  <s_m_source_file>  (126) 
/var/tmp/pbs.5076255.sched01/tmpxnahmhzs/434e81vi2s.sdf

>  <i_m_source_file_index>  (126) 
7

>  <i_lp_mmshare_version>  (126) 
48012

>  <i_f3d_flags>  (126) 
0

>  <s_epik_input>  (126) 
Tz1jKFtuSF0xKWMoW09IXSluYyhjMTIpW2NIXVtjSF1bY0hdW2NIXTI=

>  <s_epik_cmdline>  (126) 
J2VwaWtfcHl0aG9uJywgJy1waHQnLCAnMi4wJywgJy1waCcsICc3LjAnLCAnLXRuJywgJzgnLCAnLW1hJywgJzIwMCcsICctaW1hZScsICc8aW5maWxlLm1hZT4nLCAnLW9tYWUnLCAnPG91dGZpbGUubWFlPic=

>  <r_lp_tautomer_probability>  (126) 
1

>  <r_epik_Ionization_Penalty>  (126) 
0.000220699

>  <r_epik_Ionization_Penalty_Charging>  (126) 
0.000220699

>  <r_epik_Ionization_Penalty_Neutral>  (126) 
0

>  <r_epik_State_Penalty>  (126) 
-0

>  <r_epik_Charging_Adjusted_Penalty>  (126) 
0.000220699

>  <i_epik_Tot_Q>  (126) 
0

>  <i_epik_Tot_abs_Q>  (126) 
0

>  <s_lp_Force_Field>  (126) 
OPLS3e

>  <r_lp_Energy>  (126) 
25.2682

>  <b_lp_Chiralities_Consistent>  (126) 
1

>  <s_lp_Variant>  (126) 
39:0-1

>  <s_i_glide_gridfile>  (126) 
pfpi4k_grid

>  <i_i_glide_lignum>  (126) 
7

>  <i_i_glide_rotatable_bonds>  (126) 
0

>  <r_i_docking_score>  (126) 
-4.07135

>  <r_i_glide_ligand_efficiency>  (126) 
-0.339279

>  <r_i_glide_ligand_efficiency_sa>  (126) 
-0.776756

>  <r_i_glide_ligand_efficiency_ln>  (126) 
-1.16828

>  <r_i_glide_gscore>  (126) 
-4.07135

>  <r_i_glide_lipo>  (126) 
-0.402736

>  <r_i_glide_hbond>  (126) 
-0.0628464

>  <r_i_glide_metal>  (126) 
-0

>  <r_i_glide_rewards>  (126) 
-2.25

>  <r_i_glide_evdw>  (126) 
-16.7818

>  <r_i_glide_ecoul>  (126) 
-3.18185

>  <r_i_glide_erotb>  (126) 
0

>  <r_i_glide_esite>  (126) 
-0.039401

>  <r_i_glide_emodel>  (126) 
-25.4494

>  <r_i_glide_energy>  (126) 
-19.9637

>  <r_i_glide_einternal>  (126) 
0

>  <r_i_glide_intrahb_reward>  (126) 
-0

>  <i_i_glide_confnum>  (126) 
2

>  <i_i_glide_posenum>  (126) 
23

>  <r_i_glide_eff_state_penalty>  (126) 
0

>  <ligand_id>  (126) 
39

>  <original_smiles>  (126) 
O=c1[nH]c2ccccc2nc1O

>  <smiles>  (126) 
[H]c1c([H])c([H])c2c(c1[H])n([H])c(=O)c(=O)n2[H]

$$$$
40:0:0
     RDKit          3D

 18 18  0  0  1  0  0  0  0  0999 V2000
   -0.3748    0.9214    2.5635 C   0  0  0  0  0  0  0  0  0  0  0  0
   -0.8767    0.5965    3.8860 N   0  0  0  0  0  0  0  0  0  0  0  0
   -0.7966   -0.6772    4.3552 N   0  0  0  0  0  0  0  0  0  0  0  0
   -1.3468   -0.6763    5.5293 N   0  0  0  0  0  0  0  0  0  0  0  0
   -1.7814    0.5835    5.8888 N   0  0  0  0  0  0  0  0  0  0  0  0
   -1.4503    1.3443    4.8441 C   0  0  0  0  0  0  0  0  0  0  0  0
   -1.7825    3.0842    4.7256 S   0  0  0  0  0  0  0  0  0  0  0  0
   -0.1561    3.6757    4.1545 C   0  0  0  0  0  0  0  0  0  0  0  0
   -0.0661    5.1962    4.0825 C   0  0  0  0  0  0  0  0  0  0  0  0
    0.1236    5.7492    2.8847 N   0  0  0  0  0  0  0  0  0  0  0  0
   -0.1833    5.8772    5.1026 O   0  0  0  0  0  0  0  0  0  0  0  0
   -0.9071    1.7737    2.1347 H   0  0  0  0  0  0  0  0  0  0  0  0
   -0.5368    0.1030    1.8679 H   0  0  0  0  0  0  0  0  0  0  0  0
    0.6980    1.1234    2.6140 H   0  0  0  0  0  0  0  0  0  0  0  0
    0.6370    3.2777    4.7908 H   0  0  0  0  0  0  0  0  0  0  0  0
    0.0445    3.3539    3.1343 H   0  0  0  0  0  0  0  0  0  0  0  0
    0.2044    5.1702    2.0136 H   0  0  0  0  0  0  0  0  0  0  0  0
    0.2095    6.7529    2.7873 H   0  0  0  0  0  0  0  0  0  0  0  0
  1  2  1  0
  1 12  1  0
  1 13  1  0
  1 14  1  0
  2  6  1  0
  2  3  1  0
  3  4  2  0
  4  5  1  0
  5  6  2  0
  6  7  1  0
  7  8  1  0
  8  9  1  0
  8 15  1  0
  8 16  1  0
  9 10  1  0
  9 11  2  0
 10 17  1  0
 10 18  1  0
M  END
>  <i_m_ct_stereo_status>  (127) 
1

>  <s_m_source_file>  (127) 
/var/tmp/pbs.5076255.sched01/tmpxnahmhzs/434e81vi2s.sdf

>  <i_m_source_file_index>  (127) 
8

>  <i_lp_mmshare_version>  (127) 
48012

>  <i_f3d_flags>  (127) 
0

>  <s_epik_input>  (127) 
W0NIM11uMW5ubmMxU1tDSDJdQyg9TylbTkgyXQ==

>  <s_epik_cmdline>  (127) 
J2VwaWtfcHl0aG9uJywgJy1waHQnLCAnMi4wJywgJy1waCcsICc3LjAnLCAnLXRuJywgJzgnLCAnLW1hJywgJzIwMCcsICctaW1hZScsICc8aW5maWxlLm1hZT4nLCAnLW9tYWUnLCAnPG91dGZpbGUubWFlPic=

>  <r_lp_tautomer_probability>  (127) 
1

>  <r_epik_Ionization_Penalty>  (127) 
3.10004e-07

>  <r_epik_Ionization_Penalty_Charging>  (127) 
0

>  <r_epik_Ionization_Penalty_Neutral>  (127) 
3.10004e-07

>  <r_epik_State_Penalty>  (127) 
-0

>  <r_epik_Charging_Adjusted_Penalty>  (127) 
0

>  <i_epik_Tot_Q>  (127) 
0

>  <i_epik_Tot_abs_Q>  (127) 
0

>  <s_lp_Force_Field>  (127) 
OPLS3e

>  <r_lp_Energy>  (127) 
2.11943

>  <b_lp_Chiralities_Consistent>  (127) 
1

>  <s_lp_Variant>  (127) 
40:0-1

>  <s_i_glide_gridfile>  (127) 
pfpi4k_grid

>  <i_i_glide_lignum>  (127) 
8

>  <i_i_glide_rotatable_bonds>  (127) 
3

>  <r_i_docking_score>  (127) 
-4.55577

>  <r_i_glide_ligand_efficiency>  (127) 
-0.414161

>  <r_i_glide_ligand_efficiency_sa>  (127) 
-0.921085

>  <r_i_glide_ligand_efficiency_ln>  (127) 
-1.34076

>  <r_i_glide_gscore>  (127) 
-4.55577

>  <r_i_glide_lipo>  (127) 
0

>  <r_i_glide_hbond>  (127) 
-0.287568

>  <r_i_glide_metal>  (127) 
-0

>  <r_i_glide_rewards>  (127) 
-2.2282

>  <r_i_glide_evdw>  (127) 
-11.6774

>  <r_i_glide_ecoul>  (127) 
-14.0508

>  <r_i_glide_erotb>  (127) 
1.03557

>  <r_i_glide_esite>  (127) 
-0.384077

>  <r_i_glide_emodel>  (127) 
-35.4805

>  <r_i_glide_energy>  (127) 
-25.7282

>  <r_i_glide_einternal>  (127) 
0.493413

>  <r_i_glide_intrahb_reward>  (127) 
-0

>  <i_i_glide_confnum>  (127) 
2

>  <i_i_glide_posenum>  (127) 
40

>  <r_i_glide_eff_state_penalty>  (127) 
0

>  <ligand_id>  (127) 
40

>  <original_smiles>  (127) 
Cn1nnnc1SCC(N)=O

>  <smiles>  (127) 
[H]N([H])C(=O)C([H])([H])Sc1nnnn1C([H])([H])[H]

$$$$
40:0:1
     RDKit          3D

 18 18  0  0  1  0  0  0  0  0999 V2000
    5.7311   -5.8874    0.8640 C   0  0  0  0  0  0  0  0  0  0  0  0
    4.3268   -5.5861    0.6585 N   0  0  0  0  0  0  0  0  0  0  0  0
    3.3750   -6.3729    1.2162 N   0  0  0  0  0  0  0  0  0  0  0  0
    2.2273   -5.8644    0.8838 N   0  0  0  0  0  0  0  0  0  0  0  0
    2.3838   -4.7321    0.1081 N   0  0  0  0  0  0  0  0  0  0  0  0
    3.7009   -4.6049   -0.0089 C   0  0  0  0  0  0  0  0  0  0  0  0
    4.5327   -3.3181   -0.8890 S   0  0  0  0  0  0  0  0  0  0  0  0
    3.5818   -3.3726   -2.4393 C   0  0  0  0  0  0  0  0  0  0  0  0
    3.6349   -2.0685   -3.2307 C   0  0  0  0  0  0  0  0  0  0  0  0
    3.0158   -1.0088   -2.7165 N   0  0  0  0  0  0  0  0  0  0  0  0
    4.2111   -2.0172   -4.3142 O   0  0  0  0  0  0  0  0  0  0  0  0
    6.3447   -5.4491    0.0776 H   0  0  0  0  0  0  0  0  0  0  0  0
    5.8738   -6.9682    0.8616 H   0  0  0  0  0  0  0  0  0  0  0  0
    6.0580   -5.5018    1.8308 H   0  0  0  0  0  0  0  0  0  0  0  0
    3.9843   -4.1806   -3.0505 H   0  0  0  0  0  0  0  0  0  0  0  0
    2.5337   -3.6003   -2.2479 H   0  0  0  0  0  0  0  0  0  0  0  0
    2.4775   -1.0765   -1.8521 H   0  0  0  0  0  0  0  0  0  0  0  0
    3.0228   -0.1335   -3.2180 H   0  0  0  0  0  0  0  0  0  0  0  0
  1  2  1  0
  1 12  1  0
  1 13  1  0
  1 14  1  0
  2  6  1  0
  2  3  1  0
  3  4  2  0
  4  5  1  0
  5  6  2  0
  6  7  1  0
  7  8  1  0
  8  9  1  0
  8 15  1  0
  8 16  1  0
  9 10  1  0
  9 11  2  0
 10 17  1  0
 10 18  1  0
M  END
>  <i_m_ct_stereo_status>  (128) 
1

>  <s_m_source_file>  (128) 
/var/tmp/pbs.5076255.sched01/tmpxnahmhzs/434e81vi2s.sdf

>  <i_m_source_file_index>  (128) 
8

>  <i_lp_mmshare_version>  (128) 
48012

>  <i_f3d_flags>  (128) 
0

>  <s_epik_input>  (128) 
W0NIM11uMW5ubmMxU1tDSDJdQyg9TylbTkgyXQ==

>  <s_epik_cmdline>  (128) 
J2VwaWtfcHl0aG9uJywgJy1waHQnLCAnMi4wJywgJy1waCcsICc3LjAnLCAnLXRuJywgJzgnLCAnLW1hJywgJzIwMCcsICctaW1hZScsICc8aW5maWxlLm1hZT4nLCAnLW9tYWUnLCAnPG91dGZpbGUubWFlPic=

>  <r_lp_tautomer_probability>  (128) 
1

>  <r_epik_Ionization_Penalty>  (128) 
3.10004e-07

>  <r_epik_Ionization_Penalty_Charging>  (128) 
0

>  <r_epik_Ionization_Penalty_Neutral>  (128) 
3.10004e-07

>  <r_epik_State_Penalty>  (128) 
-0

>  <r_epik_Charging_Adjusted_Penalty>  (128) 
0

>  <i_epik_Tot_Q>  (128) 
0

>  <i_epik_Tot_abs_Q>  (128) 
0

>  <s_lp_Force_Field>  (128) 
OPLS3e

>  <r_lp_Energy>  (128) 
2.11943

>  <b_lp_Chiralities_Consistent>  (128) 
1

>  <s_lp_Variant>  (128) 
40:0-1

>  <s_i_glide_gridfile>  (128) 
pfpi4k_grid

>  <i_i_glide_lignum>  (128) 
8

>  <i_i_glide_rotatable_bonds>  (128) 
3

>  <r_i_docking_score>  (128) 
-4.29059

>  <r_i_glide_ligand_efficiency>  (128) 
-0.390053

>  <r_i_glide_ligand_efficiency_sa>  (128) 
-0.867471

>  <r_i_glide_ligand_efficiency_ln>  (128) 
-1.26272

>  <r_i_glide_gscore>  (128) 
-4.29059

>  <r_i_glide_lipo>  (128) 
-0.119702

>  <r_i_glide_hbond>  (128) 
-0.456

>  <r_i_glide_metal>  (128) 
-0

>  <r_i_glide_rewards>  (128) 
-2.48585

>  <r_i_glide_evdw>  (128) 
-17.2303

>  <r_i_glide_ecoul>  (128) 
-8.2437

>  <r_i_glide_erotb>  (128) 
1.03557

>  <r_i_glide_esite>  (128) 
-0.166527

>  <r_i_glide_emodel>  (128) 
-35.0381

>  <r_i_glide_energy>  (128) 
-25.474

>  <r_i_glide_einternal>  (128) 
0.457168

>  <r_i_glide_intrahb_reward>  (128) 
-0

>  <i_i_glide_confnum>  (128) 
3

>  <i_i_glide_posenum>  (128) 
3

>  <r_i_glide_eff_state_penalty>  (128) 
0

>  <ligand_id>  (128) 
40

>  <original_smiles>  (128) 
Cn1nnnc1SCC(N)=O

>  <smiles>  (128) 
[H]N([H])C(=O)C([H])([H])Sc1nnnn1C([H])([H])[H]

$$$$
40:0:2
     RDKit          3D

 18 18  0  0  1  0  0  0  0  0999 V2000
    2.8221   -0.0941    1.3864 C   0  0  0  0  0  0  0  0  0  0  0  0
    4.1164   -0.7367    1.2690 N   0  0  0  0  0  0  0  0  0  0  0  0
    5.1565   -0.3067    2.0216 N   0  0  0  0  0  0  0  0  0  0  0  0
    6.1731   -1.0604    1.7228 N   0  0  0  0  0  0  0  0  0  0  0  0
    5.8377   -2.0014    0.7703 N   0  0  0  0  0  0  0  0  0  0  0  0
    4.5545   -1.7675    0.5335 C   0  0  0  0  0  0  0  0  0  0  0  0
    3.5387   -2.7020   -0.5607 S   0  0  0  0  0  0  0  0  0  0  0  0
    4.0871   -1.9432   -2.1144 C   0  0  0  0  0  0  0  0  0  0  0  0
    3.4966   -2.6225   -3.3460 C   0  0  0  0  0  0  0  0  0  0  0  0
    2.1746   -2.6579   -3.4417 N   0  0  0  0  0  0  0  0  0  0  0  0
    4.2124   -3.0946   -4.2205 O   0  0  0  0  0  0  0  0  0  0  0  0
    2.2242   -0.2571    0.4913 H   0  0  0  0  0  0  0  0  0  0  0  0
    2.9585    0.9792    1.5096 H   0  0  0  0  0  0  0  0  0  0  0  0
    2.2853   -0.4826    2.2534 H   0  0  0  0  0  0  0  0  0  0  0  0
    3.7907   -0.8940   -2.1146 H   0  0  0  0  0  0  0  0  0  0  0  0
    5.1747   -1.9825   -2.1728 H   0  0  0  0  0  0  0  0  0  0  0  0
    1.6162   -2.2538   -2.7008 H   0  0  0  0  0  0  0  0  0  0  0  0
    1.7431   -3.1019   -4.2384 H   0  0  0  0  0  0  0  0  0  0  0  0
  1  2  1  0
  1 12  1  0
  1 13  1  0
  1 14  1  0
  2  6  1  0
  2  3  1  0
  3  4  2  0
  4  5  1  0
  5  6  2  0
  6  7  1  0
  7  8  1  0
  8  9  1  0
  8 15  1  0
  8 16  1  0
  9 10  1  0
  9 11  2  0
 10 17  1  0
 10 18  1  0
M  END
>  <i_m_ct_stereo_status>  (129) 
1

>  <s_m_source_file>  (129) 
/var/tmp/pbs.5076255.sched01/tmpxnahmhzs/434e81vi2s.sdf

>  <i_m_source_file_index>  (129) 
8

>  <i_lp_mmshare_version>  (129) 
48012

>  <i_f3d_flags>  (129) 
0

>  <s_epik_input>  (129) 
W0NIM11uMW5ubmMxU1tDSDJdQyg9TylbTkgyXQ==

>  <s_epik_cmdline>  (129) 
J2VwaWtfcHl0aG9uJywgJy1waHQnLCAnMi4wJywgJy1waCcsICc3LjAnLCAnLXRuJywgJzgnLCAnLW1hJywgJzIwMCcsICctaW1hZScsICc8aW5maWxlLm1hZT4nLCAnLW9tYWUnLCAnPG91dGZpbGUubWFlPic=

>  <r_lp_tautomer_probability>  (129) 
1

>  <r_epik_Ionization_Penalty>  (129) 
3.10004e-07

>  <r_epik_Ionization_Penalty_Charging>  (129) 
0

>  <r_epik_Ionization_Penalty_Neutral>  (129) 
3.10004e-07

>  <r_epik_State_Penalty>  (129) 
-0

>  <r_epik_Charging_Adjusted_Penalty>  (129) 
0

>  <i_epik_Tot_Q>  (129) 
0

>  <i_epik_Tot_abs_Q>  (129) 
0

>  <s_lp_Force_Field>  (129) 
OPLS3e

>  <r_lp_Energy>  (129) 
2.11943

>  <b_lp_Chiralities_Consistent>  (129) 
1

>  <s_lp_Variant>  (129) 
40:0-1

>  <s_i_glide_gridfile>  (129) 
pfpi4k_grid

>  <i_i_glide_lignum>  (129) 
8

>  <i_i_glide_rotatable_bonds>  (129) 
3

>  <r_i_docking_score>  (129) 
-3.48445

>  <r_i_glide_ligand_efficiency>  (129) 
-0.316768

>  <r_i_glide_ligand_efficiency_sa>  (129) 
-0.704486

>  <r_i_glide_ligand_efficiency_ln>  (129) 
-1.02547

>  <r_i_glide_gscore>  (129) 
-3.48445

>  <r_i_glide_lipo>  (129) 
0

>  <r_i_glide_hbond>  (129) 
-0.238314

>  <r_i_glide_metal>  (129) 
-0

>  <r_i_glide_rewards>  (129) 
-2.51735

>  <r_i_glide_evdw>  (129) 
-18.7615

>  <r_i_glide_ecoul>  (129) 
-5.4922

>  <r_i_glide_erotb>  (129) 
1.03557

>  <r_i_glide_esite>  (129) 
-0.00245118

>  <r_i_glide_emodel>  (129) 
-31.8729

>  <r_i_glide_energy>  (129) 
-24.2537

>  <r_i_glide_einternal>  (129) 
0.700611

>  <r_i_glide_intrahb_reward>  (129) 
-0

>  <i_i_glide_confnum>  (129) 
6

>  <i_i_glide_posenum>  (129) 
4

>  <r_i_glide_eff_state_penalty>  (129) 
0

>  <ligand_id>  (129) 
40

>  <original_smiles>  (129) 
Cn1nnnc1SCC(N)=O

>  <smiles>  (129) 
[H]N([H])C(=O)C([H])([H])Sc1nnnn1C([H])([H])[H]

$$$$
41:0:0
     RDKit          3D

 71 76  0  0  1  0  0  0  0  0999 V2000
    0.7999   -8.7360    4.0859 C   0  0  0  0  0  0  0  0  0  0  0  0
    2.3369   -8.7428    3.9595 C   0  0  2  0  0  0  0  0  0  0  0  0
    2.9580   -8.7581    5.3534 C   0  0  0  0  0  0  0  0  0  0  0  0
    4.4726   -8.7580    5.2481 C   0  0  0  0  0  0  0  0  0  0  0  0
    5.0220   -7.4557    4.6151 C   0  0  2  0  0  0  0  0  0  0  0  0
    5.0463   -6.2303    5.5814 C   0  0  1  0  0  0  0  0  0  0  0  0
    4.7445   -6.5989    6.9097 O   0  0  0  0  0  0  0  0  0  0  0  0
    6.2787   -5.3294    5.5354 C   0  0  0  0  0  0  0  0  0  0  0  0
    5.3809   -4.2691    4.9078 C   0  0  2  0  0  0  0  0  0  0  0  0
    5.4070   -3.1192    5.7236 O   0  0  0  0  0  0  0  0  0  0  0  0
    4.2138   -5.1411    5.0952 O   0  0  0  0  0  0  0  0  0  0  0  0
    5.3436   -3.8585    3.3860 C   0  0  2  0  0  0  0  0  0  0  0  0
    4.0121   -3.0789    3.0844 C   0  0  1  0  0  0  0  0  0  0  0  0
    3.4255   -2.3878    4.1797 O   0  0  0  0  0  0  0  0  0  0  0  0
    3.9760   -2.0491    1.9203 C   0  0  1  0  0  0  0  0  0  0  0  0
    4.4984   -0.8012    2.3463 O   0  0  0  0  0  0  0  0  0  0  0  0
    4.6101   -2.4208    0.5506 C   0  0  1  0  0  0  0  0  0  0  0  0
    4.0307   -1.5352   -0.3950 O   0  0  0  0  0  0  0  0  0  0  0  0
    6.1461   -2.2336    0.4853 C   0  0  0  0  0  0  0  0  0  0  0  0
    6.7646   -3.6307    0.5540 C   0  0  0  0  0  0  0  0  0  0  0  0
    5.5960   -4.6133    0.8323 C   0  0  1  0  0  0  0  0  0  0  0  0
    5.5849   -5.0540    2.3565 C   0  0  1  0  0  0  0  0  0  0  0  0
    6.9815   -5.7541    2.5046 C   0  0  0  0  0  0  0  0  0  0  0  0
    4.4547   -5.9365    2.5357 O   0  0  0  0  0  0  0  0  0  0  0  0
    4.3982   -7.2490    3.1621 C   0  0  1  0  0  0  0  0  0  0  0  0
    4.9295   -8.2381    2.1284 C   0  0  0  0  0  0  0  0  0  0  0  0
    6.0424   -8.7700    2.1615 O   0  0  0  0  0  0  0  0  0  0  0  0
    3.9275   -8.5017    1.0301 C   0  0  0  0  0  0  0  0  0  0  0  0
    2.6168   -7.9322    1.5984 C   0  0  0  0  0  0  0  0  0  0  0  0
    2.8643   -7.5661    3.0877 C   0  0  1  0  0  0  0  0  0  0  0  0
    4.4049   -3.8941    0.1226 C   0  0  0  0  0  0  0  0  0  0  0  0
    2.9796   -4.4667    0.3256 C   0  0  0  0  0  0  0  0  0  0  0  0
    4.6278   -4.0256   -1.4114 C   0  0  0  0  0  0  0  0  0  0  0  0
    0.4514   -7.8373    4.5978 H   0  0  0  0  0  0  0  0  0  0  0  0
    0.4587   -9.5933    4.6683 H   0  0  0  0  0  0  0  0  0  0  0  0
    0.2944   -8.7898    3.1192 H   0  0  0  0  0  0  0  0  0  0  0  0
    2.6181   -9.6882    3.4816 H   0  0  0  0  0  0  0  0  0  0  0  0
    2.6067   -7.9068    5.9340 H   0  0  0  0  0  0  0  0  0  0  0  0
    2.6388   -9.6579    5.8798 H   0  0  0  0  0  0  0  0  0  0  0  0
    4.9218   -8.9431    6.2229 H   0  0  0  0  0  0  0  0  0  0  0  0
    4.7786   -9.6074    4.6412 H   0  0  0  0  0  0  0  0  0  0  0  0
    6.0606   -7.7571    4.5005 H   0  0  0  0  0  0  0  0  0  0  0  0
    4.6221   -5.7933    7.3936 H   0  0  0  0  0  0  0  0  0  0  0  0
    6.5981   -5.0512    6.5472 H   0  0  0  0  0  0  0  0  0  0  0  0
    7.1305   -5.7032    4.9855 H   0  0  0  0  0  0  0  0  0  0  0  0
    4.6262   -2.6375    5.4621 H   0  0  0  0  0  0  0  0  0  0  0  0
    6.1295   -3.1245    3.2108 H   0  0  0  0  0  0  0  0  0  0  0  0
    3.2544   -3.8278    2.9259 H   0  0  0  0  0  0  0  0  0  0  0  0
    2.6094   -2.0134    3.8871 H   0  0  0  0  0  0  0  0  0  0  0  0
    2.9164   -1.8576    1.7361 H   0  0  0  0  0  0  0  0  0  0  0  0
    4.2278   -0.1514    1.7126 H   0  0  0  0  0  0  0  0  0  0  0  0
    3.0866   -1.6183   -0.3735 H   0  0  0  0  0  0  0  0  0  0  0  0
    6.4372   -1.7763   -0.4605 H   0  0  0  0  0  0  0  0  0  0  0  0
    6.5470   -1.5921    1.2676 H   0  0  0  0  0  0  0  0  0  0  0  0
    7.2247   -3.8773   -0.4031 H   0  0  0  0  0  0  0  0  0  0  0  0
    7.5796   -3.6404    1.2738 H   0  0  0  0  0  0  0  0  0  0  0  0
    5.7702   -5.5383    0.2737 H   0  0  0  0  0  0  0  0  0  0  0  0
    7.7372   -5.0618    2.8691 H   0  0  0  0  0  0  0  0  0  0  0  0
    7.3739   -6.1319    1.5604 H   0  0  0  0  0  0  0  0  0  0  0  0
    7.0272   -6.6162    3.1461 H   0  0  0  0  0  0  0  0  0  0  0  0
    4.2280   -7.9795    0.1187 H   0  0  0  0  0  0  0  0  0  0  0  0
    3.8620   -9.5687    0.8134 H   0  0  0  0  0  0  0  0  0  0  0  0
    2.3488   -7.0441    1.0330 H   0  0  0  0  0  0  0  0  0  0  0  0
    1.7966   -8.6392    1.4529 H   0  0  0  0  0  0  0  0  0  0  0  0
    2.2984   -6.6657    3.3555 H   0  0  0  0  0  0  0  0  0  0  0  0
    2.8010   -5.3114   -0.3343 H   0  0  0  0  0  0  0  0  0  0  0  0
    2.2276   -3.7166    0.0899 H   0  0  0  0  0  0  0  0  0  0  0  0
    2.7510   -4.8553    1.3061 H   0  0  0  0  0  0  0  0  0  0  0  0
    4.7132   -5.0764   -1.6791 H   0  0  0  0  0  0  0  0  0  0  0  0
    5.5263   -3.5425   -1.7970 H   0  0  0  0  0  0  0  0  0  0  0  0
    3.7897   -3.6277   -1.9782 H   0  0  0  0  0  0  0  0  0  0  0  0
  1  2  1  0
  1 34  1  0
  1 35  1  0
  1 36  1  0
  2 30  1  0
  2  3  1  0
  2 37  1  6
  3  4  1  0
  3 38  1  0
  3 39  1  0
  4  5  1  0
  4 40  1  0
  4 41  1  0
  5 25  1  0
  5  6  1  0
  5 42  1  6
  6 11  1  0
  6  7  1  1
  6  8  1  0
  7 43  1  0
  8  9  1  0
  8 44  1  0
  8 45  1  0
  9 10  1  1
  9 11  1  0
  9 12  1  0
 10 46  1  0
 12 22  1  0
 12 13  1  0
 12 47  1  1
 13 14  1  0
 13 15  1  0
 13 48  1  6
 14 49  1  0
 15 16  1  0
 15 17  1  0
 15 50  1  6
 16 51  1  0
 17 31  1  0
 17 18  1  6
 17 19  1  0
 18 52  1  0
 19 20  1  0
 19 53  1  0
 19 54  1  0
 20 21  1  0
 20 55  1  0
 20 56  1  0
 21 22  1  0
 21 31  1  0
 21 57  1  6
 22 23  1  1
 22 24  1  0
 23 58  1  0
 23 59  1  0
 23 60  1  0
 24 25  1  0
 25 30  1  0
 25 26  1  6
 26 27  2  0
 26 28  1  0
 28 29  1  0
 28 61  1  0
 28 62  1  0
 29 30  1  0
 29 63  1  0
 29 64  1  0
 30 65  1  1
 31 32  1  0
 31 33  1  0
 32 66  1  0
 32 67  1  0
 32 68  1  0
 33 69  1  0
 33 70  1  0
 33 71  1  0
M  END
>  <i_m_ct_stereo_status>  (130) 
1

>  <s_m_source_file>  (130) 
/var/tmp/pbs.5076255.sched01/tmpxnahmhzs/434e81vi2s.sdf

>  <i_m_source_file_index>  (130) 
9

>  <i_lp_mmshare_version>  (130) 
48012

>  <i_f3d_flags>  (130) 
0

>  <s_epik_input>  (130) 
Tz1DMVtDSDJdW0NIMl1bQ0BIXTJbQ0BIXShbQ0gzXSlbQ0gyXVtDSDJdW0NAQEhdKFtDQEBdMTIzKVtDQEBdNChbT0hdKVtDSDJdW0NAQF0oTzQpKFtPSF0pW0NASF01W0NAXShPMykoW0NIM10pW0NIXTZbQ0gyXVtDSDJdW0NAQF0oW09IXSkoQzYoW0NIM10pW0NIM10pW0NASF0oW09IXSlbQ0BASF01W09IXQ==

>  <s_epik_cmdline>  (130) 
J2VwaWtfcHl0aG9uJywgJy1waHQnLCAnMi4wJywgJy1waCcsICc3LjAnLCAnLXRuJywgJzgnLCAnLW1hJywgJzIwMCcsICctaW1hZScsICc8aW5maWxlLm1hZT4nLCAnLW9tYWUnLCAnPG91dGZpbGUubWFlPic=

>  <r_lp_tautomer_probability>  (130) 
1

>  <r_epik_Ionization_Penalty>  (130) 
7.86431e-06

>  <r_epik_Ionization_Penalty_Charging>  (130) 
0

>  <r_epik_Ionization_Penalty_Neutral>  (130) 
7.86431e-06

>  <r_epik_State_Penalty>  (130) 
-0

>  <r_epik_Charging_Adjusted_Penalty>  (130) 
0

>  <i_epik_Tot_Q>  (130) 
0

>  <i_epik_Tot_abs_Q>  (130) 
0

>  <s_lp_Force_Field>  (130) 
OPLS3e

>  <r_lp_Energy>  (130) 
84.9908

>  <b_lp_Chiralities_Consistent>  (130) 
1

>  <s_lp_Variant>  (130) 
41:0-1

>  <s_i_glide_gridfile>  (130) 
pfpi4k_grid

>  <i_i_glide_lignum>  (130) 
9

>  <i_i_glide_rotatable_bonds>  (130) 
5

>  <r_i_docking_score>  (130) 
-2.75185

>  <r_i_glide_ligand_efficiency>  (130) 
-0.0833894

>  <r_i_glide_ligand_efficiency_sa>  (130) 
-0.267474

>  <r_i_glide_ligand_efficiency_ln>  (130) 
-0.611997

>  <r_i_glide_gscore>  (130) 
-2.75185

>  <r_i_glide_lipo>  (130) 
-0.351251

>  <r_i_glide_hbond>  (130) 
0

>  <r_i_glide_metal>  (130) 
-0

>  <r_i_glide_rewards>  (130) 
-0.747101

>  <r_i_glide_evdw>  (130) 
-24.094

>  <r_i_glide_ecoul>  (130) 
-2.99198

>  <r_i_glide_erotb>  (130) 
0

>  <r_i_glide_esite>  (130) 
0

>  <r_i_glide_emodel>  (130) 
-36.5305

>  <r_i_glide_energy>  (130) 
-27.086

>  <r_i_glide_einternal>  (130) 
1.53039

>  <r_i_glide_intrahb_reward>  (130) 
-0.5

>  <i_i_glide_confnum>  (130) 
2

>  <i_i_glide_posenum>  (130) 
39

>  <r_i_glide_eff_state_penalty>  (130) 
0

>  <ligand_id>  (130) 
41

>  <original_smiles>  (130) 
CC1CCC2C3(O)CC(O)(O3)C3C(O)C(O)C4(O)CCC(C3(C)OC23C(=O)CCC13)C4(C)C

>  <smiles>  (130) 
[H]OC1([H])C([H])(O[H])C2(O[H])C([H])([H])C([H])([H])C([H])(C3(C([H])([H])[H])OC45C(=O)C([H])([H])C([H])([H])C4([H])C([H])(C([H])([H])[H])C([H])([H])C([H])([H])C5([H])C4(O[H])OC(O[H])(C4([H])[H])C13[H])C2(C([H])([H])[H])C([H])([H])[H]

$$$$
41:0:1
     RDKit          3D

 71 76  0  0  1  0  0  0  0  0999 V2000
   -1.3486   -7.7282    2.7152 C   0  0  0  0  0  0  0  0  0  0  0  0
    0.0411   -7.6888    3.3884 C   0  0  2  0  0  0  0  0  0  0  0  0
   -0.1443   -7.4910    4.8891 C   0  0  0  0  0  0  0  0  0  0  0  0
    1.2082   -7.4458    5.5796 C   0  0  0  0  0  0  0  0  0  0  0  0
    2.0501   -6.2229    5.1451 C   0  0  2  0  0  0  0  0  0  0  0  0
    1.6195   -4.8667    5.8112 C   0  0  1  0  0  0  0  0  0  0  0  0
    0.6599   -5.0715    6.8302 O   0  0  0  0  0  0  0  0  0  0  0  0
    2.7386   -3.9447    6.2902 C   0  0  0  0  0  0  0  0  0  0  0  0
    2.3379   -3.0171    5.1511 C   0  0  2  0  0  0  0  0  0  0  0  0
    2.0125   -1.7477    5.6883 O   0  0  0  0  0  0  0  0  0  0  0  0
    1.1972   -3.8773    4.8376 O   0  0  0  0  0  0  0  0  0  0  0  0
    3.1122   -2.8156    3.7974 C   0  0  2  0  0  0  0  0  0  0  0  0
    2.1603   -2.1297    2.7440 C   0  0  1  0  0  0  0  0  0  0  0  0
    1.1260   -1.3112    3.2719 O   0  0  0  0  0  0  0  0  0  0  0  0
    2.7759   -1.2747    1.6052 C   0  0  1  0  0  0  0  0  0  0  0  0
    3.0371    0.0440    2.0594 O   0  0  0  0  0  0  0  0  0  0  0  0
    3.9889   -1.8224    0.7987 C   0  0  1  0  0  0  0  0  0  0  0  0
    3.9944   -1.1213   -0.4310 O   0  0  0  0  0  0  0  0  0  0  0  0
    5.3513   -1.5840    1.4965 C   0  0  0  0  0  0  0  0  0  0  0  0
    5.7762   -2.9321    2.0665 C   0  0  0  0  0  0  0  0  0  0  0  0
    4.5965   -3.9159    1.8510 C   0  0  1  0  0  0  0  0  0  0  0  0
    3.7909   -4.1280    3.2041 C   0  0  1  0  0  0  0  0  0  0  0  0
    4.8816   -4.7351    4.1540 C   0  0  0  0  0  0  0  0  0  0  0  0
    2.6903   -5.0176    2.9016 O   0  0  0  0  0  0  0  0  0  0  0  0
    2.2742   -6.2393    3.5692 C   0  0  1  0  0  0  0  0  0  0  0  0
    3.2311   -7.3444    3.1017 C   0  0  0  0  0  0  0  0  0  0  0  0
    4.1281   -7.8261    3.7723 O   0  0  0  0  0  0  0  0  0  0  0  0
    2.9214   -7.7831    1.6840 C   0  0  0  0  0  0  0  0  0  0  0  0
    1.5304   -7.1900    1.4086 C   0  0  0  0  0  0  0  0  0  0  0  0
    0.9878   -6.6232    2.7543 C   0  0  1  0  0  0  0  0  0  0  0  0
    3.9699   -3.3539    0.5290 C   0  0  0  0  0  0  0  0  0  0  0  0
    2.6245   -3.9411    0.0481 C   0  0  0  0  0  0  0  0  0  0  0  0
    4.9333   -3.7147   -0.6481 C   0  0  0  0  0  0  0  0  0  0  0  0
   -1.8819   -6.7913    2.8485 H   0  0  0  0  0  0  0  0  0  0  0  0
   -1.9662   -8.5147    3.1547 H   0  0  0  0  0  0  0  0  0  0  0  0
   -1.2870   -7.9381    1.6455 H   0  0  0  0  0  0  0  0  0  0  0  0
    0.4853   -8.6785    3.2546 H   0  0  0  0  0  0  0  0  0  0  0  0
   -0.7109   -6.5834    5.0916 H   0  0  0  0  0  0  0  0  0  0  0  0
   -0.7213   -8.3237    5.2922 H   0  0  0  0  0  0  0  0  0  0  0  0
    1.0909   -7.4824    6.6617 H   0  0  0  0  0  0  0  0  0  0  0  0
    1.7554   -8.3600    5.3395 H   0  0  0  0  0  0  0  0  0  0  0  0
    2.9862   -6.4860    5.6247 H   0  0  0  0  0  0  0  0  0  0  0  0
    0.4518   -4.2125    7.1687 H   0  0  0  0  0  0  0  0  0  0  0  0
    2.5140   -3.5206    7.2749 H   0  0  0  0  0  0  0  0  0  0  0  0
    3.7352   -4.3603    6.3129 H   0  0  0  0  0  0  0  0  0  0  0  0
    1.5647   -1.3071    4.9635 H   0  0  0  0  0  0  0  0  0  0  0  0
    3.9144   -2.1002    3.9958 H   0  0  0  0  0  0  0  0  0  0  0  0
    1.5598   -2.9200    2.3177 H   0  0  0  0  0  0  0  0  0  0  0  0
    0.6544   -0.9336    2.5424 H   0  0  0  0  0  0  0  0  0  0  0  0
    1.9674   -1.1533    0.8822 H   0  0  0  0  0  0  0  0  0  0  0  0
    3.7448    0.0213    2.6836 H   0  0  0  0  0  0  0  0  0  0  0  0
    3.0988   -1.0574   -0.7334 H   0  0  0  0  0  0  0  0  0  0  0  0
    6.1048   -1.2400    0.7880 H   0  0  0  0  0  0  0  0  0  0  0  0
    5.3179   -0.8339    2.2827 H   0  0  0  0  0  0  0  0  0  0  0  0
    6.6586   -3.2979    1.5376 H   0  0  0  0  0  0  0  0  0  0  0  0
    6.0823   -2.7990    3.0961 H   0  0  0  0  0  0  0  0  0  0  0  0
    4.9955   -4.8983    1.5982 H   0  0  0  0  0  0  0  0  0  0  0  0
    5.3426   -3.9660    4.7790 H   0  0  0  0  0  0  0  0  0  0  0  0
    5.7000   -5.2107    3.6120 H   0  0  0  0  0  0  0  0  0  0  0  0
    4.5603   -5.5148    4.8211 H   0  0  0  0  0  0  0  0  0  0  0  0
    3.6709   -7.3867    0.9933 H   0  0  0  0  0  0  0  0  0  0  0  0
    2.9261   -8.8706    1.6103 H   0  0  0  0  0  0  0  0  0  0  0  0
    1.6219   -6.3989    0.6676 H   0  0  0  0  0  0  0  0  0  0  0  0
    0.8780   -7.9377    0.9653 H   0  0  0  0  0  0  0  0  0  0  0  0
    0.4090   -5.7165    2.5738 H   0  0  0  0  0  0  0  0  0  0  0  0
    2.7752   -4.8620   -0.5098 H   0  0  0  0  0  0  0  0  0  0  0  0
    2.1204   -3.2490   -0.6290 H   0  0  0  0  0  0  0  0  0  0  0  0
    1.9261   -4.2028    0.8257 H   0  0  0  0  0  0  0  0  0  0  0  0
    5.0901   -4.7932   -0.7147 H   0  0  0  0  0  0  0  0  0  0  0  0
    5.9196   -3.2549   -0.5775 H   0  0  0  0  0  0  0  0  0  0  0  0
    4.5233   -3.4049   -1.6072 H   0  0  0  0  0  0  0  0  0  0  0  0
  1  2  1  0
  1 34  1  0
  1 35  1  0
  1 36  1  0
  2 30  1  0
  2  3  1  0
  2 37  1  1
  3  4  1  0
  3 38  1  0
  3 39  1  0
  4  5  1  0
  4 40  1  0
  4 41  1  0
  5 25  1  0
  5  6  1  0
  5 42  1  1
  6 11  1  0
  6  7  1  1
  6  8  1  0
  7 43  1  0
  8  9  1  0
  8 44  1  0
  8 45  1  0
  9 10  1  1
  9 11  1  0
  9 12  1  0
 10 46  1  0
 12 22  1  0
 12 13  1  0
 12 47  1  1
 13 14  1  0
 13 15  1  0
 13 48  1  6
 14 49  1  0
 15 16  1  0
 15 17  1  0
 15 50  1  6
 16 51  1  0
 17 31  1  0
 17 18  1  6
 17 19  1  0
 18 52  1  0
 19 20  1  0
 19 53  1  0
 19 54  1  0
 20 21  1  0
 20 55  1  0
 20 56  1  0
 21 22  1  0
 21 31  1  0
 21 57  1  6
 22 23  1  1
 22 24  1  0
 23 58  1  0
 23 59  1  0
 23 60  1  0
 24 25  1  0
 25 30  1  0
 25 26  1  1
 26 27  2  0
 26 28  1  0
 28 29  1  0
 28 61  1  0
 28 62  1  0
 29 30  1  0
 29 63  1  0
 29 64  1  0
 30 65  1  6
 31 32  1  0
 31 33  1  0
 32 66  1  0
 32 67  1  0
 32 68  1  0
 33 69  1  0
 33 70  1  0
 33 71  1  0
M  END
>  <i_m_ct_stereo_status>  (131) 
1

>  <s_m_source_file>  (131) 
/var/tmp/pbs.5076255.sched01/tmpxnahmhzs/434e81vi2s.sdf

>  <i_m_source_file_index>  (131) 
9

>  <i_lp_mmshare_version>  (131) 
48012

>  <i_f3d_flags>  (131) 
0

>  <s_epik_input>  (131) 
Tz1DMVtDSDJdW0NIMl1bQ0BIXTJbQ0BIXShbQ0gzXSlbQ0gyXVtDSDJdW0NAQEhdKFtDQEBdMTIzKVtDQEBdNChbT0hdKVtDSDJdW0NAQF0oTzQpKFtPSF0pW0NASF01W0NAXShPMykoW0NIM10pW0NIXTZbQ0gyXVtDSDJdW0NAQF0oW09IXSkoQzYoW0NIM10pW0NIM10pW0NASF0oW09IXSlbQ0BASF01W09IXQ==

>  <s_epik_cmdline>  (131) 
J2VwaWtfcHl0aG9uJywgJy1waHQnLCAnMi4wJywgJy1waCcsICc3LjAnLCAnLXRuJywgJzgnLCAnLW1hJywgJzIwMCcsICctaW1hZScsICc8aW5maWxlLm1hZT4nLCAnLW9tYWUnLCAnPG91dGZpbGUubWFlPic=

>  <r_lp_tautomer_probability>  (131) 
1

>  <r_epik_Ionization_Penalty>  (131) 
7.86431e-06

>  <r_epik_Ionization_Penalty_Charging>  (131) 
0

>  <r_epik_Ionization_Penalty_Neutral>  (131) 
7.86431e-06

>  <r_epik_State_Penalty>  (131) 
-0

>  <r_epik_Charging_Adjusted_Penalty>  (131) 
0

>  <i_epik_Tot_Q>  (131) 
0

>  <i_epik_Tot_abs_Q>  (131) 
0

>  <s_lp_Force_Field>  (131) 
OPLS3e

>  <r_lp_Energy>  (131) 
84.9908

>  <b_lp_Chiralities_Consistent>  (131) 
1

>  <s_lp_Variant>  (131) 
41:0-1

>  <s_i_glide_gridfile>  (131) 
pfpi4k_grid

>  <i_i_glide_lignum>  (131) 
9

>  <i_i_glide_rotatable_bonds>  (131) 
5

>  <r_i_docking_score>  (131) 
-2.70758

>  <r_i_glide_ligand_efficiency>  (131) 
-0.082048

>  <r_i_glide_ligand_efficiency_sa>  (131) 
-0.263172

>  <r_i_glide_ligand_efficiency_ln>  (131) 
-0.602153

>  <r_i_glide_gscore>  (131) 
-2.70758

>  <r_i_glide_lipo>  (131) 
-0.224633

>  <r_i_glide_hbond>  (131) 
0

>  <r_i_glide_metal>  (131) 
-0

>  <r_i_glide_rewards>  (131) 
-0.72797

>  <r_i_glide_evdw>  (131) 
-28.3445

>  <r_i_glide_ecoul>  (131) 
-2.25171

>  <r_i_glide_erotb>  (131) 
0

>  <r_i_glide_esite>  (131) 
0

>  <r_i_glide_emodel>  (131) 
-39.7364

>  <r_i_glide_energy>  (131) 
-30.5962

>  <r_i_glide_einternal>  (131) 
1.53638

>  <r_i_glide_intrahb_reward>  (131) 
-0.5

>  <i_i_glide_confnum>  (131) 
2

>  <i_i_glide_posenum>  (131) 
2

>  <r_i_glide_eff_state_penalty>  (131) 
0

>  <ligand_id>  (131) 
41

>  <original_smiles>  (131) 
CC1CCC2C3(O)CC(O)(O3)C3C(O)C(O)C4(O)CCC(C3(C)OC23C(=O)CCC13)C4(C)C

>  <smiles>  (131) 
[H]OC1([H])C([H])(O[H])C2(O[H])C([H])([H])C([H])([H])C([H])(C3(C([H])([H])[H])OC45C(=O)C([H])([H])C([H])([H])C4([H])C([H])(C([H])([H])[H])C([H])([H])C([H])([H])C5([H])C4(O[H])OC(O[H])(C4([H])[H])C13[H])C2(C([H])([H])[H])C([H])([H])[H]

$$$$
41:0:2
     RDKit          3D

 71 76  0  0  1  0  0  0  0  0999 V2000
   -1.1793   -7.6009    2.4781 C   0  0  0  0  0  0  0  0  0  0  0  0
    0.1570   -7.5101    3.2454 C   0  0  2  0  0  0  0  0  0  0  0  0
   -0.1392   -7.2255    4.7119 C   0  0  0  0  0  0  0  0  0  0  0  0
    1.1592   -7.1307    5.4919 C   0  0  0  0  0  0  0  0  0  0  0  0
    2.0240   -5.9298    5.0431 C   0  0  2  0  0  0  0  0  0  0  0  0
    1.5360   -4.5409    5.5899 C   0  0  1  0  0  0  0  0  0  0  0  0
    0.4820   -4.6814    6.5279 O   0  0  0  0  0  0  0  0  0  0  0  0
    2.6079   -3.5801    6.1009 C   0  0  0  0  0  0  0  0  0  0  0  0
    2.2964   -2.7229    4.8819 C   0  0  2  0  0  0  0  0  0  0  0  0
    1.9341   -1.4234    5.3158 O   0  0  0  0  0  0  0  0  0  0  0  0
    1.1918   -3.6146    4.5264 O   0  0  0  0  0  0  0  0  0  0  0  0
    3.1681   -2.5961    3.5793 C   0  0  2  0  0  0  0  0  0  0  0  0
    2.2968   -1.9773    2.4188 C   0  0  1  0  0  0  0  0  0  0  0  0
    1.2316   -1.1263    2.8132 O   0  0  0  0  0  0  0  0  0  0  0  0
    2.9954   -1.1880    1.2812 C   0  0  1  0  0  0  0  0  0  0  0  0
    3.2136    0.1581    1.6689 O   0  0  0  0  0  0  0  0  0  0  0  0
    4.2573   -1.7703    0.5931 C   0  0  1  0  0  0  0  0  0  0  0  0
    4.3581   -1.1453   -0.6727 O   0  0  0  0  0  0  0  0  0  0  0  0
    5.5603   -1.4800    1.3717 C   0  0  0  0  0  0  0  0  0  0  0  0
    5.9332   -2.7901    2.0483 C   0  0  0  0  0  0  0  0  0  0  0  0
    4.7849   -3.7971    1.8073 C   0  0  1  0  0  0  0  0  0  0  0  0
    3.8895   -3.9357    3.1114 C   0  0  1  0  0  0  0  0  0  0  0  0
    4.9125   -4.4758    4.1710 C   0  0  0  0  0  0  0  0  0  0  0  0
    2.8179   -4.8503    2.7838 O   0  0  0  0  0  0  0  0  0  0  0  0
    2.3621   -6.0351    3.4917 C   0  0  1  0  0  0  0  0  0  0  0  0
    3.3534   -7.1564    3.1552 C   0  0  0  0  0  0  0  0  0  0  0  0
    4.1991   -7.5930    3.9141 O   0  0  0  0  0  0  0  0  0  0  0  0
    3.1499   -7.6785    1.7421 C   0  0  0  0  0  0  0  0  0  0  0  0
    1.7756   -7.1154    1.3428 C   0  0  0  0  0  0  0  0  0  0  0  0
    1.1387   -6.4755    2.6122 C   0  0  1  0  0  0  0  0  0  0  0  0
    4.2579   -3.3147    0.4129 C   0  0  0  0  0  0  0  0  0  0  0  0
    2.9523   -3.9365   -0.1253 C   0  0  0  0  0  0  0  0  0  0  0  0
    5.3060   -3.7384   -0.6668 C   0  0  0  0  0  0  0  0  0  0  0  0
   -1.7284   -6.6650    2.5177 H   0  0  0  0  0  0  0  0  0  0  0  0
   -1.8238   -8.3676    2.9152 H   0  0  0  0  0  0  0  0  0  0  0  0
   -1.0344   -7.8699    1.4291 H   0  0  0  0  0  0  0  0  0  0  0  0
    0.6137   -8.5027    3.1997 H   0  0  0  0  0  0  0  0  0  0  0  0
   -0.7236   -6.3123    4.8159 H   0  0  0  0  0  0  0  0  0  0  0  0
   -0.7410   -8.0364    5.1238 H   0  0  0  0  0  0  0  0  0  0  0  0
    0.9679   -7.1117    6.5626 H   0  0  0  0  0  0  0  0  0  0  0  0
    1.7271   -8.0514    5.3398 H   0  0  0  0  0  0  0  0  0  0  0  0
    2.9250   -6.1511    5.6014 H   0  0  0  0  0  0  0  0  0  0  0  0
    0.7846   -5.2914    7.1908 H   0  0  0  0  0  0  0  0  0  0  0  0
    2.3064   -3.0989    7.0378 H   0  0  0  0  0  0  0  0  0  0  0  0
    3.6024   -3.9811    6.2197 H   0  0  0  0  0  0  0  0  0  0  0  0
    1.5132   -1.0433    4.5411 H   0  0  0  0  0  0  0  0  0  0  0  0
    3.9524   -1.8638    3.7901 H   0  0  0  0  0  0  0  0  0  0  0  0
    1.7301   -2.7943    1.9979 H   0  0  0  0  0  0  0  0  0  0  0  0
    0.8447   -0.7708    2.0239 H   0  0  0  0  0  0  0  0  0  0  0  0
    2.2380   -1.1261    0.4965 H   0  0  0  0  0  0  0  0  0  0  0  0
    3.8137    0.1778    2.3966 H   0  0  0  0  0  0  0  0  0  0  0  0
    3.4940   -1.1315   -1.0561 H   0  0  0  0  0  0  0  0  0  0  0  0
    6.3665   -1.1759    0.7037 H   0  0  0  0  0  0  0  0  0  0  0  0
    5.4684   -0.6856    2.1079 H   0  0  0  0  0  0  0  0  0  0  0  0
    6.8527   -3.1807    1.6055 H   0  0  0  0  0  0  0  0  0  0  0  0
    6.1700   -2.5974    3.0866 H   0  0  0  0  0  0  0  0  0  0  0  0
    5.2095   -4.7885    1.6437 H   0  0  0  0  0  0  0  0  0  0  0  0
    5.3253   -3.6672    4.7803 H   0  0  0  0  0  0  0  0  0  0  0  0
    5.7704   -4.9751    3.7174 H   0  0  0  0  0  0  0  0  0  0  0  0
    4.5491   -5.2170    4.8605 H   0  0  0  0  0  0  0  0  0  0  0  0
    3.9445   -7.3166    1.0857 H   0  0  0  0  0  0  0  0  0  0  0  0
    3.1654   -8.7679    1.7368 H   0  0  0  0  0  0  0  0  0  0  0  0
    1.9152   -6.3657    0.5648 H   0  0  0  0  0  0  0  0  0  0  0  0
    1.1590   -7.8940    0.8989 H   0  0  0  0  0  0  0  0  0  0  0  0
    0.5743   -5.5842    2.3416 H   0  0  0  0  0  0  0  0  0  0  0  0
    3.1485   -4.8874   -0.6127 H   0  0  0  0  0  0  0  0  0  0  0  0
    2.4904   -3.2917   -0.8755 H   0  0  0  0  0  0  0  0  0  0  0  0
    2.2031   -4.1592    0.6158 H   0  0  0  0  0  0  0  0  0  0  0  0
    5.4702   -4.8178   -0.6552 H   0  0  0  0  0  0  0  0  0  0  0  0
    6.2834   -3.2674   -0.5524 H   0  0  0  0  0  0  0  0  0  0  0  0
    4.9661   -3.4897   -1.6690 H   0  0  0  0  0  0  0  0  0  0  0  0
  1  2  1  0
  1 34  1  0
  1 35  1  0
  1 36  1  0
  2 30  1  0
  2  3  1  0
  2 37  1  1
  3  4  1  0
  3 38  1  0
  3 39  1  0
  4  5  1  0
  4 40  1  0
  4 41  1  0
  5 25  1  0
  5  6  1  0
  5 42  1  1
  6 11  1  0
  6  7  1  1
  6  8  1  0
  7 43  1  0
  8  9  1  0
  8 44  1  0
  8 45  1  0
  9 10  1  1
  9 11  1  0
  9 12  1  0
 10 46  1  0
 12 22  1  0
 12 13  1  0
 12 47  1  1
 13 14  1  0
 13 15  1  0
 13 48  1  6
 14 49  1  0
 15 16  1  0
 15 17  1  0
 15 50  1  6
 16 51  1  0
 17 31  1  0
 17 18  1  6
 17 19  1  0
 18 52  1  0
 19 20  1  0
 19 53  1  0
 19 54  1  0
 20 21  1  0
 20 55  1  0
 20 56  1  0
 21 22  1  0
 21 31  1  0
 21 57  1  6
 22 23  1  1
 22 24  1  0
 23 58  1  0
 23 59  1  0
 23 60  1  0
 24 25  1  0
 25 30  1  0
 25 26  1  1
 26 27  2  0
 26 28  1  0
 28 29  1  0
 28 61  1  0
 28 62  1  0
 29 30  1  0
 29 63  1  0
 29 64  1  0
 30 65  1  6
 31 32  1  0
 31 33  1  0
 32 66  1  0
 32 67  1  0
 32 68  1  0
 33 69  1  0
 33 70  1  0
 33 71  1  0
M  END
>  <i_m_ct_stereo_status>  (132) 
1

>  <s_m_source_file>  (132) 
/var/tmp/pbs.5076255.sched01/tmpxnahmhzs/434e81vi2s.sdf

>  <i_m_source_file_index>  (132) 
9

>  <i_lp_mmshare_version>  (132) 
48012

>  <i_f3d_flags>  (132) 
0

>  <s_epik_input>  (132) 
Tz1DMVtDSDJdW0NIMl1bQ0BIXTJbQ0BIXShbQ0gzXSlbQ0gyXVtDSDJdW0NAQEhdKFtDQEBdMTIzKVtDQEBdNChbT0hdKVtDSDJdW0NAQF0oTzQpKFtPSF0pW0NASF01W0NAXShPMykoW0NIM10pW0NIXTZbQ0gyXVtDSDJdW0NAQF0oW09IXSkoQzYoW0NIM10pW0NIM10pW0NASF0oW09IXSlbQ0BASF01W09IXQ==

>  <s_epik_cmdline>  (132) 
J2VwaWtfcHl0aG9uJywgJy1waHQnLCAnMi4wJywgJy1waCcsICc3LjAnLCAnLXRuJywgJzgnLCAnLW1hJywgJzIwMCcsICctaW1hZScsICc8aW5maWxlLm1hZT4nLCAnLW9tYWUnLCAnPG91dGZpbGUubWFlPic=

>  <r_lp_tautomer_probability>  (132) 
1

>  <r_epik_Ionization_Penalty>  (132) 
7.86431e-06

>  <r_epik_Ionization_Penalty_Charging>  (132) 
0

>  <r_epik_Ionization_Penalty_Neutral>  (132) 
7.86431e-06

>  <r_epik_State_Penalty>  (132) 
-0

>  <r_epik_Charging_Adjusted_Penalty>  (132) 
0

>  <i_epik_Tot_Q>  (132) 
0

>  <i_epik_Tot_abs_Q>  (132) 
0

>  <s_lp_Force_Field>  (132) 
OPLS3e

>  <r_lp_Energy>  (132) 
84.9908

>  <b_lp_Chiralities_Consistent>  (132) 
1

>  <s_lp_Variant>  (132) 
41:0-1

>  <s_i_glide_gridfile>  (132) 
pfpi4k_grid

>  <i_i_glide_lignum>  (132) 
9

>  <i_i_glide_rotatable_bonds>  (132) 
5

>  <r_i_docking_score>  (132) 
-2.62928

>  <r_i_glide_ligand_efficiency>  (132) 
-0.079675

>  <r_i_glide_ligand_efficiency_sa>  (132) 
-0.25556

>  <r_i_glide_ligand_efficiency_ln>  (132) 
-0.584737

>  <r_i_glide_gscore>  (132) 
-2.62928

>  <r_i_glide_lipo>  (132) 
-0.301396

>  <r_i_glide_hbond>  (132) 
0

>  <r_i_glide_metal>  (132) 
-0

>  <r_i_glide_rewards>  (132) 
-0.72797

>  <r_i_glide_evdw>  (132) 
-28.0737

>  <r_i_glide_ecoul>  (132) 
-1.30818

>  <r_i_glide_erotb>  (132) 
0

>  <r_i_glide_esite>  (132) 
0

>  <r_i_glide_emodel>  (132) 
-37.9384

>  <r_i_glide_energy>  (132) 
-29.3818

>  <r_i_glide_einternal>  (132) 
2.31464

>  <r_i_glide_intrahb_reward>  (132) 
-0.5

>  <i_i_glide_confnum>  (132) 
2

>  <i_i_glide_posenum>  (132) 
27

>  <r_i_glide_eff_state_penalty>  (132) 
0

>  <ligand_id>  (132) 
41

>  <original_smiles>  (132) 
CC1CCC2C3(O)CC(O)(O3)C3C(O)C(O)C4(O)CCC(C3(C)OC23C(=O)CCC13)C4(C)C

>  <smiles>  (132) 
[H]OC1([H])C([H])(O[H])C2(O[H])C([H])([H])C([H])([H])C([H])(C3(C([H])([H])[H])OC45C(=O)C([H])([H])C([H])([H])C4([H])C([H])(C([H])([H])[H])C([H])([H])C([H])([H])C5([H])C4(O[H])OC(O[H])(C4([H])[H])C13[H])C2(C([H])([H])[H])C([H])([H])[H]

$$$$
43:0:0
     RDKit          3D

 21 22  0  0  1  0  0  0  0  0999 V2000
    6.2591   -3.4621    0.1294 O   0  0  0  0  0  0  0  0  0  0  0  0
    5.3516   -4.2471   -0.1514 C   0  0  0  0  0  0  0  0  0  0  0  0
    4.4115   -4.0492   -1.0927 N   0  0  0  0  0  0  0  0  0  0  0  0
    4.1303   -2.9236   -1.9086 C   0  0  0  0  0  0  0  0  0  0  0  0
    3.0515   -3.0458   -2.8083 C   0  0  0  0  0  0  0  0  0  0  0  0
    2.6922   -1.9879   -3.6558 C   0  0  0  0  0  0  0  0  0  0  0  0
    3.4052   -0.7783   -3.6086 C   0  0  0  0  0  0  0  0  0  0  0  0
    4.4767   -0.6414   -2.7083 C   0  0  0  0  0  0  0  0  0  0  0  0
    4.8428   -1.7030   -1.8594 C   0  0  0  0  0  0  0  0  0  0  0  0
    5.2371   -5.5822    0.4974 C   0  0  0  0  0  0  0  0  0  0  0  0
    6.3262   -6.2020    1.1929 C   0  0  0  0  0  0  0  0  0  0  0  0
    6.0805   -7.3907    1.6932 N   0  0  0  0  0  0  0  0  0  0  0  0
    4.4882   -7.7183    1.3092 S   0  0  0  0  0  0  0  0  0  0  0  0
    4.1336   -6.3036    0.4956 N   0  0  0  0  0  0  0  0  0  0  0  0
    3.8027   -4.8465   -1.2395 H   0  0  0  0  0  0  0  0  0  0  0  0
    2.4585   -3.9446   -2.8492 H   0  0  0  0  0  0  0  0  0  0  0  0
    1.8454   -2.1052   -4.3175 H   0  0  0  0  0  0  0  0  0  0  0  0
    3.1124    0.0503   -4.2361 H   0  0  0  0  0  0  0  0  0  0  0  0
    5.0061    0.2937   -2.6594 H   0  0  0  0  0  0  0  0  0  0  0  0
    5.6600   -1.5482   -1.1772 H   0  0  0  0  0  0  0  0  0  0  0  0
    7.3186   -5.7920    1.3109 H   0  0  0  0  0  0  0  0  0  0  0  0
  1  2  2  0
  2  3  1  0
  2 10  1  0
  3  4  1  0
  3 15  1  0
  4  9  1  0
  4  5  2  0
  5  6  1  0
  5 16  1  0
  6  7  2  0
  6 17  1  0
  7  8  1  0
  7 18  1  0
  8  9  2  0
  8 19  1  0
  9 20  1  0
 10 14  2  0
 10 11  1  0
 11 12  2  0
 11 21  1  0
 12 13  1  0
 13 14  1  0
M  END
>  <i_m_ct_stereo_status>  (133) 
1

>  <s_m_source_file>  (133) 
/var/tmp/pbs.5076255.sched01/tmpxnahmhzs/434e81vi2s.sdf

>  <i_m_source_file_index>  (133) 
11

>  <i_lp_mmshare_version>  (133) 
48012

>  <i_f3d_flags>  (133) 
0

>  <s_epik_input>  (133) 
bjFzbltjSF1jMUMoPU8pW05IXWMyW2NIXVtjSF1bY0hdW2NIXVtjSF0y

>  <s_epik_cmdline>  (133) 
J2VwaWtfcHl0aG9uJywgJy1waHQnLCAnMi4wJywgJy1waCcsICc3LjAnLCAnLXRuJywgJzgnLCAnLW1hJywgJzIwMCcsICctaW1hZScsICc8aW5maWxlLm1hZT4nLCAnLW9tYWUnLCAnPG91dGZpbGUubWFlPic=

>  <r_lp_tautomer_probability>  (133) 
1

>  <r_epik_Ionization_Penalty>  (133) 
4.83159e-07

>  <r_epik_Ionization_Penalty_Charging>  (133) 
0

>  <r_epik_Ionization_Penalty_Neutral>  (133) 
4.83159e-07

>  <r_epik_State_Penalty>  (133) 
-0

>  <r_epik_Charging_Adjusted_Penalty>  (133) 
0

>  <i_epik_Tot_Q>  (133) 
0

>  <i_epik_Tot_abs_Q>  (133) 
0

>  <s_lp_Force_Field>  (133) 
OPLS3e

>  <r_lp_Energy>  (133) 
17.563

>  <b_lp_Chiralities_Consistent>  (133) 
1

>  <s_lp_Variant>  (133) 
43:0-1

>  <s_i_glide_gridfile>  (133) 
pfpi4k_grid

>  <i_i_glide_lignum>  (133) 
11

>  <i_i_glide_rotatable_bonds>  (133) 
3

>  <r_i_docking_score>  (133) 
-3.58932

>  <r_i_glide_ligand_efficiency>  (133) 
-0.25638

>  <r_i_glide_ligand_efficiency_sa>  (133) 
-0.617912

>  <r_i_glide_ligand_efficiency_ln>  (133) 
-0.986332

>  <r_i_glide_gscore>  (133) 
-3.58932

>  <r_i_glide_lipo>  (133) 
-0.737639

>  <r_i_glide_hbond>  (133) 
-0.289934

>  <r_i_glide_metal>  (133) 
-0

>  <r_i_glide_rewards>  (133) 
-2.09089

>  <r_i_glide_evdw>  (133) 
-21.432

>  <r_i_glide_ecoul>  (133) 
-3.65865

>  <r_i_glide_erotb>  (133) 
1.17326

>  <r_i_glide_esite>  (133) 
-0.0237207

>  <r_i_glide_emodel>  (133) 
-29.7114

>  <r_i_glide_energy>  (133) 
-25.0906

>  <r_i_glide_einternal>  (133) 
1.78521

>  <r_i_glide_intrahb_reward>  (133) 
-0

>  <i_i_glide_confnum>  (133) 
4

>  <i_i_glide_posenum>  (133) 
20

>  <r_i_glide_eff_state_penalty>  (133) 
0

>  <ligand_id>  (133) 
43

>  <original_smiles>  (133) 
O=C(Nc1ccccc1)c1cnsn1

>  <smiles>  (133) 
[H]c1nsnc1C(=O)N([H])c1c([H])c([H])c([H])c([H])c1[H]

$$$$
43:0:1
     RDKit          3D

 21 22  0  0  1  0  0  0  0  0999 V2000
    6.0354   -3.8142    0.3470 O   0  0  0  0  0  0  0  0  0  0  0  0
    5.0532   -4.4865    0.0366 C   0  0  0  0  0  0  0  0  0  0  0  0
    4.1785   -4.1795   -0.9398 N   0  0  0  0  0  0  0  0  0  0  0  0
    4.0604   -3.0147   -1.7418 C   0  0  0  0  0  0  0  0  0  0  0  0
    3.0764   -3.0432   -2.7534 C   0  0  0  0  0  0  0  0  0  0  0  0
    2.8723   -1.9331   -3.5884 C   0  0  0  0  0  0  0  0  0  0  0  0
    3.6397   -0.7718   -3.4253 C   0  0  0  0  0  0  0  0  0  0  0  0
    4.6150   -0.7372   -2.4098 C   0  0  0  0  0  0  0  0  0  0  0  0
    4.8351   -1.8462   -1.5730 C   0  0  0  0  0  0  0  0  0  0  0  0
    4.7678   -5.7975    0.6717 C   0  0  0  0  0  0  0  0  0  0  0  0
    3.4395   -6.2900    0.8929 C   0  0  0  0  0  0  0  0  0  0  0  0
    3.3505   -7.4614    1.4760 N   0  0  0  0  0  0  0  0  0  0  0  0
    4.9276   -7.9437    1.7415 S   0  0  0  0  0  0  0  0  0  0  0  0
    5.7070   -6.5961    1.1311 N   0  0  0  0  0  0  0  0  0  0  0  0
    3.5192   -4.9114   -1.1814 H   0  0  0  0  0  0  0  0  0  0  0  0
    2.4398   -3.8991   -2.8868 H   0  0  0  0  0  0  0  0  0  0  0  0
    2.0897   -1.9768   -4.3276 H   0  0  0  0  0  0  0  0  0  0  0  0
    3.4722    0.0915   -4.0516 H   0  0  0  0  0  0  0  0  0  0  0  0
    5.2105    0.1471   -2.2759 H   0  0  0  0  0  0  0  0  0  0  0  0
    5.5888   -1.7639   -0.8021 H   0  0  0  0  0  0  0  0  0  0  0  0
    2.5253   -5.7836    0.6184 H   0  0  0  0  0  0  0  0  0  0  0  0
  1  2  2  0
  2  3  1  0
  2 10  1  0
  3  4  1  0
  3 15  1  0
  4  9  1  0
  4  5  2  0
  5  6  1  0
  5 16  1  0
  6  7  2  0
  6 17  1  0
  7  8  1  0
  7 18  1  0
  8  9  2  0
  8 19  1  0
  9 20  1  0
 10 14  2  0
 10 11  1  0
 11 12  2  0
 11 21  1  0
 12 13  1  0
 13 14  1  0
M  END
>  <i_m_ct_stereo_status>  (134) 
1

>  <s_m_source_file>  (134) 
/var/tmp/pbs.5076255.sched01/tmpxnahmhzs/434e81vi2s.sdf

>  <i_m_source_file_index>  (134) 
11

>  <i_lp_mmshare_version>  (134) 
48012

>  <i_f3d_flags>  (134) 
0

>  <s_epik_input>  (134) 
bjFzbltjSF1jMUMoPU8pW05IXWMyW2NIXVtjSF1bY0hdW2NIXVtjSF0y

>  <s_epik_cmdline>  (134) 
J2VwaWtfcHl0aG9uJywgJy1waHQnLCAnMi4wJywgJy1waCcsICc3LjAnLCAnLXRuJywgJzgnLCAnLW1hJywgJzIwMCcsICctaW1hZScsICc8aW5maWxlLm1hZT4nLCAnLW9tYWUnLCAnPG91dGZpbGUubWFlPic=

>  <r_lp_tautomer_probability>  (134) 
1

>  <r_epik_Ionization_Penalty>  (134) 
4.83159e-07

>  <r_epik_Ionization_Penalty_Charging>  (134) 
0

>  <r_epik_Ionization_Penalty_Neutral>  (134) 
4.83159e-07

>  <r_epik_State_Penalty>  (134) 
-0

>  <r_epik_Charging_Adjusted_Penalty>  (134) 
0

>  <i_epik_Tot_Q>  (134) 
0

>  <i_epik_Tot_abs_Q>  (134) 
0

>  <s_lp_Force_Field>  (134) 
OPLS3e

>  <r_lp_Energy>  (134) 
17.563

>  <b_lp_Chiralities_Consistent>  (134) 
1

>  <s_lp_Variant>  (134) 
43:0-1

>  <s_i_glide_gridfile>  (134) 
pfpi4k_grid

>  <i_i_glide_lignum>  (134) 
11

>  <i_i_glide_rotatable_bonds>  (134) 
3

>  <r_i_docking_score>  (134) 
-3.53407

>  <r_i_glide_ligand_efficiency>  (134) 
-0.252434

>  <r_i_glide_ligand_efficiency_sa>  (134) 
-0.608401

>  <r_i_glide_ligand_efficiency_ln>  (134) 
-0.97115

>  <r_i_glide_gscore>  (134) 
-3.53407

>  <r_i_glide_lipo>  (134) 
-0.579447

>  <r_i_glide_hbond>  (134) 
-0.281711

>  <r_i_glide_metal>  (134) 
-0

>  <r_i_glide_rewards>  (134) 
-2.07982

>  <r_i_glide_evdw>  (134) 
-20.7329

>  <r_i_glide_ecoul>  (134) 
-4.64694

>  <r_i_glide_erotb>  (134) 
1.17326

>  <r_i_glide_esite>  (134) 
-0.0326662

>  <r_i_glide_emodel>  (134) 
-30.5939

>  <r_i_glide_energy>  (134) 
-25.3799

>  <r_i_glide_einternal>  (134) 
0.39036

>  <r_i_glide_intrahb_reward>  (134) 
-0

>  <i_i_glide_confnum>  (134) 
5

>  <i_i_glide_posenum>  (134) 
9

>  <r_i_glide_eff_state_penalty>  (134) 
0

>  <ligand_id>  (134) 
43

>  <original_smiles>  (134) 
O=C(Nc1ccccc1)c1cnsn1

>  <smiles>  (134) 
[H]c1nsnc1C(=O)N([H])c1c([H])c([H])c([H])c([H])c1[H]

$$$$
43:0:2
     RDKit          3D

 21 22  0  0  1  0  0  0  0  0999 V2000
    3.9334   -3.5725    1.3471 O   0  0  0  0  0  0  0  0  0  0  0  0
    3.2496   -4.2880    0.6178 C   0  0  0  0  0  0  0  0  0  0  0  0
    3.0602   -4.1169   -0.7003 N   0  0  0  0  0  0  0  0  0  0  0  0
    3.4158   -3.0499   -1.5643 C   0  0  0  0  0  0  0  0  0  0  0  0
    2.8092   -3.0490   -2.8356 C   0  0  0  0  0  0  0  0  0  0  0  0
    3.0977   -2.0315   -3.7629 C   0  0  0  0  0  0  0  0  0  0  0  0
    4.0062   -1.0104   -3.4293 C   0  0  0  0  0  0  0  0  0  0  0  0
    4.6222   -1.0181   -2.1639 C   0  0  0  0  0  0  0  0  0  0  0  0
    4.3345   -2.0288   -1.2278 C   0  0  0  0  0  0  0  0  0  0  0  0
    2.5812   -5.5078    1.1277 C   0  0  0  0  0  0  0  0  0  0  0  0
    3.1291   -6.3110    2.1795 C   0  0  0  0  0  0  0  0  0  0  0  0
    2.4077   -7.3480    2.5415 N   0  0  0  0  0  0  0  0  0  0  0  0
    1.0460   -7.3006    1.5821 S   0  0  0  0  0  0  0  0  0  0  0  0
    1.4121   -5.9325    0.6939 N   0  0  0  0  0  0  0  0  0  0  0  0
    2.5431   -4.8619   -1.1521 H   0  0  0  0  0  0  0  0  0  0  0  0
    2.1043   -3.8273   -3.1031 H   0  0  0  0  0  0  0  0  0  0  0  0
    2.6063   -2.0347   -4.7172 H   0  0  0  0  0  0  0  0  0  0  0  0
    4.2191   -0.2209   -4.1412 H   0  0  0  0  0  0  0  0  0  0  0  0
    5.3243   -0.2425   -1.8939 H   0  0  0  0  0  0  0  0  0  0  0  0
    4.8270   -2.0024   -0.2669 H   0  0  0  0  0  0  0  0  0  0  0  0
    4.0670   -6.1430    2.6843 H   0  0  0  0  0  0  0  0  0  0  0  0
  1  2  2  0
  2  3  1  0
  2 10  1  0
  3  4  1  0
  3 15  1  0
  4  9  1  0
  4  5  2  0
  5  6  1  0
  5 16  1  0
  6  7  2  0
  6 17  1  0
  7  8  1  0
  7 18  1  0
  8  9  2  0
  8 19  1  0
  9 20  1  0
 10 14  2  0
 10 11  1  0
 11 12  2  0
 11 21  1  0
 12 13  1  0
 13 14  1  0
M  END
>  <i_m_ct_stereo_status>  (135) 
1

>  <s_m_source_file>  (135) 
/var/tmp/pbs.5076255.sched01/tmpxnahmhzs/434e81vi2s.sdf

>  <i_m_source_file_index>  (135) 
11

>  <i_lp_mmshare_version>  (135) 
48012

>  <i_f3d_flags>  (135) 
0

>  <s_epik_input>  (135) 
bjFzbltjSF1jMUMoPU8pW05IXWMyW2NIXVtjSF1bY0hdW2NIXVtjSF0y

>  <s_epik_cmdline>  (135) 
J2VwaWtfcHl0aG9uJywgJy1waHQnLCAnMi4wJywgJy1waCcsICc3LjAnLCAnLXRuJywgJzgnLCAnLW1hJywgJzIwMCcsICctaW1hZScsICc8aW5maWxlLm1hZT4nLCAnLW9tYWUnLCAnPG91dGZpbGUubWFlPic=

>  <r_lp_tautomer_probability>  (135) 
1

>  <r_epik_Ionization_Penalty>  (135) 
4.83159e-07

>  <r_epik_Ionization_Penalty_Charging>  (135) 
0

>  <r_epik_Ionization_Penalty_Neutral>  (135) 
4.83159e-07

>  <r_epik_State_Penalty>  (135) 
-0

>  <r_epik_Charging_Adjusted_Penalty>  (135) 
0

>  <i_epik_Tot_Q>  (135) 
0

>  <i_epik_Tot_abs_Q>  (135) 
0

>  <s_lp_Force_Field>  (135) 
OPLS3e

>  <r_lp_Energy>  (135) 
17.563

>  <b_lp_Chiralities_Consistent>  (135) 
1

>  <s_lp_Variant>  (135) 
43:0-1

>  <s_i_glide_gridfile>  (135) 
pfpi4k_grid

>  <i_i_glide_lignum>  (135) 
11

>  <i_i_glide_rotatable_bonds>  (135) 
3

>  <r_i_docking_score>  (135) 
-3.43322

>  <r_i_glide_ligand_efficiency>  (135) 
-0.24523

>  <r_i_glide_ligand_efficiency_sa>  (135) 
-0.591038

>  <r_i_glide_ligand_efficiency_ln>  (135) 
-0.943435

>  <r_i_glide_gscore>  (135) 
-3.43322

>  <r_i_glide_lipo>  (135) 
-0.393919

>  <r_i_glide_hbond>  (135) 
-0.381361

>  <r_i_glide_metal>  (135) 
-0

>  <r_i_glide_rewards>  (135) 
-2.00975

>  <r_i_glide_evdw>  (135) 
-20.6749

>  <r_i_glide_ecoul>  (135) 
-4.98655

>  <r_i_glide_erotb>  (135) 
1.17326

>  <r_i_glide_esite>  (135) 
-0.0397174

>  <r_i_glide_emodel>  (135) 
-29.7927

>  <r_i_glide_energy>  (135) 
-25.6615

>  <r_i_glide_einternal>  (135) 
2.15028

>  <r_i_glide_intrahb_reward>  (135) 
-0

>  <i_i_glide_confnum>  (135) 
4

>  <i_i_glide_posenum>  (135) 
4

>  <r_i_glide_eff_state_penalty>  (135) 
0

>  <ligand_id>  (135) 
43

>  <original_smiles>  (135) 
O=C(Nc1ccccc1)c1cnsn1

>  <smiles>  (135) 
[H]c1nsnc1C(=O)N([H])c1c([H])c([H])c([H])c([H])c1[H]

$$$$
44:0:0
     RDKit          3D

 29 31  0  0  1  0  0  0  0  0999 V2000
    2.2179   -3.0703   -3.9208 N   0  0  0  0  0  0  0  0  0  0  0  0
    2.9214   -2.6733   -2.7867 C   0  0  0  0  0  0  0  0  0  0  0  0
    3.8522   -1.6073   -2.8681 C   0  0  0  0  0  0  0  0  0  0  0  0
    4.5726   -1.1753   -1.7305 C   0  0  0  0  0  0  0  0  0  0  0  0
    4.3258   -1.8472   -0.5206 C   0  0  0  0  0  0  0  0  0  0  0  0
    3.4235   -2.8952   -0.4421 C   0  0  0  0  0  0  0  0  0  0  0  0
    2.6950   -3.3395   -1.5579 C   0  0  0  0  0  0  0  0  0  0  0  0
    3.3737   -3.4137    0.9424 C   0  0  0  0  0  0  0  0  0  0  0  0
    2.6424   -4.3178    1.3481 O   0  0  0  0  0  0  0  0  0  0  0  0
    4.2677   -2.6849    1.6429 N   0  0  0  0  0  0  0  0  0  0  0  0
    4.5590   -2.7329    3.0725 C   0  0  0  0  0  0  0  0  0  0  0  0
    4.3420   -1.3369    3.7013 C   0  0  0  0  0  0  0  0  0  0  0  0
    5.0112   -0.2690    2.9171 N   0  0  0  0  0  0  0  0  0  0  0  0
    4.6347   -0.2624    1.4814 C   0  0  0  0  0  0  0  0  0  0  0  0
    4.9260   -1.6357    0.8493 C   0  0  2  0  0  0  0  0  0  0  0  0
    2.2800   -2.5976   -4.8178 H   0  0  0  0  0  0  0  0  0  0  0  0
    1.5237   -3.8127   -3.8773 H   0  0  0  0  0  0  0  0  0  0  0  0
    4.0059   -1.1123   -3.8128 H   0  0  0  0  0  0  0  0  0  0  0  0
    5.2821   -0.3593   -1.7935 H   0  0  0  0  0  0  0  0  0  0  0  0
    1.9920   -4.1559   -1.4766 H   0  0  0  0  0  0  0  0  0  0  0  0
    3.9408   -3.4788    3.5784 H   0  0  0  0  0  0  0  0  0  0  0  0
    5.5976   -3.0459    3.1947 H   0  0  0  0  0  0  0  0  0  0  0  0
    3.2739   -1.1159    3.7405 H   0  0  0  0  0  0  0  0  0  0  0  0
    4.7052   -1.3261    4.7308 H   0  0  0  0  0  0  0  0  0  0  0  0
    4.7786    0.6282    3.3245 H   0  0  0  0  0  0  0  0  0  0  0  0
    3.5728   -0.0203    1.4032 H   0  0  0  0  0  0  0  0  0  0  0  0
    5.1772    0.5226    0.9487 H   0  0  0  0  0  0  0  0  0  0  0  0
    5.9995   -1.8329    0.8113 H   0  0  0  0  0  0  0  0  0  0  0  0
    6.0111   -0.4187    2.9810 H   0  0  0  0  0  0  0  0  0  0  0  0
  1  2  1  0
  1 16  1  0
  1 17  1  0
  2  7  2  0
  2  3  1  0
  3  4  2  0
  3 18  1  0
  4  5  1  0
  4 19  1  0
  5 15  1  0
  5  6  2  0
  6  7  1  0
  6  8  1  0
  7 20  1  0
  8  9  2  0
  8 10  1  0
 10 15  1  0
 10 11  1  0
 11 12  1  0
 11 21  1  0
 11 22  1  0
 12 13  1  0
 12 23  1  0
 12 24  1  0
 13 14  1  0
 13 25  1  0
 13 29  1  0
 14 15  1  0
 14 26  1  0
 14 27  1  0
 15 28  1  6
M  CHG  1  13   1
M  END
>  <i_m_ct_stereo_status>  (136) 
1

>  <s_m_source_file>  (136) 
/var/tmp/pbs.5076255.sched01/tmpxnahmhzs/434e81vi2s.sdf

>  <i_m_source_file_index>  (136) 
12

>  <i_lp_mmshare_version>  (136) 
48012

>  <i_f3d_flags>  (136) 
0

>  <s_epik_input>  (136) 
W2NIXTFbY0hdYyhbTkgyXSlbY0hdYyhjMTIpQyg9TylOM1tDQEBIXTJbQ0gyXVtOSF1bQ0gyXVtDSDJdMw==

>  <s_epik_cmdline>  (136) 
J2VwaWtfcHl0aG9uJywgJy1waHQnLCAnMi4wJywgJy1waCcsICc3LjAnLCAnLXRuJywgJzgnLCAnLW1hJywgJzIwMCcsICctaW1hZScsICc8aW5maWxlLm1hZT4nLCAnLW9tYWUnLCAnPG91dGZpbGUubWFlPic=

>  <r_epik_Ionization_Penalty>  (136) 
0.0956427

>  <r_epik_Ionization_Penalty_Charging>  (136) 
0.0955962

>  <r_epik_Ionization_Penalty_Neutral>  (136) 
4.64652e-05

>  <r_epik_State_Penalty>  (136) 
0.0857768

>  <r_epik_Charging_Adjusted_Penalty>  (136) 
0.181373

>  <i_epik_Tot_Q>  (136) 
1

>  <i_epik_Tot_abs_Q>  (136) 
1

>  <s_lp_Force_Field>  (136) 
OPLS3e

>  <r_lp_Energy>  (136) 
14.6451

>  <b_lp_Chiralities_Consistent>  (136) 
1

>  <s_lp_Variant>  (136) 
44:0-1

>  <s_i_glide_gridfile>  (136) 
pfpi4k_grid

>  <i_i_glide_lignum>  (136) 
12

>  <i_i_glide_rotatable_bonds>  (136) 
0

>  <r_i_docking_score>  (136) 
-4.70107

>  <r_i_glide_ligand_efficiency>  (136) 
-0.313404

>  <r_i_glide_ligand_efficiency_sa>  (136) 
-0.772922

>  <r_i_glide_ligand_efficiency_ln>  (136) 
-1.2678

>  <r_i_glide_gscore>  (136) 
-4.70107

>  <r_i_glide_lipo>  (136) 
-0.347439

>  <r_i_glide_hbond>  (136) 
-0.608

>  <r_i_glide_metal>  (136) 
-0

>  <r_i_glide_rewards>  (136) 
-2.02848

>  <r_i_glide_evdw>  (136) 
-19.5264

>  <r_i_glide_ecoul>  (136) 
-4.92395

>  <r_i_glide_erotb>  (136) 
0

>  <r_i_glide_esite>  (136) 
-0.00223474

>  <r_i_glide_emodel>  (136) 
-34.4954

>  <r_i_glide_energy>  (136) 
-24.4503

>  <r_i_glide_einternal>  (136) 
0

>  <r_i_glide_intrahb_reward>  (136) 
-0

>  <i_i_glide_confnum>  (136) 
2

>  <i_i_glide_posenum>  (136) 
40

>  <r_i_glide_eff_state_penalty>  (136) 
0

>  <ligand_id>  (136) 
44

>  <original_smiles>  (136) 
Nc1ccc2c(c1)C(=O)N1CCNCC21

>  <smiles>  (136) 
[H]c1c([H])c2c(c([H])c1N([H])[H])C(=O)N1C([H])([H])C([H])([H])[N+]([H])([H])C([H])([H])C21[H]

$$$$
44:0:1
     RDKit          3D

 29 31  0  0  1  0  0  0  0  0999 V2000
   -1.5858    2.2838    9.3352 N   0  0  0  0  0  0  0  0  0  0  0  0
   -1.4411    2.0658    7.9672 C   0  0  0  0  0  0  0  0  0  0  0  0
   -2.3051    2.7207    7.0526 C   0  0  0  0  0  0  0  0  0  0  0  0
   -2.1848    2.5157    5.6577 C   0  0  0  0  0  0  0  0  0  0  0  0
   -1.1850    1.6320    5.2202 C   0  0  0  0  0  0  0  0  0  0  0  0
   -0.3443    0.9877    6.1132 C   0  0  0  0  0  0  0  0  0  0  0  0
   -0.4391    1.1854    7.5014 C   0  0  0  0  0  0  0  0  0  0  0  0
    0.6033    0.1214    5.3770 C   0  0  0  0  0  0  0  0  0  0  0  0
    1.4949   -0.5606    5.8769 O   0  0  0  0  0  0  0  0  0  0  0  0
    0.2814    0.2500    4.0723 N   0  0  0  0  0  0  0  0  0  0  0  0
    0.9613   -0.3263    2.9172 C   0  0  0  0  0  0  0  0  0  0  0  0
    1.3945    0.7974    1.9481 C   0  0  0  0  0  0  0  0  0  0  0  0
    0.2809    1.7412    1.6773 N   0  0  0  0  0  0  0  0  0  0  0  0
   -0.3314    2.3146    2.8971 C   0  0  0  0  0  0  0  0  0  0  0  0
   -0.8236    1.1882    3.8229 C   0  0  2  0  0  0  0  0  0  0  0  0
   -2.2587    2.9408    9.7095 H   0  0  0  0  0  0  0  0  0  0  0  0
   -0.9605    1.8737   10.0176 H   0  0  0  0  0  0  0  0  0  0  0  0
   -3.0721    3.3789    7.4236 H   0  0  0  0  0  0  0  0  0  0  0  0
   -2.8562    2.9955    4.9582 H   0  0  0  0  0  0  0  0  0  0  0  0
    0.2352    0.6831    8.1802 H   0  0  0  0  0  0  0  0  0  0  0  0
    1.8226   -0.9285    3.2190 H   0  0  0  0  0  0  0  0  0  0  0  0
    0.2626   -1.0024    2.4231 H   0  0  0  0  0  0  0  0  0  0  0  0
    2.2279    1.3559    2.3792 H   0  0  0  0  0  0  0  0  0  0  0  0
    1.7494    0.3700    1.0083 H   0  0  0  0  0  0  0  0  0  0  0  0
    0.6080    2.5222    1.1105 H   0  0  0  0  0  0  0  0  0  0  0  0
    0.4232    2.9253    3.3964 H   0  0  0  0  0  0  0  0  0  0  0  0
   -1.1455    2.9826    2.6155 H   0  0  0  0  0  0  0  0  0  0  0  0
   -1.6638    0.6541    3.3737 H   0  0  0  0  0  0  0  0  0  0  0  0
   -0.4234    1.2501    1.1360 H   0  0  0  0  0  0  0  0  0  0  0  0
  1  2  1  0
  1 16  1  0
  1 17  1  0
  2  7  2  0
  2  3  1  0
  3  4  2  0
  3 18  1  0
  4  5  1  0
  4 19  1  0
  5 15  1  0
  5  6  2  0
  6  7  1  0
  6  8  1  0
  7 20  1  0
  8  9  2  0
  8 10  1  0
 10 15  1  0
 10 11  1  0
 11 12  1  0
 11 21  1  0
 11 22  1  0
 12 13  1  0
 12 23  1  0
 12 24  1  0
 13 14  1  0
 13 25  1  0
 13 29  1  0
 14 15  1  0
 14 26  1  0
 14 27  1  0
 15 28  1  6
M  CHG  1  13   1
M  END
>  <i_m_ct_stereo_status>  (137) 
1

>  <s_m_source_file>  (137) 
/var/tmp/pbs.5076255.sched01/tmpxnahmhzs/434e81vi2s.sdf

>  <i_m_source_file_index>  (137) 
12

>  <i_lp_mmshare_version>  (137) 
48012

>  <i_f3d_flags>  (137) 
0

>  <s_epik_input>  (137) 
W2NIXTFbY0hdYyhbTkgyXSlbY0hdYyhjMTIpQyg9TylOM1tDQEBIXTJbQ0gyXVtOSF1bQ0gyXVtDSDJdMw==

>  <s_epik_cmdline>  (137) 
J2VwaWtfcHl0aG9uJywgJy1waHQnLCAnMi4wJywgJy1waCcsICc3LjAnLCAnLXRuJywgJzgnLCAnLW1hJywgJzIwMCcsICctaW1hZScsICc8aW5maWxlLm1hZT4nLCAnLW9tYWUnLCAnPG91dGZpbGUubWFlPic=

>  <r_epik_Ionization_Penalty>  (137) 
0.0956427

>  <r_epik_Ionization_Penalty_Charging>  (137) 
0.0955962

>  <r_epik_Ionization_Penalty_Neutral>  (137) 
4.64652e-05

>  <r_epik_State_Penalty>  (137) 
0.0857768

>  <r_epik_Charging_Adjusted_Penalty>  (137) 
0.181373

>  <i_epik_Tot_Q>  (137) 
1

>  <i_epik_Tot_abs_Q>  (137) 
1

>  <s_lp_Force_Field>  (137) 
OPLS3e

>  <r_lp_Energy>  (137) 
14.6451

>  <b_lp_Chiralities_Consistent>  (137) 
1

>  <s_lp_Variant>  (137) 
44:0-1

>  <s_i_glide_gridfile>  (137) 
pfpi4k_grid

>  <i_i_glide_lignum>  (137) 
12

>  <i_i_glide_rotatable_bonds>  (137) 
0

>  <r_i_docking_score>  (137) 
-4.33584

>  <r_i_glide_ligand_efficiency>  (137) 
-0.289056

>  <r_i_glide_ligand_efficiency_sa>  (137) 
-0.712874

>  <r_i_glide_ligand_efficiency_ln>  (137) 
-1.1693

>  <r_i_glide_gscore>  (137) 
-4.33584

>  <r_i_glide_lipo>  (137) 
-0.156141

>  <r_i_glide_hbond>  (137) 
-0.249622

>  <r_i_glide_metal>  (137) 
-0

>  <r_i_glide_rewards>  (137) 
-2.01649

>  <r_i_glide_evdw>  (137) 
-14.7059

>  <r_i_glide_ecoul>  (137) 
-6.96903

>  <r_i_glide_erotb>  (137) 
0

>  <r_i_glide_esite>  (137) 
-0.132939

>  <r_i_glide_emodel>  (137) 
-30.9423

>  <r_i_glide_energy>  (137) 
-21.675

>  <r_i_glide_einternal>  (137) 
0

>  <r_i_glide_intrahb_reward>  (137) 
-0

>  <i_i_glide_confnum>  (137) 
2

>  <i_i_glide_posenum>  (137) 
3

>  <r_i_glide_eff_state_penalty>  (137) 
0

>  <ligand_id>  (137) 
44

>  <original_smiles>  (137) 
Nc1ccc2c(c1)C(=O)N1CCNCC21

>  <smiles>  (137) 
[H]c1c([H])c2c(c([H])c1N([H])[H])C(=O)N1C([H])([H])C([H])([H])[N+]([H])([H])C([H])([H])C21[H]

$$$$
44:0:2
     RDKit          3D

 29 31  0  0  1  0  0  0  0  0999 V2000
    3.4340   -1.7040   -4.1617 N   0  0  0  0  0  0  0  0  0  0  0  0
    3.7035   -1.8474   -2.7997 C   0  0  0  0  0  0  0  0  0  0  0  0
    4.5869   -0.9400   -2.1520 C   0  0  0  0  0  0  0  0  0  0  0  0
    4.9289   -1.0807   -0.7867 C   0  0  0  0  0  0  0  0  0  0  0  0
    4.3458   -2.1530   -0.0916 C   0  0  0  0  0  0  0  0  0  0  0  0
    3.4690   -3.0314   -0.7090 C   0  0  0  0  0  0  0  0  0  0  0  0
    3.1145   -2.9069   -2.0639 C   0  0  0  0  0  0  0  0  0  0  0  0
    3.0227   -4.0529    0.2683 C   0  0  0  0  0  0  0  0  0  0  0  0
    2.2092   -4.9550    0.0753 O   0  0  0  0  0  0  0  0  0  0  0  0
    3.6760   -3.7798    1.4161 N   0  0  0  0  0  0  0  0  0  0  0  0
    3.5307   -4.4400    2.7105 C   0  0  0  0  0  0  0  0  0  0  0  0
    3.1216   -3.4065    3.7813 C   0  0  0  0  0  0  0  0  0  0  0  0
    3.9818   -2.1964    3.7322 N   0  0  0  0  0  0  0  0  0  0  0  0
    4.0451   -1.5587    2.3931 C   0  0  0  0  0  0  0  0  0  0  0  0
    4.5238   -2.5823    1.3438 C   0  0  2  0  0  0  0  0  0  0  0  0
    3.6702   -0.8426   -4.6403 H   0  0  0  0  0  0  0  0  0  0  0  0
    2.6565   -2.2016   -4.5844 H   0  0  0  0  0  0  0  0  0  0  0  0
    5.0072   -0.1203   -2.7102 H   0  0  0  0  0  0  0  0  0  0  0  0
    5.6187   -0.3979   -0.2973 H   0  0  0  0  0  0  0  0  0  0  0  0
    2.4246   -3.6051   -2.5194 H   0  0  0  0  0  0  0  0  0  0  0  0
    2.7961   -5.2484    2.6718 H   0  0  0  0  0  0  0  0  0  0  0  0
    4.4901   -4.8949    2.9652 H   0  0  0  0  0  0  0  0  0  0  0  0
    2.0892   -3.0993    3.6152 H   0  0  0  0  0  0  0  0  0  0  0  0
    3.1650   -3.8569    4.7733 H   0  0  0  0  0  0  0  0  0  0  0  0
    3.6322   -1.5232    4.4006 H   0  0  0  0  0  0  0  0  0  0  0  0
    3.0521   -1.1893    2.1385 H   0  0  0  0  0  0  0  0  0  0  0  0
    4.7083   -0.6945    2.4215 H   0  0  0  0  0  0  0  0  0  0  0  0
    5.5639   -2.8664    1.5125 H   0  0  0  0  0  0  0  0  0  0  0  0
    4.9195   -2.4747    3.9925 H   0  0  0  0  0  0  0  0  0  0  0  0
  1  2  1  0
  1 16  1  0
  1 17  1  0
  2  7  2  0
  2  3  1  0
  3  4  2  0
  3 18  1  0
  4  5  1  0
  4 19  1  0
  5 15  1  0
  5  6  2  0
  6  7  1  0
  6  8  1  0
  7 20  1  0
  8  9  2  0
  8 10  1  0
 10 15  1  0
 10 11  1  0
 11 12  1  0
 11 21  1  0
 11 22  1  0
 12 13  1  0
 12 23  1  0
 12 24  1  0
 13 14  1  0
 13 25  1  0
 13 29  1  0
 14 15  1  0
 14 26  1  0
 14 27  1  0
 15 28  1  1
M  CHG  1  13   1
M  END
>  <i_m_ct_stereo_status>  (138) 
1

>  <s_m_source_file>  (138) 
/var/tmp/pbs.5076255.sched01/tmpxnahmhzs/434e81vi2s.sdf

>  <i_m_source_file_index>  (138) 
12

>  <i_lp_mmshare_version>  (138) 
48012

>  <i_f3d_flags>  (138) 
0

>  <s_epik_input>  (138) 
W2NIXTFbY0hdYyhbTkgyXSlbY0hdYyhjMTIpQyg9TylOM1tDQEBIXTJbQ0gyXVtOSF1bQ0gyXVtDSDJdMw==

>  <s_epik_cmdline>  (138) 
J2VwaWtfcHl0aG9uJywgJy1waHQnLCAnMi4wJywgJy1waCcsICc3LjAnLCAnLXRuJywgJzgnLCAnLW1hJywgJzIwMCcsICctaW1hZScsICc8aW5maWxlLm1hZT4nLCAnLW9tYWUnLCAnPG91dGZpbGUubWFlPic=

>  <r_epik_Ionization_Penalty>  (138) 
0.0956427

>  <r_epik_Ionization_Penalty_Charging>  (138) 
0.0955962

>  <r_epik_Ionization_Penalty_Neutral>  (138) 
4.64652e-05

>  <r_epik_State_Penalty>  (138) 
0.0857768

>  <r_epik_Charging_Adjusted_Penalty>  (138) 
0.181373

>  <i_epik_Tot_Q>  (138) 
1

>  <i_epik_Tot_abs_Q>  (138) 
1

>  <s_lp_Force_Field>  (138) 
OPLS3e

>  <r_lp_Energy>  (138) 
14.6451

>  <b_lp_Chiralities_Consistent>  (138) 
1

>  <s_lp_Variant>  (138) 
44:0-1

>  <s_i_glide_gridfile>  (138) 
pfpi4k_grid

>  <i_i_glide_lignum>  (138) 
12

>  <i_i_glide_rotatable_bonds>  (138) 
0

>  <r_i_docking_score>  (138) 
-3.79962

>  <r_i_glide_ligand_efficiency>  (138) 
-0.253308

>  <r_i_glide_ligand_efficiency_sa>  (138) 
-0.624711

>  <r_i_glide_ligand_efficiency_ln>  (138) 
-1.02469

>  <r_i_glide_gscore>  (138) 
-3.79962

>  <r_i_glide_lipo>  (138) 
-0.0179218

>  <r_i_glide_hbond>  (138) 
-0.12363

>  <r_i_glide_metal>  (138) 
-0

>  <r_i_glide_rewards>  (138) 
-2.02612

>  <r_i_glide_evdw>  (138) 
-18.7836

>  <r_i_glide_ecoul>  (138) 
-4.45076

>  <r_i_glide_erotb>  (138) 
0

>  <r_i_glide_esite>  (138) 
-0.0251572

>  <r_i_glide_emodel>  (138) 
-31.3456

>  <r_i_glide_energy>  (138) 
-23.2343

>  <r_i_glide_einternal>  (138) 
0

>  <r_i_glide_intrahb_reward>  (138) 
-0

>  <i_i_glide_confnum>  (138) 
1

>  <i_i_glide_posenum>  (138) 
27

>  <r_i_glide_eff_state_penalty>  (138) 
0

>  <ligand_id>  (138) 
44

>  <original_smiles>  (138) 
Nc1ccc2c(c1)C(=O)N1CCNCC21

>  <smiles>  (138) 
[H]c1c([H])c2c(c([H])c1N([H])[H])C(=O)N1C([H])([H])C([H])([H])[N+]([H])([H])C([H])([H])C21[H]

$$$$
44:1:0
     RDKit          3D

 28 30  0  0  1  0  0  0  0  0999 V2000
   -5.7870   -4.2518   -4.7140 N   0  0  0  0  0  0  0  0  0  0  0  0
   -6.3137   -5.3864   -5.3300 C   0  0  0  0  0  0  0  0  0  0  0  0
   -7.5054   -5.2766   -6.0863 C   0  0  0  0  0  0  0  0  0  0  0  0
   -8.0549   -6.3937   -6.7600 C   0  0  0  0  0  0  0  0  0  0  0  0
   -7.3738   -7.6162   -6.6386 C   0  0  0  0  0  0  0  0  0  0  0  0
   -6.2109   -7.7224   -5.8984 C   0  0  0  0  0  0  0  0  0  0  0  0
   -5.6488   -6.6262   -5.2227 C   0  0  0  0  0  0  0  0  0  0  0  0
   -5.7125   -9.1127   -5.9486 C   0  0  0  0  0  0  0  0  0  0  0  0
   -4.6752   -9.5204   -5.4336 O   0  0  0  0  0  0  0  0  0  0  0  0
   -6.6175   -9.8000   -6.6758 N   0  0  0  0  0  0  0  0  0  0  0  0
   -6.5836  -11.1890   -7.1185 C   0  0  0  0  0  0  0  0  0  0  0  0
   -6.6899  -11.2386   -8.6609 C   0  0  0  0  0  0  0  0  0  0  0  0
   -7.8094  -10.4484   -9.1847 N   0  0  0  0  0  0  0  0  0  0  0  0
   -7.7458   -9.0538   -8.7285 C   0  0  0  0  0  0  0  0  0  0  0  0
   -7.7214   -8.9782   -7.1851 C   0  0  2  0  0  0  0  0  0  0  0  0
   -6.2285   -3.3488   -4.7973 H   0  0  0  0  0  0  0  0  0  0  0  0
   -4.9105   -4.2530   -4.2043 H   0  0  0  0  0  0  0  0  0  0  0  0
   -8.0064   -4.3262   -6.1617 H   0  0  0  0  0  0  0  0  0  0  0  0
   -8.9777   -6.3224   -7.3305 H   0  0  0  0  0  0  0  0  0  0  0  0
   -4.7390   -6.7520   -4.6586 H   0  0  0  0  0  0  0  0  0  0  0  0
   -5.6580  -11.6699   -6.8002 H   0  0  0  0  0  0  0  0  0  0  0  0
   -7.4011  -11.7387   -6.6485 H   0  0  0  0  0  0  0  0  0  0  0  0
   -5.7664  -10.8760   -9.1122 H   0  0  0  0  0  0  0  0  0  0  0  0
   -6.8013  -12.2704   -8.9947 H   0  0  0  0  0  0  0  0  0  0  0  0
   -8.6953  -10.8649   -8.9388 H   0  0  0  0  0  0  0  0  0  0  0  0
   -6.8588   -8.5721   -9.1451 H   0  0  0  0  0  0  0  0  0  0  0  0
   -8.6095   -8.5091   -9.1140 H   0  0  0  0  0  0  0  0  0  0  0  0
   -8.6590   -9.3312   -6.7494 H   0  0  0  0  0  0  0  0  0  0  0  0
  1  2  1  0
  1 16  1  0
  1 17  1  0
  2  7  2  0
  2  3  1  0
  3  4  2  0
  3 18  1  0
  4  5  1  0
  4 19  1  0
  5 15  1  0
  5  6  2  0
  6  7  1  0
  6  8  1  0
  7 20  1  0
  8  9  2  0
  8 10  1  0
 10 15  1  0
 10 11  1  0
 11 12  1  0
 11 21  1  0
 11 22  1  0
 12 13  1  0
 12 23  1  0
 12 24  1  0
 13 14  1  0
 13 25  1  0
 14 15  1  0
 14 26  1  0
 14 27  1  0
 15 28  1  1
M  END
>  <i_m_ct_stereo_status>  (139) 
1

>  <s_m_source_file>  (139) 
/var/tmp/pbs.5076255.sched01/tmpxnahmhzs/434e81vi2s.sdf

>  <i_m_source_file_index>  (139) 
13

>  <i_lp_mmshare_version>  (139) 
48012

>  <i_f3d_flags>  (139) 
0

>  <s_epik_input>  (139) 
W2NIXTFbY0hdYyhbTkgyXSlbY0hdYyhjMTIpQyg9TylOM1tDQEBIXTJbQ0gyXVtOSF1bQ0gyXVtDSDJdMw==

>  <s_epik_cmdline>  (139) 
J2VwaWtfcHl0aG9uJywgJy1waHQnLCAnMi4wJywgJy1waCcsICc3LjAnLCAnLXRuJywgJzgnLCAnLW1hJywgJzIwMCcsICctaW1hZScsICc8aW5maWxlLm1hZT4nLCAnLW9tYWUnLCAnPG91dGZpbGUubWFlPic=

>  <r_epik_Ionization_Penalty>  (139) 
1.12839

>  <r_epik_Ionization_Penalty_Charging>  (139) 
0

>  <r_epik_Ionization_Penalty_Neutral>  (139) 
1.12839

>  <r_epik_State_Penalty>  (139) 
1.1874

>  <r_epik_Charging_Adjusted_Penalty>  (139) 
1.1874

>  <i_epik_Tot_Q>  (139) 
0

>  <i_epik_Tot_abs_Q>  (139) 
0

>  <s_lp_Force_Field>  (139) 
OPLS3e

>  <r_lp_Energy>  (139) 
13.2187

>  <b_lp_Chiralities_Consistent>  (139) 
1

>  <s_lp_Variant>  (139) 
44:0-2

>  <s_i_glide_gridfile>  (139) 
pfpi4k_grid

>  <i_i_glide_lignum>  (139) 
13

>  <i_i_glide_rotatable_bonds>  (139) 
0

>  <r_i_docking_score>  (139) 
-5.86041

>  <r_i_glide_ligand_efficiency>  (139) 
-0.390694

>  <r_i_glide_ligand_efficiency_sa>  (139) 
-0.963534

>  <r_i_glide_ligand_efficiency_ln>  (139) 
-1.58046

>  <r_i_glide_gscore>  (139) 
-5.86041

>  <r_i_glide_lipo>  (139) 
-1.86747

>  <r_i_glide_hbond>  (139) 
-0.0331197

>  <r_i_glide_metal>  (139) 
-0

>  <r_i_glide_rewards>  (139) 
-2.93007

>  <r_i_glide_evdw>  (139) 
-24.5827

>  <r_i_glide_ecoul>  (139) 
1.32928

>  <r_i_glide_erotb>  (139) 
0

>  <r_i_glide_esite>  (139) 
0

>  <r_i_glide_emodel>  (139) 
-31.55

>  <r_i_glide_energy>  (139) 
-23.2534

>  <r_i_glide_einternal>  (139) 
0

>  <r_i_glide_intrahb_reward>  (139) 
-0

>  <i_i_glide_confnum>  (139) 
2

>  <i_i_glide_posenum>  (139) 
30

>  <r_i_glide_eff_state_penalty>  (139) 
0

>  <ligand_id>  (139) 
44

>  <original_smiles>  (139) 
Nc1ccc2c(c1)C(=O)N1CCNCC21

>  <smiles>  (139) 
[H]c1c([H])c2c(c([H])c1N([H])[H])C(=O)N1C([H])([H])C([H])([H])N([H])C([H])([H])C21[H]

$$$$
44:1:1
     RDKit          3D

 28 30  0  0  1  0  0  0  0  0999 V2000
    2.2142   -3.0604   -3.9201 N   0  0  0  0  0  0  0  0  0  0  0  0
    2.9839   -2.6726   -2.8216 C   0  0  0  0  0  0  0  0  0  0  0  0
    3.9445   -1.6351   -2.9495 C   0  0  0  0  0  0  0  0  0  0  0  0
    4.7285   -1.2172   -1.8490 C   0  0  0  0  0  0  0  0  0  0  0  0
    4.5208   -1.8777   -0.6272 C   0  0  0  0  0  0  0  0  0  0  0  0
    3.5774   -2.8852   -0.5008 C   0  0  0  0  0  0  0  0  0  0  0  0
    2.7876   -3.3123   -1.5792 C   0  0  0  0  0  0  0  0  0  0  0  0
    3.5573   -3.3833    0.8902 C   0  0  0  0  0  0  0  0  0  0  0  0
    2.8048   -4.2563    1.3266 O   0  0  0  0  0  0  0  0  0  0  0  0
    4.5096   -2.6827    1.5436 N   0  0  0  0  0  0  0  0  0  0  0  0
    4.8567   -2.6898    2.9571 C   0  0  0  0  0  0  0  0  0  0  0  0
    4.7219   -1.2598    3.5325 C   0  0  0  0  0  0  0  0  0  0  0  0
    5.4343   -0.2633    2.7209 N   0  0  0  0  0  0  0  0  0  0  0  0
    4.9907   -0.2845    1.3233 C   0  0  0  0  0  0  0  0  0  0  0  0
    5.1966   -1.6847    0.7103 C   0  0  2  0  0  0  0  0  0  0  0  0
    2.2240   -2.5743   -4.8143 H   0  0  0  0  0  0  0  0  0  0  0  0
    1.4880   -3.7624   -3.8303 H   0  0  0  0  0  0  0  0  0  0  0  0
    4.0753   -1.1538   -3.8987 H   0  0  0  0  0  0  0  0  0  0  0  0
    5.4542   -0.4189   -1.9363 H   0  0  0  0  0  0  0  0  0  0  0  0
    2.0671   -4.1054   -1.4466 H   0  0  0  0  0  0  0  0  0  0  0  0
    4.2094   -3.3655    3.5159 H   0  0  0  0  0  0  0  0  0  0  0  0
    5.8713   -3.0734    3.0735 H   0  0  0  0  0  0  0  0  0  0  0  0
    3.6687   -0.9819    3.6206 H   0  0  0  0  0  0  0  0  0  0  0  0
    5.1227   -1.2281    4.5471 H   0  0  0  0  0  0  0  0  0  0  0  0
    6.4384   -0.3769    2.7822 H   0  0  0  0  0  0  0  0  0  0  0  0
    3.9435    0.0136    1.2659 H   0  0  0  0  0  0  0  0  0  0  0  0
    5.5546    0.4545    0.7534 H   0  0  0  0  0  0  0  0  0  0  0  0
    6.2548   -1.9467    0.6349 H   0  0  0  0  0  0  0  0  0  0  0  0
  1  2  1  0
  1 16  1  0
  1 17  1  0
  2  7  2  0
  2  3  1  0
  3  4  2  0
  3 18  1  0
  4  5  1  0
  4 19  1  0
  5 15  1  0
  5  6  2  0
  6  7  1  0
  6  8  1  0
  7 20  1  0
  8  9  2  0
  8 10  1  0
 10 15  1  0
 10 11  1  0
 11 12  1  0
 11 21  1  0
 11 22  1  0
 12 13  1  0
 12 23  1  0
 12 24  1  0
 13 14  1  0
 13 25  1  0
 14 15  1  0
 14 26  1  0
 14 27  1  0
 15 28  1  6
M  END
>  <i_m_ct_stereo_status>  (140) 
1

>  <s_m_source_file>  (140) 
/var/tmp/pbs.5076255.sched01/tmpxnahmhzs/434e81vi2s.sdf

>  <i_m_source_file_index>  (140) 
13

>  <i_lp_mmshare_version>  (140) 
48012

>  <i_f3d_flags>  (140) 
0

>  <s_epik_input>  (140) 
W2NIXTFbY0hdYyhbTkgyXSlbY0hdYyhjMTIpQyg9TylOM1tDQEBIXTJbQ0gyXVtOSF1bQ0gyXVtDSDJdMw==

>  <s_epik_cmdline>  (140) 
J2VwaWtfcHl0aG9uJywgJy1waHQnLCAnMi4wJywgJy1waCcsICc3LjAnLCAnLXRuJywgJzgnLCAnLW1hJywgJzIwMCcsICctaW1hZScsICc8aW5maWxlLm1hZT4nLCAnLW9tYWUnLCAnPG91dGZpbGUubWFlPic=

>  <r_epik_Ionization_Penalty>  (140) 
1.12839

>  <r_epik_Ionization_Penalty_Charging>  (140) 
0

>  <r_epik_Ionization_Penalty_Neutral>  (140) 
1.12839

>  <r_epik_State_Penalty>  (140) 
1.1874

>  <r_epik_Charging_Adjusted_Penalty>  (140) 
1.1874

>  <i_epik_Tot_Q>  (140) 
0

>  <i_epik_Tot_abs_Q>  (140) 
0

>  <s_lp_Force_Field>  (140) 
OPLS3e

>  <r_lp_Energy>  (140) 
13.2187

>  <b_lp_Chiralities_Consistent>  (140) 
1

>  <s_lp_Variant>  (140) 
44:0-2

>  <s_i_glide_gridfile>  (140) 
pfpi4k_grid

>  <i_i_glide_lignum>  (140) 
13

>  <i_i_glide_rotatable_bonds>  (140) 
0

>  <r_i_docking_score>  (140) 
-4.84652

>  <r_i_glide_ligand_efficiency>  (140) 
-0.323101

>  <r_i_glide_ligand_efficiency_sa>  (140) 
-0.796836

>  <r_i_glide_ligand_efficiency_ln>  (140) 
-1.30703

>  <r_i_glide_gscore>  (140) 
-4.84652

>  <r_i_glide_lipo>  (140) 
-0.46398

>  <r_i_glide_hbond>  (140) 
-0.688124

>  <r_i_glide_metal>  (140) 
-0

>  <r_i_glide_rewards>  (140) 
-2.04832

>  <r_i_glide_evdw>  (140) 
-20.2281

>  <r_i_glide_ecoul>  (140) 
-4.22547

>  <r_i_glide_erotb>  (140) 
0

>  <r_i_glide_esite>  (140) 
-0.000867109

>  <r_i_glide_emodel>  (140) 
-31.2798

>  <r_i_glide_energy>  (140) 
-24.4536

>  <r_i_glide_einternal>  (140) 
0

>  <r_i_glide_intrahb_reward>  (140) 
-0

>  <i_i_glide_confnum>  (140) 
1

>  <i_i_glide_posenum>  (140) 
26

>  <r_i_glide_eff_state_penalty>  (140) 
0

>  <ligand_id>  (140) 
44

>  <original_smiles>  (140) 
Nc1ccc2c(c1)C(=O)N1CCNCC21

>  <smiles>  (140) 
[H]c1c([H])c2c(c([H])c1N([H])[H])C(=O)N1C([H])([H])C([H])([H])N([H])C([H])([H])C21[H]

$$$$
44:1:2
     RDKit          3D

 28 30  0  0  1  0  0  0  0  0999 V2000
    3.4202   -1.6357   -4.3282 N   0  0  0  0  0  0  0  0  0  0  0  0
    3.6102   -1.8722   -2.9628 C   0  0  0  0  0  0  0  0  0  0  0  0
    4.5191   -1.0621   -2.2285 C   0  0  0  0  0  0  0  0  0  0  0  0
    4.8193   -1.3157   -0.8683 C   0  0  0  0  0  0  0  0  0  0  0  0
    4.1539   -2.3902   -0.2564 C   0  0  0  0  0  0  0  0  0  0  0  0
    3.2307   -3.1595   -0.9494 C   0  0  0  0  0  0  0  0  0  0  0  0
    2.9265   -2.9285   -2.3069 C   0  0  0  0  0  0  0  0  0  0  0  0
    2.6853   -4.2004   -0.0420 C   0  0  0  0  0  0  0  0  0  0  0  0
    1.8201   -5.0313   -0.3175 O   0  0  0  0  0  0  0  0  0  0  0  0
    3.3165   -4.0305    1.1357 N   0  0  0  0  0  0  0  0  0  0  0  0
    3.0790   -4.7154    2.4010 C   0  0  0  0  0  0  0  0  0  0  0  0
    2.7216   -3.6734    3.4843 C   0  0  0  0  0  0  0  0  0  0  0  0
    3.6948   -2.5749    3.5481 N   0  0  0  0  0  0  0  0  0  0  0  0
    3.8339   -1.9083    2.2457 C   0  0  0  0  0  0  0  0  0  0  0  0
    4.2642   -2.9143    1.1530 C   0  0  2  0  0  0  0  0  0  0  0  0
    3.6857   -0.7365   -4.7164 H   0  0  0  0  0  0  0  0  0  0  0  0
    2.5998   -2.0112   -4.8067 H   0  0  0  0  0  0  0  0  0  0  0  0
    5.0101   -0.2346   -2.7151 H   0  0  0  0  0  0  0  0  0  0  0  0
    5.5338   -0.7178   -0.3064 H   0  0  0  0  0  0  0  0  0  0  0  0
    2.2015   -3.5544   -2.8149 H   0  0  0  0  0  0  0  0  0  0  0  0
    2.2639   -5.4321    2.3037 H   0  0  0  0  0  0  0  0  0  0  0  0
    3.9667   -5.2935    2.6630 H   0  0  0  0  0  0  0  0  0  0  0  0
    1.7139   -3.2805    3.3179 H   0  0  0  0  0  0  0  0  0  0  0  0
    2.6903   -4.1645    4.4549 H   0  0  0  0  0  0  0  0  0  0  0  0
    4.5889   -2.9103    3.8767 H   0  0  0  0  0  0  0  0  0  0  0  0
    2.8885   -1.4322    1.9765 H   0  0  0  0  0  0  0  0  0  0  0  0
    4.5708   -1.1098    2.3271 H   0  0  0  0  0  0  0  0  0  0  0  0
    5.2655   -3.3102    1.3302 H   0  0  0  0  0  0  0  0  0  0  0  0
  1  2  1  0
  1 16  1  0
  1 17  1  0
  2  7  2  0
  2  3  1  0
  3  4  2  0
  3 18  1  0
  4  5  1  0
  4 19  1  0
  5 15  1  0
  5  6  2  0
  6  7  1  0
  6  8  1  0
  7 20  1  0
  8  9  2  0
  8 10  1  0
 10 15  1  0
 10 11  1  0
 11 12  1  0
 11 21  1  0
 11 22  1  0
 12 13  1  0
 12 23  1  0
 12 24  1  0
 13 14  1  0
 13 25  1  0
 14 15  1  0
 14 26  1  0
 14 27  1  0
 15 28  1  1
M  END
>  <i_m_ct_stereo_status>  (141) 
1

>  <s_m_source_file>  (141) 
/var/tmp/pbs.5076255.sched01/tmpxnahmhzs/434e81vi2s.sdf

>  <i_m_source_file_index>  (141) 
13

>  <i_lp_mmshare_version>  (141) 
48012

>  <i_f3d_flags>  (141) 
0

>  <s_epik_input>  (141) 
W2NIXTFbY0hdYyhbTkgyXSlbY0hdYyhjMTIpQyg9TylOM1tDQEBIXTJbQ0gyXVtOSF1bQ0gyXVtDSDJdMw==

>  <s_epik_cmdline>  (141) 
J2VwaWtfcHl0aG9uJywgJy1waHQnLCAnMi4wJywgJy1waCcsICc3LjAnLCAnLXRuJywgJzgnLCAnLW1hJywgJzIwMCcsICctaW1hZScsICc8aW5maWxlLm1hZT4nLCAnLW9tYWUnLCAnPG91dGZpbGUubWFlPic=

>  <r_epik_Ionization_Penalty>  (141) 
1.12839

>  <r_epik_Ionization_Penalty_Charging>  (141) 
0

>  <r_epik_Ionization_Penalty_Neutral>  (141) 
1.12839

>  <r_epik_State_Penalty>  (141) 
1.1874

>  <r_epik_Charging_Adjusted_Penalty>  (141) 
1.1874

>  <i_epik_Tot_Q>  (141) 
0

>  <i_epik_Tot_abs_Q>  (141) 
0

>  <s_lp_Force_Field>  (141) 
OPLS3e

>  <r_lp_Energy>  (141) 
13.2187

>  <b_lp_Chiralities_Consistent>  (141) 
1

>  <s_lp_Variant>  (141) 
44:0-2

>  <s_i_glide_gridfile>  (141) 
pfpi4k_grid

>  <i_i_glide_lignum>  (141) 
13

>  <i_i_glide_rotatable_bonds>  (141) 
0

>  <r_i_docking_score>  (141) 
-3.99496

>  <r_i_glide_ligand_efficiency>  (141) 
-0.266331

>  <r_i_glide_ligand_efficiency_sa>  (141) 
-0.656828

>  <r_i_glide_ligand_efficiency_ln>  (141) 
-1.07738

>  <r_i_glide_gscore>  (141) 
-3.99496

>  <r_i_glide_lipo>  (141) 
-0.0512293

>  <r_i_glide_hbond>  (141) 
-0.309521

>  <r_i_glide_metal>  (141) 
-0

>  <r_i_glide_rewards>  (141) 
-2.02336

>  <r_i_glide_evdw>  (141) 
-18.4043

>  <r_i_glide_ecoul>  (141) 
-4.12129

>  <r_i_glide_erotb>  (141) 
0

>  <r_i_glide_esite>  (141) 
-0.0724441

>  <r_i_glide_emodel>  (141) 
-27.8417

>  <r_i_glide_energy>  (141) 
-22.5256

>  <r_i_glide_einternal>  (141) 
0

>  <r_i_glide_intrahb_reward>  (141) 
-0

>  <i_i_glide_confnum>  (141) 
2

>  <i_i_glide_posenum>  (141) 
10

>  <r_i_glide_eff_state_penalty>  (141) 
0

>  <ligand_id>  (141) 
44

>  <original_smiles>  (141) 
Nc1ccc2c(c1)C(=O)N1CCNCC21

>  <smiles>  (141) 
[H]c1c([H])c2c(c([H])c1N([H])[H])C(=O)N1C([H])([H])C([H])([H])N([H])C([H])([H])C21[H]

$$$$
45:0:0
     RDKit          3D

 45 49  0  0  1  0  0  0  0  0999 V2000
    4.7828    0.9006    4.4708 O   0  0  0  0  0  0  0  0  0  0  0  0
    3.9553    0.3204    3.7663 C   0  0  0  0  0  0  0  0  0  0  0  0
    4.4734   -0.4629    2.5884 C   0  0  0  0  0  0  0  0  0  0  0  0
    5.8282   -0.8308    2.4232 C   0  0  0  0  0  0  0  0  0  0  0  0
    6.0280   -1.4562    1.2757 N   0  0  0  0  0  0  0  0  0  0  0  0
    4.8205   -1.4890    0.6644 N   0  0  0  0  0  0  0  0  0  0  0  0
    4.6549   -2.0963   -0.6040 C   0  0  0  0  0  0  0  0  0  0  0  0
    3.3531   -2.4752   -1.0156 C   0  0  0  0  0  0  0  0  0  0  0  0
    3.1250   -3.0546   -2.2732 C   0  0  0  0  0  0  0  0  0  0  0  0
    4.2123   -3.2957   -3.1222 C   0  0  0  0  0  0  0  0  0  0  0  0
    4.0105   -3.8634   -4.3209 F   0  0  0  0  0  0  0  0  0  0  0  0
    5.5133   -2.9470   -2.7288 C   0  0  0  0  0  0  0  0  0  0  0  0
    5.7387   -2.3398   -1.4808 C   0  0  0  0  0  0  0  0  0  0  0  0
    7.0117   -1.9943   -1.1678 F   0  0  0  0  0  0  0  0  0  0  0  0
    3.8602   -0.8549    1.4294 C   0  0  0  0  0  0  0  0  0  0  0  0
    2.6404    0.3189    4.0872 N   0  0  0  0  0  0  0  0  0  0  0  0
    1.5570   -0.3686    3.3861 C   0  0  0  0  0  0  0  0  0  0  0  0
    0.2721    0.0663    4.0659 C   0  0  0  0  0  0  0  0  0  0  0  0
    0.6924    0.3983    5.4891 C   0  0  2  0  0  0  0  0  0  0  0  0
   -0.2800    1.3360    6.1840 C   0  0  0  0  0  0  0  0  0  0  0  0
   -1.5432    0.8829    6.3421 N   0  0  0  0  0  0  0  0  0  0  0  0
   -2.4237    1.7502    6.8872 C   0  0  0  0  0  0  0  0  0  0  0  0
   -2.0466    3.0426    7.3084 C   0  0  0  0  0  0  0  0  0  0  0  0
   -0.7768    3.4844    7.1831 N   0  0  0  0  0  0  0  0  0  0  0  0
    0.1025    2.6246    6.6239 C   0  0  0  0  0  0  0  0  0  0  0  0
    1.5295    3.1024    6.4844 C   0  0  0  0  0  0  0  0  0  0  0  0
    2.1828    2.4885    5.2482 C   0  0  0  0  0  0  0  0  0  0  0  0
    2.1195    0.9460    5.3107 C   0  0  2  0  0  0  0  0  0  0  0  0
    6.6719   -0.6366    3.0652 H   0  0  0  0  0  0  0  0  0  0  0  0
    2.4990   -2.3243   -0.3807 H   0  0  0  0  0  0  0  0  0  0  0  0
    2.1259   -3.3338   -2.5753 H   0  0  0  0  0  0  0  0  0  0  0  0
    6.3453   -3.1268   -3.3948 H   0  0  0  0  0  0  0  0  0  0  0  0
    2.8549   -0.7510    1.0611 H   0  0  0  0  0  0  0  0  0  0  0  0
    1.4667   -0.0654    2.3458 H   0  0  0  0  0  0  0  0  0  0  0  0
    1.7065   -1.4478    3.4587 H   0  0  0  0  0  0  0  0  0  0  0  0
   -0.0676    0.9704    3.5592 H   0  0  0  0  0  0  0  0  0  0  0  0
   -0.5215   -0.6766    3.9967 H   0  0  0  0  0  0  0  0  0  0  0  0
    0.7413   -0.5286    6.0551 H   0  0  0  0  0  0  0  0  0  0  0  0
   -3.4389    1.4093    6.9899 H   0  0  0  0  0  0  0  0  0  0  0  0
   -2.7736    3.7223    7.7277 H   0  0  0  0  0  0  0  0  0  0  0  0
    1.5680    4.1921    6.4442 H   0  0  0  0  0  0  0  0  0  0  0  0
    2.0699    2.7919    7.3787 H   0  0  0  0  0  0  0  0  0  0  0  0
    1.6746    2.8441    4.3493 H   0  0  0  0  0  0  0  0  0  0  0  0
    3.2137    2.8361    5.1762 H   0  0  0  0  0  0  0  0  0  0  0  0
    2.7164    0.6167    6.1637 H   0  0  0  0  0  0  0  0  0  0  0  0
  1  2  2  0
  2  3  1  0
  2 16  1  0
  3 15  2  0
  3  4  1  0
  4  5  2  0
  4 29  1  0
  5  6  1  0
  6  7  1  0
  6 15  1  0
  7 13  1  0
  7  8  2  0
  8  9  1  0
  8 30  1  0
  9 10  2  0
  9 31  1  0
 10 11  1  0
 10 12  1  0
 12 13  2  0
 12 32  1  0
 13 14  1  0
 15 33  1  0
 16 28  1  0
 16 17  1  0
 17 18  1  0
 17 34  1  0
 17 35  1  0
 18 19  1  0
 18 36  1  0
 18 37  1  0
 19 28  1  0
 19 20  1  0
 19 38  1  1
 20 25  2  0
 20 21  1  0
 21 22  2  0
 22 23  1  0
 22 39  1  0
 23 24  2  0
 23 40  1  0
 24 25  1  0
 25 26  1  0
 26 27  1  0
 26 41  1  0
 26 42  1  0
 27 28  1  0
 27 43  1  0
 27 44  1  0
 28 45  1  1
M  END
>  <i_m_ct_stereo_status>  (142) 
1

>  <s_m_source_file>  (142) 
/var/tmp/pbs.5076255.sched01/tmpxnahmhzs/434e81vi2s.sdf

>  <i_m_source_file_index>  (142) 
14

>  <i_lp_mmshare_version>  (142) 
48012

>  <i_f3d_flags>  (142) 
0

>  <s_epik_input>  (142) 
bjFbY0hdW2NIXW5jKGMxW0NAQEhdMjMpW0NIMl1bQ0gyXVtDQEBIXTNOKFtDSDJdW0NIMl0yKUMoPU8pYzRbY0hdbm4oW2NIXTQpLWM1W2NIXVtjSF1jKEYpW2NIXWM1Rg==

>  <s_epik_cmdline>  (142) 
J2VwaWtfcHl0aG9uJywgJy1waHQnLCAnMi4wJywgJy1waCcsICc3LjAnLCAnLXRuJywgJzgnLCAnLW1hJywgJzIwMCcsICctaW1hZScsICc8aW5maWxlLm1hZT4nLCAnLW9tYWUnLCAnPG91dGZpbGUubWFlPic=

>  <r_lp_tautomer_probability>  (142) 
1

>  <r_epik_Ionization_Penalty>  (142) 
3.33259e-06

>  <r_epik_Ionization_Penalty_Charging>  (142) 
0

>  <r_epik_Ionization_Penalty_Neutral>  (142) 
3.33259e-06

>  <r_epik_State_Penalty>  (142) 
-0

>  <r_epik_Charging_Adjusted_Penalty>  (142) 
0

>  <i_epik_Tot_Q>  (142) 
0

>  <i_epik_Tot_abs_Q>  (142) 
0

>  <s_lp_Force_Field>  (142) 
OPLS3e

>  <r_lp_Energy>  (142) 
42.0881

>  <b_lp_Chiralities_Consistent>  (142) 
1

>  <s_lp_Variant>  (142) 
45:0-1

>  <s_i_glide_gridfile>  (142) 
pfpi4k_grid

>  <i_i_glide_lignum>  (142) 
14

>  <i_i_glide_rotatable_bonds>  (142) 
3

>  <r_i_docking_score>  (142) 
-3.35944

>  <r_i_glide_ligand_efficiency>  (142) 
-0.11998

>  <r_i_glide_ligand_efficiency_sa>  (142) 
-0.36433

>  <r_i_glide_ligand_efficiency_ln>  (142) 
-0.775457

>  <r_i_glide_gscore>  (142) 
-3.35944

>  <r_i_glide_lipo>  (142) 
-0.467944

>  <r_i_glide_hbond>  (142) 
-0.0326426

>  <r_i_glide_metal>  (142) 
-0

>  <r_i_glide_rewards>  (142) 
-0.848439

>  <r_i_glide_evdw>  (142) 
-27.6688

>  <r_i_glide_ecoul>  (142) 
-6.00964

>  <r_i_glide_erotb>  (142) 
0.400354

>  <r_i_glide_esite>  (142) 
-0.125882

>  <r_i_glide_emodel>  (142) 
-40.5799

>  <r_i_glide_energy>  (142) 
-33.6784

>  <r_i_glide_einternal>  (142) 
0.441482

>  <r_i_glide_intrahb_reward>  (142) 
-0

>  <i_i_glide_confnum>  (142) 
3

>  <i_i_glide_posenum>  (142) 
1

>  <r_i_glide_eff_state_penalty>  (142) 
0

>  <ligand_id>  (142) 
45

>  <original_smiles>  (142) 
O=C(c1cnn(-c2ccc(F)cc2F)c1)N1CCC2c3nccnc3CCC21

>  <smiles>  (142) 
[H]c1nc2c(nc1[H])C1([H])C([H])([H])C([H])([H])N(C(=O)c3c([H])nn(-c4c([H])c([H])c(F)c([H])c4F)c3[H])C1([H])C([H])([H])C2([H])[H]

$$$$
45:0:1
     RDKit          3D

 45 49  0  0  1  0  0  0  0  0999 V2000
    2.5440    0.9534    1.4342 O   0  0  0  0  0  0  0  0  0  0  0  0
    2.3851   -0.0754    2.0804 C   0  0  0  0  0  0  0  0  0  0  0  0
    3.1986   -1.2702    1.6625 C   0  0  0  0  0  0  0  0  0  0  0  0
    4.3252   -1.1987    0.8040 C   0  0  0  0  0  0  0  0  0  0  0  0
    4.8137   -2.4036    0.5515 N   0  0  0  0  0  0  0  0  0  0  0  0
    4.0155   -3.2693    1.2272 N   0  0  0  0  0  0  0  0  0  0  0  0
    4.2387   -4.6681    1.1847 C   0  0  0  0  0  0  0  0  0  0  0  0
    3.1361   -5.5485    1.3121 C   0  0  0  0  0  0  0  0  0  0  0  0
    3.3237   -6.9437    1.2808 C   0  0  0  0  0  0  0  0  0  0  0  0
    4.6162   -7.4716    1.1209 C   0  0  0  0  0  0  0  0  0  0  0  0
    4.8019   -8.8080    1.0702 F   0  0  0  0  0  0  0  0  0  0  0  0
    5.7203   -6.6066    1.0123 C   0  0  0  0  0  0  0  0  0  0  0  0
    5.5392   -5.2109    1.0414 C   0  0  0  0  0  0  0  0  0  0  0  0
    6.6337   -4.4168    0.9513 F   0  0  0  0  0  0  0  0  0  0  0  0
    3.0087   -2.6022    1.8988 C   0  0  0  0  0  0  0  0  0  0  0  0
    1.6067   -0.0941    3.1884 N   0  0  0  0  0  0  0  0  0  0  0  0
    1.2616   -1.2545    4.0061 C   0  0  0  0  0  0  0  0  0  0  0  0
    0.2370   -0.7707    5.0193 C   0  0  0  0  0  0  0  0  0  0  0  0
    0.5606    0.7020    5.2032 C   0  0  2  0  0  0  0  0  0  0  0  0
   -0.6232    1.4904    5.7438 C   0  0  0  0  0  0  0  0  0  0  0  0
   -1.0995    1.1128    6.9535 N   0  0  0  0  0  0  0  0  0  0  0  0
   -2.1584    1.8064    7.4262 C   0  0  0  0  0  0  0  0  0  0  0  0
   -2.7477    2.8582    6.6939 C   0  0  0  0  0  0  0  0  0  0  0  0
   -2.2719    3.2454    5.4891 N   0  0  0  0  0  0  0  0  0  0  0  0
   -1.2040    2.5607    5.0221 C   0  0  0  0  0  0  0  0  0  0  0  0
   -0.6534    2.9806    3.6770 C   0  0  0  0  0  0  0  0  0  0  0  0
   -0.0447    1.7835    2.9453 C   0  0  0  0  0  0  0  0  0  0  0  0
    1.0559    1.1246    3.8050 C   0  0  2  0  0  0  0  0  0  0  0  0
    4.7903   -0.3352    0.3508 H   0  0  0  0  0  0  0  0  0  0  0  0
    2.1374   -5.1647    1.4296 H   0  0  0  0  0  0  0  0  0  0  0  0
    2.4768   -7.6085    1.3696 H   0  0  0  0  0  0  0  0  0  0  0  0
    6.7151   -7.0089    0.8933 H   0  0  0  0  0  0  0  0  0  0  0  0
    2.2801   -3.1520    2.4692 H   0  0  0  0  0  0  0  0  0  0  0  0
    0.7997   -2.0402    3.4116 H   0  0  0  0  0  0  0  0  0  0  0  0
    2.1561   -1.6404    4.5026 H   0  0  0  0  0  0  0  0  0  0  0  0
   -0.7516   -0.8759    4.5681 H   0  0  0  0  0  0  0  0  0  0  0  0
    0.2525   -1.3395    5.9490 H   0  0  0  0  0  0  0  0  0  0  0  0
    1.3894    0.7935    5.9063 H   0  0  0  0  0  0  0  0  0  0  0  0
   -2.5542    1.5084    8.3861 H   0  0  0  0  0  0  0  0  0  0  0  0
   -3.6283    3.3498    7.0671 H   0  0  0  0  0  0  0  0  0  0  0  0
   -1.4275    3.4490    3.0655 H   0  0  0  0  0  0  0  0  0  0  0  0
    0.1159    3.7357    3.8445 H   0  0  0  0  0  0  0  0  0  0  0  0
   -0.8262    1.0569    2.7155 H   0  0  0  0  0  0  0  0  0  0  0  0
    0.3487    2.1235    1.9870 H   0  0  0  0  0  0  0  0  0  0  0  0
    1.8605    1.8508    3.9324 H   0  0  0  0  0  0  0  0  0  0  0  0
  1  2  2  0
  2  3  1  0
  2 16  1  0
  3 15  2  0
  3  4  1  0
  4  5  2  0
  4 29  1  0
  5  6  1  0
  6  7  1  0
  6 15  1  0
  7 13  1  0
  7  8  2  0
  8  9  1  0
  8 30  1  0
  9 10  2  0
  9 31  1  0
 10 11  1  0
 10 12  1  0
 12 13  2  0
 12 32  1  0
 13 14  1  0
 15 33  1  0
 16 28  1  0
 16 17  1  0
 17 18  1  0
 17 34  1  0
 17 35  1  0
 18 19  1  0
 18 36  1  0
 18 37  1  0
 19 28  1  0
 19 20  1  0
 19 38  1  1
 20 25  2  0
 20 21  1  0
 21 22  2  0
 22 23  1  0
 22 39  1  0
 23 24  2  0
 23 40  1  0
 24 25  1  0
 25 26  1  0
 26 27  1  0
 26 41  1  0
 26 42  1  0
 27 28  1  0
 27 43  1  0
 27 44  1  0
 28 45  1  1
M  END
>  <i_m_ct_stereo_status>  (143) 
1

>  <s_m_source_file>  (143) 
/var/tmp/pbs.5076255.sched01/tmpxnahmhzs/434e81vi2s.sdf

>  <i_m_source_file_index>  (143) 
14

>  <i_lp_mmshare_version>  (143) 
48012

>  <i_f3d_flags>  (143) 
0

>  <s_epik_input>  (143) 
bjFbY0hdW2NIXW5jKGMxW0NAQEhdMjMpW0NIMl1bQ0gyXVtDQEBIXTNOKFtDSDJdW0NIMl0yKUMoPU8pYzRbY0hdbm4oW2NIXTQpLWM1W2NIXVtjSF1jKEYpW2NIXWM1Rg==

>  <s_epik_cmdline>  (143) 
J2VwaWtfcHl0aG9uJywgJy1waHQnLCAnMi4wJywgJy1waCcsICc3LjAnLCAnLXRuJywgJzgnLCAnLW1hJywgJzIwMCcsICctaW1hZScsICc8aW5maWxlLm1hZT4nLCAnLW9tYWUnLCAnPG91dGZpbGUubWFlPic=

>  <r_lp_tautomer_probability>  (143) 
1

>  <r_epik_Ionization_Penalty>  (143) 
3.33259e-06

>  <r_epik_Ionization_Penalty_Charging>  (143) 
0

>  <r_epik_Ionization_Penalty_Neutral>  (143) 
3.33259e-06

>  <r_epik_State_Penalty>  (143) 
-0

>  <r_epik_Charging_Adjusted_Penalty>  (143) 
0

>  <i_epik_Tot_Q>  (143) 
0

>  <i_epik_Tot_abs_Q>  (143) 
0

>  <s_lp_Force_Field>  (143) 
OPLS3e

>  <r_lp_Energy>  (143) 
42.0881

>  <b_lp_Chiralities_Consistent>  (143) 
1

>  <s_lp_Variant>  (143) 
45:0-1

>  <s_i_glide_gridfile>  (143) 
pfpi4k_grid

>  <i_i_glide_lignum>  (143) 
14

>  <i_i_glide_rotatable_bonds>  (143) 
3

>  <r_i_docking_score>  (143) 
-3.0146

>  <r_i_glide_ligand_efficiency>  (143) 
-0.107664

>  <r_i_glide_ligand_efficiency_sa>  (143) 
-0.326932

>  <r_i_glide_ligand_efficiency_ln>  (143) 
-0.695858

>  <r_i_glide_gscore>  (143) 
-3.0146

>  <r_i_glide_lipo>  (143) 
-0.506739

>  <r_i_glide_hbond>  (143) 
0

>  <r_i_glide_metal>  (143) 
-0

>  <r_i_glide_rewards>  (143) 
-0.968146

>  <r_i_glide_evdw>  (143) 
-28.591

>  <r_i_glide_ecoul>  (143) 
-2.91708

>  <r_i_glide_erotb>  (143) 
0.400354

>  <r_i_glide_esite>  (143) 
-0.0729596

>  <r_i_glide_emodel>  (143) 
-37.6456

>  <r_i_glide_energy>  (143) 
-31.508

>  <r_i_glide_einternal>  (143) 
0.709593

>  <r_i_glide_intrahb_reward>  (143) 
-0

>  <i_i_glide_confnum>  (143) 
3

>  <i_i_glide_posenum>  (143) 
35

>  <r_i_glide_eff_state_penalty>  (143) 
0

>  <ligand_id>  (143) 
45

>  <original_smiles>  (143) 
O=C(c1cnn(-c2ccc(F)cc2F)c1)N1CCC2c3nccnc3CCC21

>  <smiles>  (143) 
[H]c1nc2c(nc1[H])C1([H])C([H])([H])C([H])([H])N(C(=O)c3c([H])nn(-c4c([H])c([H])c(F)c([H])c4F)c3[H])C1([H])C([H])([H])C2([H])[H]

$$$$
45:0:2
     RDKit          3D

 45 49  0  0  1  0  0  0  0  0999 V2000
    2.8235    0.1133    1.6713 O   0  0  0  0  0  0  0  0  0  0  0  0
    2.2805   -0.8611    2.1890 C   0  0  0  0  0  0  0  0  0  0  0  0
    2.5980   -2.2214    1.6179 C   0  0  0  0  0  0  0  0  0  0  0  0
    3.0880   -2.4411    0.3030 C   0  0  0  0  0  0  0  0  0  0  0  0
    3.3386   -3.7197    0.0869 N   0  0  0  0  0  0  0  0  0  0  0  0
    3.0313   -4.3416    1.2490 N   0  0  0  0  0  0  0  0  0  0  0  0
    3.1897   -5.7405    1.3568 C   0  0  0  0  0  0  0  0  0  0  0  0
    4.4241   -6.3316    1.0121 C   0  0  0  0  0  0  0  0  0  0  0  0
    4.5979   -7.7241    1.1381 C   0  0  0  0  0  0  0  0  0  0  0  0
    3.5311   -8.5194    1.6018 C   0  0  0  0  0  0  0  0  0  0  0  0
    3.6982   -9.8515    1.7322 F   0  0  0  0  0  0  0  0  0  0  0  0
    2.2919   -7.9365    1.9301 C   0  0  0  0  0  0  0  0  0  0  0  0
    2.1193   -6.5426    1.8094 C   0  0  0  0  0  0  0  0  0  0  0  0
    0.9250   -5.9822    2.1196 F   0  0  0  0  0  0  0  0  0  0  0  0
    2.6158   -3.4500    2.2185 C   0  0  0  0  0  0  0  0  0  0  0  0
    1.3895   -0.7191    3.2033 N   0  0  0  0  0  0  0  0  0  0  0  0
    0.7291   -1.7835    3.9548 C   0  0  0  0  0  0  0  0  0  0  0  0
   -0.2623   -1.0989    4.8864 C   0  0  0  0  0  0  0  0  0  0  0  0
    0.3486    0.2737    5.1320 C   0  0  2  0  0  0  0  0  0  0  0  0
   -0.6868    1.2927    5.5846 C   0  0  0  0  0  0  0  0  0  0  0  0
   -1.3261    1.0303    6.7486 N   0  0  0  0  0  0  0  0  0  0  0  0
   -2.2578    1.9296    7.1362 C   0  0  0  0  0  0  0  0  0  0  0  0
   -2.5645    3.0682    6.3640 C   0  0  0  0  0  0  0  0  0  0  0  0
   -1.9164    3.3449    5.2118 N   0  0  0  0  0  0  0  0  0  0  0  0
   -0.9731    2.4555    4.8293 C   0  0  0  0  0  0  0  0  0  0  0  0
   -0.2351    2.7517    3.5436 C   0  0  0  0  0  0  0  0  0  0  0  0
    0.1827    1.4519    2.8505 C   0  0  0  0  0  0  0  0  0  0  0  0
    1.0486    0.5850    3.7948 C   0  0  2  0  0  0  0  0  0  0  0  0
    3.2538   -1.7301   -0.4936 H   0  0  0  0  0  0  0  0  0  0  0  0
    5.2386   -5.7134    0.6687 H   0  0  0  0  0  0  0  0  0  0  0  0
    5.5403   -8.1817    0.8839 H   0  0  0  0  0  0  0  0  0  0  0  0
    1.4817   -8.5663    2.2686 H   0  0  0  0  0  0  0  0  0  0  0  0
    2.3700   -3.7797    3.2122 H   0  0  0  0  0  0  0  0  0  0  0  0
    0.2288   -2.5019    3.3033 H   0  0  0  0  0  0  0  0  0  0  0  0
    1.4721   -2.3089    4.5550 H   0  0  0  0  0  0  0  0  0  0  0  0
   -1.2131   -0.9898    4.3639 H   0  0  0  0  0  0  0  0  0  0  0  0
   -0.4334   -1.6513    5.8098 H   0  0  0  0  0  0  0  0  0  0  0  0
    1.1127    0.1966    5.9062 H   0  0  0  0  0  0  0  0  0  0  0  0
   -2.7837    1.7316    8.0582 H   0  0  0  0  0  0  0  0  0  0  0  0
   -3.3470    3.7471    6.6644 H   0  0  0  0  0  0  0  0  0  0  0  0
   -0.8421    3.3669    2.8756 H   0  0  0  0  0  0  0  0  0  0  0  0
    0.6515    3.3383    3.7893 H   0  0  0  0  0  0  0  0  0  0  0  0
   -0.7111    0.9046    2.5455 H   0  0  0  0  0  0  0  0  0  0  0  0
    0.7190    1.6935    1.9325 H   0  0  0  0  0  0  0  0  0  0  0  0
    1.9658    1.1350    4.0087 H   0  0  0  0  0  0  0  0  0  0  0  0
  1  2  2  0
  2  3  1  0
  2 16  1  0
  3 15  2  0
  3  4  1  0
  4  5  2  0
  4 29  1  0
  5  6  1  0
  6  7  1  0
  6 15  1  0
  7 13  1  0
  7  8  2  0
  8  9  1  0
  8 30  1  0
  9 10  2  0
  9 31  1  0
 10 11  1  0
 10 12  1  0
 12 13  2  0
 12 32  1  0
 13 14  1  0
 15 33  1  0
 16 28  1  0
 16 17  1  0
 17 18  1  0
 17 34  1  0
 17 35  1  0
 18 19  1  0
 18 36  1  0
 18 37  1  0
 19 28  1  0
 19 20  1  0
 19 38  1  1
 20 25  2  0
 20 21  1  0
 21 22  2  0
 22 23  1  0
 22 39  1  0
 23 24  2  0
 23 40  1  0
 24 25  1  0
 25 26  1  0
 26 27  1  0
 26 41  1  0
 26 42  1  0
 27 28  1  0
 27 43  1  0
 27 44  1  0
 28 45  1  1
M  END
>  <i_m_ct_stereo_status>  (144) 
1

>  <s_m_source_file>  (144) 
/var/tmp/pbs.5076255.sched01/tmpxnahmhzs/434e81vi2s.sdf

>  <i_m_source_file_index>  (144) 
14

>  <i_lp_mmshare_version>  (144) 
48012

>  <i_f3d_flags>  (144) 
0

>  <s_epik_input>  (144) 
bjFbY0hdW2NIXW5jKGMxW0NAQEhdMjMpW0NIMl1bQ0gyXVtDQEBIXTNOKFtDSDJdW0NIMl0yKUMoPU8pYzRbY0hdbm4oW2NIXTQpLWM1W2NIXVtjSF1jKEYpW2NIXWM1Rg==

>  <s_epik_cmdline>  (144) 
J2VwaWtfcHl0aG9uJywgJy1waHQnLCAnMi4wJywgJy1waCcsICc3LjAnLCAnLXRuJywgJzgnLCAnLW1hJywgJzIwMCcsICctaW1hZScsICc8aW5maWxlLm1hZT4nLCAnLW9tYWUnLCAnPG91dGZpbGUubWFlPic=

>  <r_lp_tautomer_probability>  (144) 
1

>  <r_epik_Ionization_Penalty>  (144) 
3.33259e-06

>  <r_epik_Ionization_Penalty_Charging>  (144) 
0

>  <r_epik_Ionization_Penalty_Neutral>  (144) 
3.33259e-06

>  <r_epik_State_Penalty>  (144) 
-0

>  <r_epik_Charging_Adjusted_Penalty>  (144) 
0

>  <i_epik_Tot_Q>  (144) 
0

>  <i_epik_Tot_abs_Q>  (144) 
0

>  <s_lp_Force_Field>  (144) 
OPLS3e

>  <r_lp_Energy>  (144) 
42.0881

>  <b_lp_Chiralities_Consistent>  (144) 
1

>  <s_lp_Variant>  (144) 
45:0-1

>  <s_i_glide_gridfile>  (144) 
pfpi4k_grid

>  <i_i_glide_lignum>  (144) 
14

>  <i_i_glide_rotatable_bonds>  (144) 
3

>  <r_i_docking_score>  (144) 
-2.85734

>  <r_i_glide_ligand_efficiency>  (144) 
-0.102048

>  <r_i_glide_ligand_efficiency_sa>  (144) 
-0.309878

>  <r_i_glide_ligand_efficiency_ln>  (144) 
-0.659559

>  <r_i_glide_gscore>  (144) 
-2.85734

>  <r_i_glide_lipo>  (144) 
-0.318186

>  <r_i_glide_hbond>  (144) 
-0.0393715

>  <r_i_glide_metal>  (144) 
-0

>  <r_i_glide_rewards>  (144) 
-0.808782

>  <r_i_glide_evdw>  (144) 
-30.1311

>  <r_i_glide_ecoul>  (144) 
-2.46036

>  <r_i_glide_erotb>  (144) 
0.400354

>  <r_i_glide_esite>  (144) 
-0.21575

>  <r_i_glide_emodel>  (144) 
-38.1638

>  <r_i_glide_energy>  (144) 
-32.5915

>  <r_i_glide_einternal>  (144) 
1.1077

>  <r_i_glide_intrahb_reward>  (144) 
-0

>  <i_i_glide_confnum>  (144) 
2

>  <i_i_glide_posenum>  (144) 
14

>  <r_i_glide_eff_state_penalty>  (144) 
0

>  <ligand_id>  (144) 
45

>  <original_smiles>  (144) 
O=C(c1cnn(-c2ccc(F)cc2F)c1)N1CCC2c3nccnc3CCC21

>  <smiles>  (144) 
[H]c1nc2c(nc1[H])C1([H])C([H])([H])C([H])([H])N(C(=O)c3c([H])nn(-c4c([H])c([H])c(F)c([H])c4F)c3[H])C1([H])C([H])([H])C2([H])[H]

$$$$
47:0:0
     RDKit          3D

 70 78  0  0  1  0  0  0  0  0999 V2000
    5.5618   -5.1717    1.1715 C   0  0  0  0  0  0  0  0  0  0  0  0
    4.3549   -4.3031    0.6787 C   0  0  1  0  0  0  0  0  0  0  0  0
    3.1705   -5.3284    0.8595 C   0  0  0  0  0  0  0  0  0  0  0  0
    2.1585   -4.6253    1.6835 C   0  0  1  0  0  0  0  0  0  0  0  0
    1.4491   -4.9683    2.8405 O   0  0  0  0  0  0  0  0  0  0  0  0
    2.7204   -4.3223    3.0744 C   0  0  1  0  0  0  0  0  0  0  0  0
    3.5770   -5.2020    3.9480 C   0  0  0  0  0  0  0  0  0  0  0  0
    4.7722   -4.3818    4.3478 C   0  0  0  0  0  0  0  0  0  0  0  0
    4.2484   -2.9148    4.2621 C   0  0  2  0  0  0  0  0  0  0  0  0
    5.4350   -1.9644    4.1875 C   0  0  0  0  0  0  0  0  0  0  0  0
    3.5639   -2.6418    5.6441 C   0  0  0  0  0  0  0  0  0  0  0  0
    4.0582   -3.0640    6.7043 O   0  0  0  0  0  0  0  0  0  0  0  0
    2.3821   -1.6978    5.7144 C   0  0  0  0  0  0  0  0  0  0  0  0
    1.4963   -1.9109    4.5059 C   0  0  0  0  0  0  0  0  0  0  0  0
    2.2380   -1.6805    3.1754 C   0  0  0  0  0  0  0  0  0  0  0  0
    1.0979   -1.6644    2.2027 C   0  0  0  0  0  0  0  0  0  0  0  0
    2.7785   -0.2228    3.1619 C   0  0  0  0  0  0  0  0  0  0  0  0
    3.3065   -2.8850    2.9603 C   0  0  2  0  0  0  0  0  0  0  0  0
    4.2033   -2.9276    1.5535 C   0  0  2  0  0  0  0  0  0  0  0  0
    4.3202   -1.5997    0.7248 C   0  0  0  0  0  0  0  0  0  0  0  0
    5.2460   -1.6026   -0.5270 C   0  0  2  0  0  0  0  0  0  0  0  0
    4.5803   -1.0852   -1.6979 O   0  0  0  0  0  0  0  0  0  0  0  0
    3.9205   -2.0441   -2.4055 C   0  0  0  0  0  0  0  0  0  0  0  0
    4.2660   -2.4748   -3.6608 C   0  0  0  0  0  0  0  0  0  0  0  0
    4.7153   -3.8750   -4.1318 C   0  0  0  0  0  0  0  0  0  0  0  0
    3.5336   -3.7844   -3.2532 C   0  0  1  0  0  0  0  0  0  0  0  0
    3.5341   -3.3570   -1.7942 C   0  0  2  0  0  0  0  0  0  0  0  0
    2.1009   -3.2996   -1.3370 C   0  0  0  0  0  0  0  0  0  0  0  0
    4.6772   -3.9374   -0.8478 C   0  0  1  0  0  0  0  0  0  0  0  0
    5.8680   -2.9582   -0.8457 C   0  0  0  0  0  0  0  0  0  0  0  0
    6.9745   -2.9808   -1.9009 C   0  0  0  0  0  0  0  0  0  0  0  0
    7.3046   -3.3267   -0.4780 C   0  0  0  0  0  0  0  0  0  0  0  0
    5.9300   -5.8048    0.3600 H   0  0  0  0  0  0  0  0  0  0  0  0
    5.3166   -5.8379    1.9863 H   0  0  0  0  0  0  0  0  0  0  0  0
    6.4120   -4.5754    1.5171 H   0  0  0  0  0  0  0  0  0  0  0  0
    2.7516   -5.6322   -0.0942 H   0  0  0  0  0  0  0  0  0  0  0  0
    3.4261   -6.2949    1.3181 H   0  0  0  0  0  0  0  0  0  0  0  0
    1.6439   -3.8651    1.1271 H   0  0  0  0  0  0  0  0  0  0  0  0
    2.9778   -5.4353    4.8349 H   0  0  0  0  0  0  0  0  0  0  0  0
    3.8522   -6.1530    3.4678 H   0  0  0  0  0  0  0  0  0  0  0  0
    5.1653   -4.6944    5.3136 H   0  0  0  0  0  0  0  0  0  0  0  0
    5.6200   -4.5596    3.6925 H   0  0  0  0  0  0  0  0  0  0  0  0
    6.2140   -2.4735    3.7301 H   0  0  0  0  0  0  0  0  0  0  0  0
    5.8684   -1.8319    5.1579 H   0  0  0  0  0  0  0  0  0  0  0  0
    5.2921   -1.0079    3.6900 H   0  0  0  0  0  0  0  0  0  0  0  0
    1.8369   -1.9015    6.6377 H   0  0  0  0  0  0  0  0  0  0  0  0
    2.7685   -0.6758    5.7314 H   0  0  0  0  0  0  0  0  0  0  0  0
    1.0938   -2.9267    4.5545 H   0  0  0  0  0  0  0  0  0  0  0  0
    0.6321   -1.2569    4.5882 H   0  0  0  0  0  0  0  0  0  0  0  0
    1.4648   -1.6227    1.1958 H   0  0  0  0  0  0  0  0  0  0  0  0
    0.4782   -0.7736    2.3474 H   0  0  0  0  0  0  0  0  0  0  0  0
    0.5479   -2.5652    2.4556 H   0  0  0  0  0  0  0  0  0  0  0  0
    2.9654    0.1465    2.1520 H   0  0  0  0  0  0  0  0  0  0  0  0
    3.6408   -0.0465    3.7958 H   0  0  0  0  0  0  0  0  0  0  0  0
    1.9973    0.4219    3.5689 H   0  0  0  0  0  0  0  0  0  0  0  0
    5.2311   -2.8854    1.8613 H   0  0  0  0  0  0  0  0  0  0  0  0
    3.3604   -1.2043    0.4302 H   0  0  0  0  0  0  0  0  0  0  0  0
    4.7425   -0.8343    1.3736 H   0  0  0  0  0  0  0  0  0  0  0  0
    6.0805   -0.9234   -0.3577 H   0  0  0  0  0  0  0  0  0  0  0  0
    4.4688   -4.1932   -5.1308 H   0  0  0  0  0  0  0  0  0  0  0  0
    5.5698   -4.4136   -3.7015 H   0  0  0  0  0  0  0  0  0  0  0  0
    2.5432   -3.9913   -3.6932 H   0  0  0  0  0  0  0  0  0  0  0  0
    1.5982   -4.2613   -1.2117 H   0  0  0  0  0  0  0  0  0  0  0  0
    1.4812   -2.7345   -2.0118 H   0  0  0  0  0  0  0  0  0  0  0  0
    2.0587   -2.7399   -0.4260 H   0  0  0  0  0  0  0  0  0  0  0  0
    4.9978   -4.8776   -1.3095 H   0  0  0  0  0  0  0  0  0  0  0  0
    7.0723   -3.8135   -2.5878 H   0  0  0  0  0  0  0  0  0  0  0  0
    7.3832   -2.0363   -2.2556 H   0  0  0  0  0  0  0  0  0  0  0  0
    7.8489   -2.5982    0.1242 H   0  0  0  0  0  0  0  0  0  0  0  0
    7.5697   -4.3829   -0.3252 H   0  0  0  0  0  0  0  0  0  0  0  0
  2  1  1  1
  1 33  1  0
  1 34  1  0
  1 35  1  0
  2 19  1  0
  2 29  1  0
  2  3  1  0
  3  4  1  0
  3 36  1  0
  3 37  1  0
  4  6  1  0
  4  5  1  0
  4 38  1  6
  6  5  1  1
  6 18  1  0
  6  7  1  0
  7  8  1  0
  7 39  1  0
  7 40  1  0
  8  9  1  0
  8 41  1  0
  8 42  1  0
  9 18  1  0
  9 10  1  6
  9 11  1  0
 10 43  1  0
 10 44  1  0
 10 45  1  0
 11 12  2  0
 11 13  1  0
 13 14  1  0
 13 46  1  0
 13 47  1  0
 14 15  1  0
 14 48  1  0
 14 49  1  0
 15 16  1  0
 15 17  1  0
 18 15  1  6
 16 50  1  0
 16 51  1  0
 16 52  1  0
 17 53  1  0
 17 54  1  0
 17 55  1  0
 18 19  1  0
 19 20  1  0
 19 56  1  1
 20 21  1  0
 20 57  1  0
 20 58  1  0
 21 30  1  0
 21 22  1  0
 21 59  1  1
 22 23  1  0
 23 27  1  0
 23 24  2  0
 24 26  1  0
 24 25  1  0
 25 26  1  0
 25 60  1  0
 25 61  1  0
 26 27  1  0
 26 62  1  6
 27 28  1  1
 27 29  1  0
 28 63  1  0
 28 64  1  0
 28 65  1  0
 29 30  1  0
 29 66  1  6
 30 32  1  0
 30 31  1  0
 31 32  1  0
 31 67  1  0
 31 68  1  0
 32 69  1  0
 32 70  1  0
M  END
>  <i_m_ct_stereo_status>  (145) 
1

>  <s_m_source_file>  (145) 
/var/tmp/pbs.5076255.sched01/tmpxnahmhzs/434e81vi2s.sdf

>  <i_m_source_file_index>  (145) 
16

>  <i_lp_mmshare_version>  (145) 
48012

>  <i_f3d_flags>  (145) 
0

>  <s_epik_input>  (145) 
W0NIM11DMShbQ0gzXSlbQ0gyXVtDSDJdQyg9TylbQ0BAXShbQ0gzXSkoW0NIMl1bQ0gyXTIpW0NAXTEoW0NAXTIzNClbQ0BIXTVbQ0BAXShbQ0gzXSkoW0NIMl1bQ0BIXTNPNClbQ0BASF02QzcoW0NIMl1bQ0gyXTcpW0NASF0oW0NIMl01KU9DOD1DOVtDSF0oW0NIMl05KVtDQEBdNjhbQ0gzXQ==

>  <s_epik_cmdline>  (145) 
J2VwaWtfcHl0aG9uJywgJy1waHQnLCAnMi4wJywgJy1waCcsICc3LjAnLCAnLXRuJywgJzgnLCAnLW1hJywgJzIwMCcsICctaW1hZScsICc8aW5maWxlLm1hZT4nLCAnLW9tYWUnLCAnPG91dGZpbGUubWFlPic=

>  <r_lp_tautomer_probability>  (145) 
1

>  <r_epik_Ionization_Penalty>  (145) 
3.71856e-11

>  <r_epik_Ionization_Penalty_Charging>  (145) 
0

>  <r_epik_Ionization_Penalty_Neutral>  (145) 
3.71856e-11

>  <r_epik_State_Penalty>  (145) 
-0

>  <r_epik_Charging_Adjusted_Penalty>  (145) 
0

>  <i_epik_Tot_Q>  (145) 
0

>  <i_epik_Tot_abs_Q>  (145) 
0

>  <s_lp_Force_Field>  (145) 
OPLS3e

>  <r_lp_Energy>  (145) 
179.8

>  <b_lp_Chiralities_Consistent>  (145) 
1

>  <s_lp_Variant>  (145) 
47:0-1

>  <s_i_glide_gridfile>  (145) 
pfpi4k_grid

>  <i_i_glide_lignum>  (145) 
16

>  <i_i_glide_rotatable_bonds>  (145) 
0

>  <r_i_docking_score>  (145) 
-1.8649

>  <r_i_glide_ligand_efficiency>  (145) 
-0.0582782

>  <r_i_glide_ligand_efficiency_sa>  (145) 
-0.185022

>  <r_i_glide_ligand_efficiency_ln>  (145) 
-0.417603

>  <r_i_glide_gscore>  (145) 
-1.8649

>  <r_i_glide_lipo>  (145) 
-0.547689

>  <r_i_glide_hbond>  (145) 
0

>  <r_i_glide_metal>  (145) 
-0

>  <r_i_glide_rewards>  (145) 
-0.445839

>  <r_i_glide_evdw>  (145) 
-16.0213

>  <r_i_glide_ecoul>  (145) 
-0.468726

>  <r_i_glide_erotb>  (145) 
0

>  <r_i_glide_esite>  (145) 
0

>  <r_i_glide_emodel>  (145) 
-14.6042

>  <r_i_glide_energy>  (145) 
-16.4901

>  <r_i_glide_einternal>  (145) 
0

>  <r_i_glide_intrahb_reward>  (145) 
-0

>  <i_i_glide_confnum>  (145) 
2

>  <i_i_glide_posenum>  (145) 
11

>  <r_i_glide_eff_state_penalty>  (145) 
0

>  <ligand_id>  (145) 
47

>  <original_smiles>  (145) 
CC12CC3OC34CCC3(C)C(=O)CCC(C)(C)C34C1CC1OC3=C4CC4C3(C)C2C12CC2

>  <smiles>  (145) 
[H]C([H])([H])C12C(=C3C([H])([H])C31[H])OC1([H])C([H])([H])C3([H])C(C([H])([H])[H])(C([H])([H])C4([H])OC45C([H])([H])C([H])([H])C4(C([H])([H])[H])C(=O)C([H])([H])C([H])([H])C(C([H])([H])[H])(C([H])([H])[H])C354)C2([H])C12C([H])([H])C2([H])[H]

$$$$
47:0:1
     RDKit          3D

 70 78  0  0  1  0  0  0  0  0999 V2000
    5.8361   -4.2130    1.4408 C   0  0  0  0  0  0  0  0  0  0  0  0
    4.5698   -3.5128    0.8612 C   0  0  1  0  0  0  0  0  0  0  0  0
    3.4425   -4.5142    1.3209 C   0  0  0  0  0  0  0  0  0  0  0  0
    2.4293   -3.6901    2.0360 C   0  0  1  0  0  0  0  0  0  0  0  0
    1.8307   -3.7857    3.2937 O   0  0  0  0  0  0  0  0  0  0  0  0
    3.0898   -3.0795    3.2937 C   0  0  1  0  0  0  0  0  0  0  0  0
    4.0302   -3.7223    4.2782 C   0  0  0  0  0  0  0  0  0  0  0  0
    5.2134   -2.7838    4.4055 C   0  0  0  0  0  0  0  0  0  0  0  0
    4.6425   -1.3821    4.0449 C   0  0  2  0  0  0  0  0  0  0  0  0
    5.8127   -0.4313    3.6796 C   0  0  0  0  0  0  0  0  0  0  0  0
    4.0297   -0.8468    5.3739 C   0  0  0  0  0  0  0  0  0  0  0  0
    4.5946   -1.0399    6.4607 O   0  0  0  0  0  0  0  0  0  0  0  0
    2.7797    0.0018    5.3361 C   0  0  0  0  0  0  0  0  0  0  0  0
    1.8083   -0.5072    4.2852 C   0  0  0  0  0  0  0  0  0  0  0  0
    2.4462   -0.5525    2.8864 C   0  0  0  0  0  0  0  0  0  0  0  0
    1.2454   -0.7916    1.9890 C   0  0  0  0  0  0  0  0  0  0  0  0
    2.8968    0.8893    2.5292 C   0  0  0  0  0  0  0  0  0  0  0  0
    3.5978   -1.6928    2.8548 C   0  0  2  0  0  0  0  0  0  0  0  0
    4.4187   -1.9931    1.4438 C   0  0  2  0  0  0  0  0  0  0  0  0
    4.3901   -0.8779    0.3451 C   0  0  0  0  0  0  0  0  0  0  0  0
    5.2477   -1.0984   -0.9386 C   0  0  2  0  0  0  0  0  0  0  0  0
    4.4927   -0.8949   -2.1370 O   0  0  0  0  0  0  0  0  0  0  0  0
    3.8712   -2.0067   -2.6049 C   0  0  0  0  0  0  0  0  0  0  0  0
    4.1536   -2.6392   -3.7662 C   0  0  0  0  0  0  0  0  0  0  0  0
    4.6196   -4.0875   -4.0270 C   0  0  0  0  0  0  0  0  0  0  0  0
    3.5293   -3.8796   -3.0898 C   0  0  1  0  0  0  0  0  0  0  0  0
    3.5830   -3.1816   -1.7358 C   0  0  2  0  0  0  0  0  0  0  0  0
    2.1770   -3.0526   -1.2028 C   0  0  0  0  0  0  0  0  0  0  0  0
    4.7910   -3.4738   -0.7301 C   0  0  1  0  0  0  0  0  0  0  0  0
    5.9189   -2.4816   -0.9905 C   0  0  0  0  0  0  0  0  0  0  0  0
    6.9784   -2.7187   -2.0831 C   0  0  0  0  0  0  0  0  0  0  0  0
    7.3886   -2.7115   -0.6363 C   0  0  0  0  0  0  0  0  0  0  0  0
    6.1856   -4.9943    0.7649 H   0  0  0  0  0  0  0  0  0  0  0  0
    5.6824   -4.7027    2.3896 H   0  0  0  0  0  0  0  0  0  0  0  0
    6.6683   -3.5307    1.5981 H   0  0  0  0  0  0  0  0  0  0  0  0
    2.9978   -5.0437    0.4807 H   0  0  0  0  0  0  0  0  0  0  0  0
    3.7780   -5.3457    1.9576 H   0  0  0  0  0  0  0  0  0  0  0  0
    1.8286   -3.1131    1.3677 H   0  0  0  0  0  0  0  0  0  0  0  0
    3.4990   -3.7880    5.2291 H   0  0  0  0  0  0  0  0  0  0  0  0
    4.3331   -4.7295    3.9901 H   0  0  0  0  0  0  0  0  0  0  0  0
    5.6928   -2.8798    5.3874 H   0  0  0  0  0  0  0  0  0  0  0  0
    5.9953   -3.0582    3.7109 H   0  0  0  0  0  0  0  0  0  0  0  0
    6.5932   -0.9746    3.1508 H   0  0  0  0  0  0  0  0  0  0  0  0
    6.2883   -0.0227    4.5710 H   0  0  0  0  0  0  0  0  0  0  0  0
    5.5564    0.3980    3.0318 H   0  0  0  0  0  0  0  0  0  0  0  0
    2.3110   -0.0198    6.3153 H   0  0  0  0  0  0  0  0  0  0  0  0
    3.0882    1.0230    5.1262 H   0  0  0  0  0  0  0  0  0  0  0  0
    1.4647   -1.4999    4.5830 H   0  0  0  0  0  0  0  0  0  0  0  0
    0.9193    0.1299    4.2858 H   0  0  0  0  0  0  0  0  0  0  0  0
    1.6417   -0.8583    0.9976 H   0  0  0  0  0  0  0  0  0  0  0  0
    0.5667    0.0599    2.0144 H   0  0  0  0  0  0  0  0  0  0  0  0
    0.6402   -1.6601    2.2544 H   0  0  0  0  0  0  0  0  0  0  0  0
    3.0164    1.0544    1.4628 H   0  0  0  0  0  0  0  0  0  0  0  0
    3.7830    1.2228    3.0451 H   0  0  0  0  0  0  0  0  0  0  0  0
    2.1250    1.5885    2.8387 H   0  0  0  0  0  0  0  0  0  0  0  0
    5.4497   -1.8337    1.6930 H   0  0  0  0  0  0  0  0  0  0  0  0
    3.3926   -0.6019    0.0360 H   0  0  0  0  0  0  0  0  0  0  0  0
    4.8077    0.0312    0.7736 H   0  0  0  0  0  0  0  0  0  0  0  0
    6.0144   -0.3204   -0.9542 H   0  0  0  0  0  0  0  0  0  0  0  0
    4.3298   -4.5531   -4.9722 H   0  0  0  0  0  0  0  0  0  0  0  0
    5.4369   -4.5857   -3.5087 H   0  0  0  0  0  0  0  0  0  0  0  0
    2.5625   -4.2993   -3.3915 H   0  0  0  0  0  0  0  0  0  0  0  0
    1.7597   -3.9920   -0.8515 H   0  0  0  0  0  0  0  0  0  0  0  0
    1.4919   -2.6925   -1.9448 H   0  0  0  0  0  0  0  0  0  0  0  0
    2.2022   -2.3482   -0.3917 H   0  0  0  0  0  0  0  0  0  0  0  0
    5.1253   -4.4831   -1.0059 H   0  0  0  0  0  0  0  0  0  0  0  0
    7.0769   -3.6852   -2.5817 H   0  0  0  0  0  0  0  0  0  0  0  0
    7.4995   -1.9216   -2.5896 H   0  0  0  0  0  0  0  0  0  0  0  0
    7.9400   -1.8307   -0.2775 H   0  0  0  0  0  0  0  0  0  0  0  0
    7.7860   -3.6895   -0.3847 H   0  0  0  0  0  0  0  0  0  0  0  0
  2  1  1  1
  1 33  1  0
  1 34  1  0
  1 35  1  0
  2 19  1  0
  2 29  1  0
  2  3  1  0
  3  4  1  0
  3 36  1  0
  3 37  1  0
  4  6  1  0
  4  5  1  0
  4 38  1  6
  6  5  1  1
  6 18  1  0
  6  7  1  0
  7  8  1  0
  7 39  1  0
  7 40  1  0
  8  9  1  0
  8 41  1  0
  8 42  1  0
  9 18  1  0
  9 10  1  6
  9 11  1  0
 10 43  1  0
 10 44  1  0
 10 45  1  0
 11 12  2  0
 11 13  1  0
 13 14  1  0
 13 46  1  0
 13 47  1  0
 14 15  1  0
 14 48  1  0
 14 49  1  0
 15 16  1  0
 15 17  1  0
 18 15  1  6
 16 50  1  0
 16 51  1  0
 16 52  1  0
 17 53  1  0
 17 54  1  0
 17 55  1  0
 18 19  1  0
 19 20  1  0
 19 56  1  1
 20 21  1  0
 20 57  1  0
 20 58  1  0
 21 30  1  0
 21 22  1  0
 21 59  1  1
 22 23  1  0
 23 27  1  0
 23 24  2  0
 24 26  1  0
 24 25  1  0
 25 26  1  0
 25 60  1  0
 25 61  1  0
 26 27  1  0
 26 62  1  6
 27 28  1  1
 27 29  1  0
 28 63  1  0
 28 64  1  0
 28 65  1  0
 29 30  1  0
 29 66  1  6
 30 32  1  0
 30 31  1  0
 31 32  1  0
 31 67  1  0
 31 68  1  0
 32 69  1  0
 32 70  1  0
M  END
>  <i_m_ct_stereo_status>  (146) 
1

>  <s_m_source_file>  (146) 
/var/tmp/pbs.5076255.sched01/tmpxnahmhzs/434e81vi2s.sdf

>  <i_m_source_file_index>  (146) 
16

>  <i_lp_mmshare_version>  (146) 
48012

>  <i_f3d_flags>  (146) 
0

>  <s_epik_input>  (146) 
W0NIM11DMShbQ0gzXSlbQ0gyXVtDSDJdQyg9TylbQ0BAXShbQ0gzXSkoW0NIMl1bQ0gyXTIpW0NAXTEoW0NAXTIzNClbQ0BIXTVbQ0BAXShbQ0gzXSkoW0NIMl1bQ0BIXTNPNClbQ0BASF02QzcoW0NIMl1bQ0gyXTcpW0NASF0oW0NIMl01KU9DOD1DOVtDSF0oW0NIMl05KVtDQEBdNjhbQ0gzXQ==

>  <s_epik_cmdline>  (146) 
J2VwaWtfcHl0aG9uJywgJy1waHQnLCAnMi4wJywgJy1waCcsICc3LjAnLCAnLXRuJywgJzgnLCAnLW1hJywgJzIwMCcsICctaW1hZScsICc8aW5maWxlLm1hZT4nLCAnLW9tYWUnLCAnPG91dGZpbGUubWFlPic=

>  <r_lp_tautomer_probability>  (146) 
1

>  <r_epik_Ionization_Penalty>  (146) 
3.71856e-11

>  <r_epik_Ionization_Penalty_Charging>  (146) 
0

>  <r_epik_Ionization_Penalty_Neutral>  (146) 
3.71856e-11

>  <r_epik_State_Penalty>  (146) 
-0

>  <r_epik_Charging_Adjusted_Penalty>  (146) 
0

>  <i_epik_Tot_Q>  (146) 
0

>  <i_epik_Tot_abs_Q>  (146) 
0

>  <s_lp_Force_Field>  (146) 
OPLS3e

>  <r_lp_Energy>  (146) 
179.8

>  <b_lp_Chiralities_Consistent>  (146) 
1

>  <s_lp_Variant>  (146) 
47:0-1

>  <s_i_glide_gridfile>  (146) 
pfpi4k_grid

>  <i_i_glide_lignum>  (146) 
16

>  <i_i_glide_rotatable_bonds>  (146) 
0

>  <r_i_docking_score>  (146) 
-1.73404

>  <r_i_glide_ligand_efficiency>  (146) 
-0.0541888

>  <r_i_glide_ligand_efficiency_sa>  (146) 
-0.172039

>  <r_i_glide_ligand_efficiency_ln>  (146) 
-0.388299

>  <r_i_glide_gscore>  (146) 
-1.73404

>  <r_i_glide_lipo>  (146) 
-0.544139

>  <r_i_glide_hbond>  (146) 
0

>  <r_i_glide_metal>  (146) 
-0

>  <r_i_glide_rewards>  (146) 
-0.445839

>  <r_i_glide_evdw>  (146) 
-13.1624

>  <r_i_glide_ecoul>  (146) 
-0.572934

>  <r_i_glide_erotb>  (146) 
0

>  <r_i_glide_esite>  (146) 
0

>  <r_i_glide_emodel>  (146) 
-12.0825

>  <r_i_glide_energy>  (146) 
-13.7354

>  <r_i_glide_einternal>  (146) 
0

>  <r_i_glide_intrahb_reward>  (146) 
-0

>  <i_i_glide_confnum>  (146) 
2

>  <i_i_glide_posenum>  (146) 
1

>  <r_i_glide_eff_state_penalty>  (146) 
0

>  <ligand_id>  (146) 
47

>  <original_smiles>  (146) 
CC12CC3OC34CCC3(C)C(=O)CCC(C)(C)C34C1CC1OC3=C4CC4C3(C)C2C12CC2

>  <smiles>  (146) 
[H]C([H])([H])C12C(=C3C([H])([H])C31[H])OC1([H])C([H])([H])C3([H])C(C([H])([H])[H])(C([H])([H])C4([H])OC45C([H])([H])C([H])([H])C4(C([H])([H])[H])C(=O)C([H])([H])C([H])([H])C(C([H])([H])[H])(C([H])([H])[H])C354)C2([H])C12C([H])([H])C2([H])[H]

$$$$
47:1:0
     RDKit          3D

 70 78  0  0  1  0  0  0  0  0999 V2000
    6.3620   -7.4717    1.8984 C   0  0  0  0  0  0  0  0  0  0  0  0
    5.2332   -6.5977    2.5398 C   0  0  1  0  0  0  0  0  0  0  0  0
    6.0449   -5.6926    3.5248 C   0  0  0  0  0  0  0  0  0  0  0  0
    5.3266   -4.3947    3.5289 C   0  0  1  0  0  0  0  0  0  0  0  0
    5.6905   -3.0315    3.4641 O   0  0  0  0  0  0  0  0  0  0  0  0
    5.7207   -3.7123    2.1980 C   0  0  1  0  0  0  0  0  0  0  0  0
    7.0788   -3.5800    1.5304 C   0  0  0  0  0  0  0  0  0  0  0  0
    6.9039   -4.0364    0.1104 C   0  0  0  0  0  0  0  0  0  0  0  0
    5.4298   -3.6914   -0.1868 C   0  0  2  0  0  0  0  0  0  0  0  0
    5.0545   -4.4282   -1.4818 C   0  0  0  0  0  0  0  0  0  0  0  0
    5.3811   -2.1766   -0.5540 C   0  0  0  0  0  0  0  0  0  0  0  0
    6.3071   -1.6214   -1.1348 O   0  0  0  0  0  0  0  0  0  0  0  0
    4.1364   -1.3759   -0.2516 C   0  0  0  0  0  0  0  0  0  0  0  0
    3.6784   -1.6741    1.1699 C   0  0  0  0  0  0  0  0  0  0  0  0
    3.3398   -3.1724    1.3703 C   0  0  0  0  0  0  0  0  0  0  0  0
    2.6197   -3.1783    2.7422 C   0  0  0  0  0  0  0  0  0  0  0  0
    2.2316   -3.4922    0.3630 C   0  0  0  0  0  0  0  0  0  0  0  0
    4.6586   -4.0914    1.1850 C   0  0  2  0  0  0  0  0  0  0  0  0
    4.5507   -5.7259    1.3356 C   0  0  2  0  0  0  0  0  0  0  0  0
    3.4145   -6.4938    0.6279 C   0  0  0  0  0  0  0  0  0  0  0  0
    2.5139   -7.2836    1.5812 C   0  0  2  0  0  0  0  0  0  0  0  0
    1.8808   -6.3564    2.4794 O   0  0  0  0  0  0  0  0  0  0  0  0
    1.9426   -6.6389    3.8317 C   0  0  0  0  0  0  0  0  0  0  0  0
    1.1014   -7.5179    4.4063 C   0  0  0  0  0  0  0  0  0  0  0  0
    1.1117   -7.8874    5.8740 C   0  0  0  0  0  0  0  0  0  0  0  0
    2.3092   -8.2126    5.0163 C   0  0  2  0  0  0  0  0  0  0  0  0
    3.2634   -7.1739    4.4123 C   0  0  2  0  0  0  0  0  0  0  0  0
    3.9114   -6.5365    5.6606 C   0  0  0  0  0  0  0  0  0  0  0  0
    4.2369   -7.6471    3.2745 C   0  0  1  0  0  0  0  0  0  0  0  0
    3.3818   -8.3518    2.2238 C   0  0  0  0  0  0  0  0  0  0  0  0
    2.8476   -9.7599    2.3913 C   0  0  0  0  0  0  0  0  0  0  0  0
    3.9180   -9.4941    1.3787 C   0  0  0  0  0  0  0  0  0  0  0  0
    6.7788   -8.1650    2.6294 H   0  0  0  0  0  0  0  0  0  0  0  0
    7.1965   -6.8719    1.5279 H   0  0  0  0  0  0  0  0  0  0  0  0
    6.0158   -8.0473    1.0398 H   0  0  0  0  0  0  0  0  0  0  0  0
    6.0966   -6.1096    4.5215 H   0  0  0  0  0  0  0  0  0  0  0  0
    7.0924   -5.5846    3.2624 H   0  0  0  0  0  0  0  0  0  0  0  0
    4.3032   -4.5082    3.8296 H   0  0  0  0  0  0  0  0  0  0  0  0
    7.3646   -2.5264    1.5358 H   0  0  0  0  0  0  0  0  0  0  0  0
    7.8699   -4.1525    2.0153 H   0  0  0  0  0  0  0  0  0  0  0  0
    7.6387   -3.5629   -0.5320 H   0  0  0  0  0  0  0  0  0  0  0  0
    7.1342   -5.0970    0.0399 H   0  0  0  0  0  0  0  0  0  0  0  0
    5.3679   -5.4559   -1.4828 H   0  0  0  0  0  0  0  0  0  0  0  0
    5.5184   -3.9709   -2.3591 H   0  0  0  0  0  0  0  0  0  0  0  0
    3.9984   -4.4190   -1.6742 H   0  0  0  0  0  0  0  0  0  0  0  0
    4.3551   -0.3127   -0.3470 H   0  0  0  0  0  0  0  0  0  0  0  0
    3.3663   -1.6137   -0.9878 H   0  0  0  0  0  0  0  0  0  0  0  0
    4.4501   -1.3501    1.8724 H   0  0  0  0  0  0  0  0  0  0  0  0
    2.8085   -1.0462    1.3899 H   0  0  0  0  0  0  0  0  0  0  0  0
    2.3697   -4.1717    3.0829 H   0  0  0  0  0  0  0  0  0  0  0  0
    1.6713   -2.6394    2.6767 H   0  0  0  0  0  0  0  0  0  0  0  0
    3.1896   -2.6653    3.5165 H   0  0  0  0  0  0  0  0  0  0  0  0
    1.7407   -4.4178    0.6972 H   0  0  0  0  0  0  0  0  0  0  0  0
    2.5383   -3.5881   -0.6796 H   0  0  0  0  0  0  0  0  0  0  0  0
    1.5271   -2.6604    0.3788 H   0  0  0  0  0  0  0  0  0  0  0  0
    5.2946   -5.9339    0.5892 H   0  0  0  0  0  0  0  0  0  0  0  0
    2.8415   -5.8940   -0.0512 H   0  0  0  0  0  0  0  0  0  0  0  0
    3.8591   -7.1912   -0.0751 H   0  0  0  0  0  0  0  0  0  0  0  0
    1.7274   -7.7808    1.0056 H   0  0  0  0  0  0  0  0  0  0  0  0
    1.1564   -7.0839    6.6215 H   0  0  0  0  0  0  0  0  0  0  0  0
    0.5417   -8.7418    6.2272 H   0  0  0  0  0  0  0  0  0  0  0  0
    2.5921   -9.2796    5.0108 H   0  0  0  0  0  0  0  0  0  0  0  0
    4.8091   -7.1039    5.9416 H   0  0  0  0  0  0  0  0  0  0  0  0
    3.2810   -6.5767    6.5450 H   0  0  0  0  0  0  0  0  0  0  0  0
    4.1782   -5.4915    5.5757 H   0  0  0  0  0  0  0  0  0  0  0  0
    4.8775   -8.4181    3.7097 H   0  0  0  0  0  0  0  0  0  0  0  0
    3.1698  -10.3517    3.2420 H   0  0  0  0  0  0  0  0  0  0  0  0
    1.8530   -9.9898    2.0152 H   0  0  0  0  0  0  0  0  0  0  0  0
    3.6410   -9.5602    0.3239 H   0  0  0  0  0  0  0  0  0  0  0  0
    4.8969   -9.9017    1.6237 H   0  0  0  0  0  0  0  0  0  0  0  0
  2  1  1  6
  1 33  1  0
  1 34  1  0
  1 35  1  0
  2 19  1  0
  2 29  1  0
  2  3  1  0
  3  4  1  0
  3 36  1  0
  3 37  1  0
  4  6  1  0
  4  5  1  0
  4 38  1  6
  6  5  1  1
  6 18  1  0
  6  7  1  0
  7  8  1  0
  7 39  1  0
  7 40  1  0
  8  9  1  0
  8 41  1  0
  8 42  1  0
  9 18  1  0
  9 10  1  6
  9 11  1  0
 10 43  1  0
 10 44  1  0
 10 45  1  0
 11 12  2  0
 11 13  1  0
 13 14  1  0
 13 46  1  0
 13 47  1  0
 14 15  1  0
 14 48  1  0
 14 49  1  0
 15 16  1  0
 15 17  1  0
 18 15  1  1
 16 50  1  0
 16 51  1  0
 16 52  1  0
 17 53  1  0
 17 54  1  0
 17 55  1  0
 18 19  1  0
 19 20  1  0
 19 56  1  6
 20 21  1  0
 20 57  1  0
 20 58  1  0
 21 30  1  0
 21 22  1  0
 21 59  1  6
 22 23  1  0
 23 27  1  0
 23 24  2  0
 24 26  1  0
 24 25  1  0
 25 26  1  0
 25 60  1  0
 25 61  1  0
 26 27  1  0
 26 62  1  6
 27 28  1  1
 27 29  1  0
 28 63  1  0
 28 64  1  0
 28 65  1  0
 29 30  1  0
 29 66  1  1
 30 32  1  0
 30 31  1  0
 31 32  1  0
 31 67  1  0
 31 68  1  0
 32 69  1  0
 32 70  1  0
M  END
>  <i_m_ct_stereo_status>  (147) 
1

>  <s_m_source_file>  (147) 
/var/tmp/pbs.5076255.sched01/tmpxnahmhzs/434e81vi2s.sdf

>  <i_m_source_file_index>  (147) 
17

>  <i_lp_mmshare_version>  (147) 
48012

>  <i_f3d_flags>  (147) 
0

>  <s_epik_input>  (147) 
W0NIM11DMShbQ0gzXSlbQ0gyXVtDSDJdQyg9TylbQ0BAXShbQ0gzXSkoW0NIMl1bQ0gyXTIpW0NAXTEoW0NAXTIzNClbQ0BIXTVbQ0BAXShbQ0gzXSkoW0NIMl1bQ0BIXTNPNClbQ0BASF02QzcoW0NIMl1bQ0gyXTcpW0NASF0oW0NIMl01KU9DOD1DOVtDSF0oW0NIMl05KVtDQEBdNjhbQ0gzXQ==

>  <s_epik_cmdline>  (147) 
J2VwaWtfcHl0aG9uJywgJy1waHQnLCAnMi4wJywgJy1waCcsICc3LjAnLCAnLXRuJywgJzgnLCAnLW1hJywgJzIwMCcsICctaW1hZScsICc8aW5maWxlLm1hZT4nLCAnLW9tYWUnLCAnPG91dGZpbGUubWFlPic=

>  <r_lp_tautomer_probability>  (147) 
1

>  <r_epik_Ionization_Penalty>  (147) 
3.71856e-11

>  <r_epik_Ionization_Penalty_Charging>  (147) 
0

>  <r_epik_Ionization_Penalty_Neutral>  (147) 
3.71856e-11

>  <r_epik_State_Penalty>  (147) 
-0

>  <r_epik_Charging_Adjusted_Penalty>  (147) 
0

>  <i_epik_Tot_Q>  (147) 
0

>  <i_epik_Tot_abs_Q>  (147) 
0

>  <s_lp_Force_Field>  (147) 
OPLS3e

>  <r_lp_Energy>  (147) 
171.707

>  <b_lp_Chiralities_Consistent>  (147) 
1

>  <s_lp_Variant>  (147) 
47:0-2

>  <s_i_glide_gridfile>  (147) 
pfpi4k_grid

>  <i_i_glide_lignum>  (147) 
17

>  <i_i_glide_rotatable_bonds>  (147) 
0

>  <r_i_docking_score>  (147) 
-2.13453

>  <r_i_glide_ligand_efficiency>  (147) 
-0.0667042

>  <r_i_glide_ligand_efficiency_sa>  (147) 
-0.211773

>  <r_i_glide_ligand_efficiency_ln>  (147) 
-0.477981

>  <r_i_glide_gscore>  (147) 
-2.13453

>  <r_i_glide_lipo>  (147) 
-0.420172

>  <r_i_glide_hbond>  (147) 
-0.135493

>  <r_i_glide_metal>  (147) 
-0

>  <r_i_glide_rewards>  (147) 
-0.445839

>  <r_i_glide_evdw>  (147) 
-12.1883

>  <r_i_glide_ecoul>  (147) 
-3.37182

>  <r_i_glide_erotb>  (147) 
0

>  <r_i_glide_esite>  (147) 
-0.0178451

>  <r_i_glide_emodel>  (147) 
-16.2284

>  <r_i_glide_energy>  (147) 
-15.5601

>  <r_i_glide_einternal>  (147) 
0

>  <r_i_glide_intrahb_reward>  (147) 
-0

>  <i_i_glide_confnum>  (147) 
1

>  <i_i_glide_posenum>  (147) 
10

>  <r_i_glide_eff_state_penalty>  (147) 
0

>  <ligand_id>  (147) 
47

>  <original_smiles>  (147) 
CC12CC3OC34CCC3(C)C(=O)CCC(C)(C)C34C1CC1OC3=C4CC4C3(C)C2C12CC2

>  <smiles>  (147) 
[H]C([H])([H])C12C(=C3C([H])([H])C31[H])OC1([H])C([H])([H])C3([H])C(C([H])([H])[H])(C([H])([H])C4([H])OC45C([H])([H])C([H])([H])C4(C([H])([H])[H])C(=O)C([H])([H])C([H])([H])C(C([H])([H])[H])(C([H])([H])[H])C354)C2([H])C12C([H])([H])C2([H])[H]

$$$$
47:1:1
     RDKit          3D

 70 78  0  0  1  0  0  0  0  0999 V2000
    5.6838   -7.2084    2.5156 C   0  0  0  0  0  0  0  0  0  0  0  0
    4.4958   -6.2199    2.7592 C   0  0  1  0  0  0  0  0  0  0  0  0
    5.1263   -5.1781    3.7338 C   0  0  0  0  0  0  0  0  0  0  0  0
    4.5269   -3.8725    3.3427 C   0  0  1  0  0  0  0  0  0  0  0  0
    5.0186   -2.5801    3.2362 O   0  0  0  0  0  0  0  0  0  0  0  0
    5.2029   -3.3959    2.0570 C   0  0  1  0  0  0  0  0  0  0  0  0
    6.6804   -3.4879    1.6703 C   0  0  0  0  0  0  0  0  0  0  0  0
    6.7329   -4.1040    0.3027 C   0  0  0  0  0  0  0  0  0  0  0  0
    5.3587   -3.7902   -0.3112 C   0  0  2  0  0  0  0  0  0  0  0  0
    5.1462   -4.7137   -1.5150 C   0  0  0  0  0  0  0  0  0  0  0  0
    5.4923   -2.3559   -0.9325 C   0  0  0  0  0  0  0  0  0  0  0  0
    6.5436   -1.9107   -1.3801 O   0  0  0  0  0  0  0  0  0  0  0  0
    4.2358   -1.5151   -1.0306 C   0  0  0  0  0  0  0  0  0  0  0  0
    3.4881   -1.5880    0.2954 C   0  0  0  0  0  0  0  0  0  0  0  0
    3.0181   -3.0229    0.6563 C   0  0  0  0  0  0  0  0  0  0  0  0
    2.0745   -2.7594    1.8488 C   0  0  0  0  0  0  0  0  0  0  0  0
    2.1052   -3.5333   -0.4935 C   0  0  0  0  0  0  0  0  0  0  0  0
    4.3163   -3.9519    0.9224 C   0  0  2  0  0  0  0  0  0  0  0  0
    4.1086   -5.5488    1.3152 C   0  0  2  0  0  0  0  0  0  0  0  0
    3.0936   -6.3896    0.5245 C   0  0  0  0  0  0  0  0  0  0  0  0
    1.9854   -7.0130    1.3747 C   0  0  2  0  0  0  0  0  0  0  0  0
    1.2397   -5.9260    1.9583 O   0  0  0  0  0  0  0  0  0  0  0  0
    1.0083   -5.9927    3.3332 C   0  0  0  0  0  0  0  0  0  0  0  0
    0.0412   -6.7566    3.8334 C   0  0  0  0  0  0  0  0  0  0  0  0
   -0.2645   -6.8629    5.3189 C   0  0  0  0  0  0  0  0  0  0  0  0
    1.0656   -7.3665    4.7987 C   0  0  2  0  0  0  0  0  0  0  0  0
    2.1549   -6.4377    4.2459 C   0  0  2  0  0  0  0  0  0  0  0  0
    2.5838   -5.6055    5.4817 C   0  0  0  0  0  0  0  0  0  0  0  0
    3.3207   -7.1167    3.4303 C   0  0  1  0  0  0  0  0  0  0  0  0
    2.6583   -7.9702    2.3523 C   0  0  0  0  0  0  0  0  0  0  0  0
    2.0286   -9.3205    2.6510 C   0  0  0  0  0  0  0  0  0  0  0  0
    3.2995   -9.2578    1.8484 C   0  0  0  0  0  0  0  0  0  0  0  0
    5.9155   -7.7733    3.4211 H   0  0  0  0  0  0  0  0  0  0  0  0
    6.6052   -6.6914    2.2259 H   0  0  0  0  0  0  0  0  0  0  0  0
    5.4870   -7.9198    1.7108 H   0  0  0  0  0  0  0  0  0  0  0  0
    4.9713   -5.4144    4.7752 H   0  0  0  0  0  0  0  0  0  0  0  0
    6.2104   -5.1305    3.6861 H   0  0  0  0  0  0  0  0  0  0  0  0
    3.4561   -3.8802    3.4714 H   0  0  0  0  0  0  0  0  0  0  0  0
    7.0465   -2.4587    1.6594 H   0  0  0  0  0  0  0  0  0  0  0  0
    7.2897   -4.1358    2.2946 H   0  0  0  0  0  0  0  0  0  0  0  0
    7.6033   -3.7608   -0.2379 H   0  0  0  0  0  0  0  0  0  0  0  0
    6.9048   -5.1637    0.4157 H   0  0  0  0  0  0  0  0  0  0  0  0
    5.3432   -5.7702   -1.3158 H   0  0  0  0  0  0  0  0  0  0  0  0
    5.8056   -4.4662   -2.3386 H   0  0  0  0  0  0  0  0  0  0  0  0
    4.1827   -4.5826   -1.9401 H   0  0  0  0  0  0  0  0  0  0  0  0
    4.5156   -0.4796   -1.2591 H   0  0  0  0  0  0  0  0  0  0  0  0
    3.6285   -1.8879   -1.8598 H   0  0  0  0  0  0  0  0  0  0  0  0
    4.1197   -1.1645    1.0832 H   0  0  0  0  0  0  0  0  0  0  0  0
    2.6385   -0.9064    0.2349 H   0  0  0  0  0  0  0  0  0  0  0  0
    1.7096   -3.6726    2.2968 H   0  0  0  0  0  0  0  0  0  0  0  0
    1.2034   -2.1929    1.5268 H   0  0  0  0  0  0  0  0  0  0  0  0
    2.5319   -2.1470    2.6300 H   0  0  0  0  0  0  0  0  0  0  0  0
    1.4256   -4.3258   -0.2070 H   0  0  0  0  0  0  0  0  0  0  0  0
    2.5984   -3.7748   -1.4116 H   0  0  0  0  0  0  0  0  0  0  0  0
    1.4727   -2.7479   -0.8533 H   0  0  0  0  0  0  0  0  0  0  0  0
    4.9796   -5.8999    0.7945 H   0  0  0  0  0  0  0  0  0  0  0  0
    2.6879   -5.8948   -0.3204 H   0  0  0  0  0  0  0  0  0  0  0  0
    3.6584   -7.1641    0.0252 H   0  0  0  0  0  0  0  0  0  0  0  0
    1.2931   -7.5771    0.7418 H   0  0  0  0  0  0  0  0  0  0  0  0
   -0.3245   -5.9481    5.9043 H   0  0  0  0  0  0  0  0  0  0  0  0
   -0.9533   -7.6141    5.6757 H   0  0  0  0  0  0  0  0  0  0  0  0
    1.2932   -8.4080    5.0443 H   0  0  0  0  0  0  0  0  0  0  0  0
    3.3771   -6.1295    6.0301 H   0  0  0  0  0  0  0  0  0  0  0  0
    1.7895   -5.4813    6.2122 H   0  0  0  0  0  0  0  0  0  0  0  0
    2.9144   -4.5933    5.2765 H   0  0  0  0  0  0  0  0  0  0  0  0
    3.8170   -7.8115    4.1089 H   0  0  0  0  0  0  0  0  0  0  0  0
    2.1360   -9.7318    3.6469 H   0  0  0  0  0  0  0  0  0  0  0  0
    1.1219   -9.5972    2.1190 H   0  0  0  0  0  0  0  0  0  0  0  0
    3.2379   -9.5002    0.7868 H   0  0  0  0  0  0  0  0  0  0  0  0
    4.2001   -9.6051    2.3488 H   0  0  0  0  0  0  0  0  0  0  0  0
  2  1  1  6
  1 33  1  0
  1 34  1  0
  1 35  1  0
  2 19  1  0
  2 29  1  0
  2  3  1  0
  3  4  1  0
  3 36  1  0
  3 37  1  0
  4  6  1  0
  4  5  1  0
  4 38  1  6
  6  5  1  1
  6 18  1  0
  6  7  1  0
  7  8  1  0
  7 39  1  0
  7 40  1  0
  8  9  1  0
  8 41  1  0
  8 42  1  0
  9 18  1  0
  9 10  1  6
  9 11  1  0
 10 43  1  0
 10 44  1  0
 10 45  1  0
 11 12  2  0
 11 13  1  0
 13 14  1  0
 13 46  1  0
 13 47  1  0
 14 15  1  0
 14 48  1  0
 14 49  1  0
 15 16  1  0
 15 17  1  0
 18 15  1  6
 16 50  1  0
 16 51  1  0
 16 52  1  0
 17 53  1  0
 17 54  1  0
 17 55  1  0
 18 19  1  0
 19 20  1  0
 19 56  1  6
 20 21  1  0
 20 57  1  0
 20 58  1  0
 21 30  1  0
 21 22  1  0
 21 59  1  6
 22 23  1  0
 23 27  1  0
 23 24  2  0
 24 26  1  0
 24 25  1  0
 25 26  1  0
 25 60  1  0
 25 61  1  0
 26 27  1  0
 26 62  1  6
 27 28  1  1
 27 29  1  0
 28 63  1  0
 28 64  1  0
 28 65  1  0
 29 30  1  0
 29 66  1  1
 30 32  1  0
 30 31  1  0
 31 32  1  0
 31 67  1  0
 31 68  1  0
 32 69  1  0
 32 70  1  0
M  END
>  <i_m_ct_stereo_status>  (148) 
1

>  <s_m_source_file>  (148) 
/var/tmp/pbs.5076255.sched01/tmpxnahmhzs/434e81vi2s.sdf

>  <i_m_source_file_index>  (148) 
17

>  <i_lp_mmshare_version>  (148) 
48012

>  <i_f3d_flags>  (148) 
0

>  <s_epik_input>  (148) 
W0NIM11DMShbQ0gzXSlbQ0gyXVtDSDJdQyg9TylbQ0BAXShbQ0gzXSkoW0NIMl1bQ0gyXTIpW0NAXTEoW0NAXTIzNClbQ0BIXTVbQ0BAXShbQ0gzXSkoW0NIMl1bQ0BIXTNPNClbQ0BASF02QzcoW0NIMl1bQ0gyXTcpW0NASF0oW0NIMl01KU9DOD1DOVtDSF0oW0NIMl05KVtDQEBdNjhbQ0gzXQ==

>  <s_epik_cmdline>  (148) 
J2VwaWtfcHl0aG9uJywgJy1waHQnLCAnMi4wJywgJy1waCcsICc3LjAnLCAnLXRuJywgJzgnLCAnLW1hJywgJzIwMCcsICctaW1hZScsICc8aW5maWxlLm1hZT4nLCAnLW9tYWUnLCAnPG91dGZpbGUubWFlPic=

>  <r_lp_tautomer_probability>  (148) 
1

>  <r_epik_Ionization_Penalty>  (148) 
3.71856e-11

>  <r_epik_Ionization_Penalty_Charging>  (148) 
0

>  <r_epik_Ionization_Penalty_Neutral>  (148) 
3.71856e-11

>  <r_epik_State_Penalty>  (148) 
-0

>  <r_epik_Charging_Adjusted_Penalty>  (148) 
0

>  <i_epik_Tot_Q>  (148) 
0

>  <i_epik_Tot_abs_Q>  (148) 
0

>  <s_lp_Force_Field>  (148) 
OPLS3e

>  <r_lp_Energy>  (148) 
171.707

>  <b_lp_Chiralities_Consistent>  (148) 
1

>  <s_lp_Variant>  (148) 
47:0-2

>  <s_i_glide_gridfile>  (148) 
pfpi4k_grid

>  <i_i_glide_lignum>  (148) 
17

>  <i_i_glide_rotatable_bonds>  (148) 
0

>  <r_i_docking_score>  (148) 
-2.10766

>  <r_i_glide_ligand_efficiency>  (148) 
-0.0658644

>  <r_i_glide_ligand_efficiency_sa>  (148) 
-0.209107

>  <r_i_glide_ligand_efficiency_ln>  (148) 
-0.471963

>  <r_i_glide_gscore>  (148) 
-2.10766

>  <r_i_glide_lipo>  (148) 
-0.384677

>  <r_i_glide_hbond>  (148) 
-0.22836

>  <r_i_glide_metal>  (148) 
-0

>  <r_i_glide_rewards>  (148) 
-0.445839

>  <r_i_glide_evdw>  (148) 
-7.31125

>  <r_i_glide_ecoul>  (148) 
-4.415

>  <r_i_glide_erotb>  (148) 
0

>  <r_i_glide_esite>  (148) 
-0.0209738

>  <r_i_glide_emodel>  (148) 
-13.3071

>  <r_i_glide_energy>  (148) 
-11.7262

>  <r_i_glide_einternal>  (148) 
0

>  <r_i_glide_intrahb_reward>  (148) 
-0

>  <i_i_glide_confnum>  (148) 
2

>  <i_i_glide_posenum>  (148) 
12

>  <r_i_glide_eff_state_penalty>  (148) 
0

>  <ligand_id>  (148) 
47

>  <original_smiles>  (148) 
CC12CC3OC34CCC3(C)C(=O)CCC(C)(C)C34C1CC1OC3=C4CC4C3(C)C2C12CC2

>  <smiles>  (148) 
[H]C([H])([H])C12C(=C3C([H])([H])C31[H])OC1([H])C([H])([H])C3([H])C(C([H])([H])[H])(C([H])([H])C4([H])OC45C([H])([H])C([H])([H])C4(C([H])([H])[H])C(=O)C([H])([H])C([H])([H])C(C([H])([H])[H])(C([H])([H])[H])C354)C2([H])C12C([H])([H])C2([H])[H]

$$$$
47:1:2
     RDKit          3D

 70 78  0  0  1  0  0  0  0  0999 V2000
    5.5952   -4.3158    2.5116 C   0  0  0  0  0  0  0  0  0  0  0  0
    4.5033   -3.4325    1.8570 C   0  0  1  0  0  0  0  0  0  0  0  0
    3.2175   -4.2287    2.2191 C   0  0  0  0  0  0  0  0  0  0  0  0
    2.2091   -3.1758    2.4452 C   0  0  1  0  0  0  0  0  0  0  0  0
    1.1200   -3.0929    3.2827 O   0  0  0  0  0  0  0  0  0  0  0  0
    2.3653   -2.5528    3.8266 C   0  0  1  0  0  0  0  0  0  0  0  0
    2.7517   -3.2449    5.1240 C   0  0  0  0  0  0  0  0  0  0  0  0
    3.9927   -2.5466    5.6439 C   0  0  0  0  0  0  0  0  0  0  0  0
    3.8856   -1.1204    5.0454 C   0  0  2  0  0  0  0  0  0  0  0  0
    5.2583   -0.4373    5.2457 C   0  0  0  0  0  0  0  0  0  0  0  0
    2.8992   -0.3537    5.9784 C   0  0  0  0  0  0  0  0  0  0  0  0
    2.8305   -0.5818    7.1847 O   0  0  0  0  0  0  0  0  0  0  0  0
    2.0564    0.7676    5.4013 C   0  0  0  0  0  0  0  0  0  0  0  0
    1.4125    0.3243    4.0943 C   0  0  0  0  0  0  0  0  0  0  0  0
    2.4648   -0.0718    3.0292 C   0  0  0  0  0  0  0  0  0  0  0  0
    1.6312   -0.2333    1.7464 C   0  0  0  0  0  0  0  0  0  0  0  0
    3.2816    1.2003    2.7461 C   0  0  0  0  0  0  0  0  0  0  0  0
    3.3229   -1.3638    3.5365 C   0  0  2  0  0  0  0  0  0  0  0  0
    4.5415   -1.9666    2.5827 C   0  0  2  0  0  0  0  0  0  0  0  0
    5.5706   -1.0100    1.9337 C   0  0  0  0  0  0  0  0  0  0  0  0
    5.6075   -1.1141    0.4075 C   0  0  2  0  0  0  0  0  0  0  0  0
    4.3155   -0.7226   -0.0789 O   0  0  0  0  0  0  0  0  0  0  0  0
    3.7020   -1.5616   -1.0047 C   0  0  0  0  0  0  0  0  0  0  0  0
    3.9839   -1.5038   -2.3059 C   0  0  0  0  0  0  0  0  0  0  0  0
    3.4016   -2.3936   -3.3990 C   0  0  0  0  0  0  0  0  0  0  0  0
    4.1933   -3.0201   -2.2651 C   0  0  2  0  0  0  0  0  0  0  0  0
    3.7799   -3.0617   -0.7896 C   0  0  2  0  0  0  0  0  0  0  0  0
    2.5254   -3.9413   -0.8209 C   0  0  0  0  0  0  0  0  0  0  0  0
    4.8765   -3.4361    0.2799 C   0  0  1  0  0  0  0  0  0  0  0  0
    6.0737   -2.5095    0.0351 C   0  0  0  0  0  0  0  0  0  0  0  0
    7.0694   -2.7159   -1.0943 C   0  0  0  0  0  0  0  0  0  0  0  0
    7.5211   -2.9017    0.3190 C   0  0  0  0  0  0  0  0  0  0  0  0
    5.6645   -5.2836    2.0138 H   0  0  0  0  0  0  0  0  0  0  0  0
    5.4044   -4.5130    3.5695 H   0  0  0  0  0  0  0  0  0  0  0  0
    6.5646   -3.8345    2.4577 H   0  0  0  0  0  0  0  0  0  0  0  0
    2.8996   -4.8944    1.4362 H   0  0  0  0  0  0  0  0  0  0  0  0
    3.3241   -4.8887    3.0819 H   0  0  0  0  0  0  0  0  0  0  0  0
    2.0681   -2.5846    1.5604 H   0  0  0  0  0  0  0  0  0  0  0  0
    1.9105   -3.1050    5.8045 H   0  0  0  0  0  0  0  0  0  0  0  0
    2.9135   -4.3136    5.0092 H   0  0  0  0  0  0  0  0  0  0  0  0
    4.0338   -2.6084    6.7302 H   0  0  0  0  0  0  0  0  0  0  0  0
    4.8920   -3.0714    5.3322 H   0  0  0  0  0  0  0  0  0  0  0  0
    6.0873   -1.0903    5.0164 H   0  0  0  0  0  0  0  0  0  0  0  0
    5.4039   -0.1686    6.2893 H   0  0  0  0  0  0  0  0  0  0  0  0
    5.3946    0.4656    4.6734 H   0  0  0  0  0  0  0  0  0  0  0  0
    1.2835    1.0400    6.1215 H   0  0  0  0  0  0  0  0  0  0  0  0
    2.6951    1.6395    5.2643 H   0  0  0  0  0  0  0  0  0  0  0  0
    0.7565   -0.5175    4.3077 H   0  0  0  0  0  0  0  0  0  0  0  0
    0.7553    1.1169    3.7167 H   0  0  0  0  0  0  0  0  0  0  0  0
    2.2398   -0.5743    0.9204 H   0  0  0  0  0  0  0  0  0  0  0  0
    1.2198    0.7270    1.4397 H   0  0  0  0  0  0  0  0  0  0  0  0
    0.7747   -0.8933    1.8804 H   0  0  0  0  0  0  0  0  0  0  0  0
    3.7489    1.1369    1.7629 H   0  0  0  0  0  0  0  0  0  0  0  0
    4.0157    1.4187    3.5164 H   0  0  0  0  0  0  0  0  0  0  0  0
    2.6277    2.0731    2.6953 H   0  0  0  0  0  0  0  0  0  0  0  0
    5.1801   -2.2379    3.3982 H   0  0  0  0  0  0  0  0  0  0  0  0
    5.3916    0.0073    2.2107 H   0  0  0  0  0  0  0  0  0  0  0  0
    6.5810   -1.2031    2.3235 H   0  0  0  0  0  0  0  0  0  0  0  0
    6.3425   -0.4060    0.0186 H   0  0  0  0  0  0  0  0  0  0  0  0
    2.3164   -2.5228   -3.4723 H   0  0  0  0  0  0  0  0  0  0  0  0
    3.8904   -2.4751   -4.3677 H   0  0  0  0  0  0  0  0  0  0  0  0
    5.0464   -3.6163   -2.5783 H   0  0  0  0  0  0  0  0  0  0  0  0
    2.7990   -4.9946   -0.7028 H   0  0  0  0  0  0  0  0  0  0  0  0
    2.0077   -3.9077   -1.7755 H   0  0  0  0  0  0  0  0  0  0  0  0
    1.7872   -3.6849   -0.0850 H   0  0  0  0  0  0  0  0  0  0  0  0
    5.2193   -4.4460    0.0599 H   0  0  0  0  0  0  0  0  0  0  0  0
    7.0599   -3.6243   -1.6738 H   0  0  0  0  0  0  0  0  0  0  0  0
    7.4735   -1.8593   -1.6282 H   0  0  0  0  0  0  0  0  0  0  0  0
    8.1926   -2.1559    0.7621 H   0  0  0  0  0  0  0  0  0  0  0  0
    7.7408   -3.9328    0.5753 H   0  0  0  0  0  0  0  0  0  0  0  0
  2  1  1  1
  1 33  1  0
  1 34  1  0
  1 35  1  0
  2 19  1  0
  2 29  1  0
  2  3  1  0
  3  4  1  0
  3 36  1  0
  3 37  1  0
  4  6  1  0
  4  5  1  0
  4 38  1  6
  6  5  1  1
  6 18  1  0
  6  7  1  0
  7  8  1  0
  7 39  1  0
  7 40  1  0
  8  9  1  0
  8 41  1  0
  8 42  1  0
  9 18  1  0
  9 10  1  6
  9 11  1  0
 10 43  1  0
 10 44  1  0
 10 45  1  0
 11 12  2  0
 11 13  1  0
 13 14  1  0
 13 46  1  0
 13 47  1  0
 14 15  1  0
 14 48  1  0
 14 49  1  0
 15 16  1  0
 15 17  1  0
 18 15  1  6
 16 50  1  0
 16 51  1  0
 16 52  1  0
 17 53  1  0
 17 54  1  0
 17 55  1  0
 18 19  1  0
 19 20  1  0
 19 56  1  1
 20 21  1  0
 20 57  1  0
 20 58  1  0
 21 30  1  0
 21 22  1  0
 21 59  1  6
 22 23  1  0
 23 27  1  0
 23 24  2  0
 24 26  1  0
 24 25  1  0
 25 26  1  0
 25 60  1  0
 25 61  1  0
 26 27  1  0
 26 62  1  6
 27 28  1  6
 27 29  1  0
 28 63  1  0
 28 64  1  0
 28 65  1  0
 29 30  1  0
 29 66  1  6
 30 32  1  0
 30 31  1  0
 31 32  1  0
 31 67  1  0
 31 68  1  0
 32 69  1  0
 32 70  1  0
M  END
>  <i_m_ct_stereo_status>  (149) 
1

>  <s_m_source_file>  (149) 
/var/tmp/pbs.5076255.sched01/tmpxnahmhzs/434e81vi2s.sdf

>  <i_m_source_file_index>  (149) 
17

>  <i_lp_mmshare_version>  (149) 
48012

>  <i_f3d_flags>  (149) 
0

>  <s_epik_input>  (149) 
W0NIM11DMShbQ0gzXSlbQ0gyXVtDSDJdQyg9TylbQ0BAXShbQ0gzXSkoW0NIMl1bQ0gyXTIpW0NAXTEoW0NAXTIzNClbQ0BIXTVbQ0BAXShbQ0gzXSkoW0NIMl1bQ0BIXTNPNClbQ0BASF02QzcoW0NIMl1bQ0gyXTcpW0NASF0oW0NIMl01KU9DOD1DOVtDSF0oW0NIMl05KVtDQEBdNjhbQ0gzXQ==

>  <s_epik_cmdline>  (149) 
J2VwaWtfcHl0aG9uJywgJy1waHQnLCAnMi4wJywgJy1waCcsICc3LjAnLCAnLXRuJywgJzgnLCAnLW1hJywgJzIwMCcsICctaW1hZScsICc8aW5maWxlLm1hZT4nLCAnLW9tYWUnLCAnPG91dGZpbGUubWFlPic=

>  <r_lp_tautomer_probability>  (149) 
1

>  <r_epik_Ionization_Penalty>  (149) 
3.71856e-11

>  <r_epik_Ionization_Penalty_Charging>  (149) 
0

>  <r_epik_Ionization_Penalty_Neutral>  (149) 
3.71856e-11

>  <r_epik_State_Penalty>  (149) 
-0

>  <r_epik_Charging_Adjusted_Penalty>  (149) 
0

>  <i_epik_Tot_Q>  (149) 
0

>  <i_epik_Tot_abs_Q>  (149) 
0

>  <s_lp_Force_Field>  (149) 
OPLS3e

>  <r_lp_Energy>  (149) 
171.707

>  <b_lp_Chiralities_Consistent>  (149) 
1

>  <s_lp_Variant>  (149) 
47:0-2

>  <s_i_glide_gridfile>  (149) 
pfpi4k_grid

>  <i_i_glide_lignum>  (149) 
17

>  <i_i_glide_rotatable_bonds>  (149) 
0

>  <r_i_docking_score>  (149) 
-1.97221

>  <r_i_glide_ligand_efficiency>  (149) 
-0.0616317

>  <r_i_glide_ligand_efficiency_sa>  (149) 
-0.195668

>  <r_i_glide_ligand_efficiency_ln>  (149) 
-0.441633

>  <r_i_glide_gscore>  (149) 
-1.97221

>  <r_i_glide_lipo>  (149) 
-0.735567

>  <r_i_glide_hbond>  (149) 
0

>  <r_i_glide_metal>  (149) 
-0

>  <r_i_glide_rewards>  (149) 
-0.445839

>  <r_i_glide_evdw>  (149) 
-22.667

>  <r_i_glide_ecoul>  (149) 
2.28362

>  <r_i_glide_erotb>  (149) 
0

>  <r_i_glide_esite>  (149) 
0

>  <r_i_glide_emodel>  (149) 
-22.2838

>  <r_i_glide_energy>  (149) 
-20.3834

>  <r_i_glide_einternal>  (149) 
0

>  <r_i_glide_intrahb_reward>  (149) 
-0

>  <i_i_glide_confnum>  (149) 
1

>  <i_i_glide_posenum>  (149) 
30

>  <r_i_glide_eff_state_penalty>  (149) 
0

>  <ligand_id>  (149) 
47

>  <original_smiles>  (149) 
CC12CC3OC34CCC3(C)C(=O)CCC(C)(C)C34C1CC1OC3=C4CC4C3(C)C2C12CC2

>  <smiles>  (149) 
[H]C([H])([H])C12C(=C3C([H])([H])C31[H])OC1([H])C([H])([H])C3([H])C(C([H])([H])[H])(C([H])([H])C4([H])OC45C([H])([H])C([H])([H])C4(C([H])([H])[H])C(=O)C([H])([H])C([H])([H])C(C([H])([H])[H])(C([H])([H])[H])C354)C2([H])C12C([H])([H])C2([H])[H]

$$$$
49:0:0
     RDKit          3D

 77 81  0  0  1  0  0  0  0  0999 V2000
    6.7973   -3.4327   -1.1119 C   0  0  0  0  0  0  0  0  0  0  0  0
    6.0863   -4.1658    0.0188 C   0  0  0  0  0  0  0  0  0  0  0  0
    6.7854   -4.7083    1.0300 C   0  0  0  0  0  0  0  0  0  0  0  0
    6.1793   -5.5205    2.1598 C   0  0  0  0  0  0  0  0  0  0  0  0
    4.6317   -5.3476    2.3609 C   0  0  1  0  0  0  0  0  0  0  0  0
    4.4659   -3.9398    2.9919 C   0  0  0  0  0  0  0  0  0  0  0  0
    3.9820   -5.3439    0.9262 C   0  0  1  0  0  0  0  0  0  0  0  0
    2.4329   -5.3967    0.9893 C   0  0  1  0  0  0  0  0  0  0  0  0
    1.8236   -5.4578   -0.2903 O   0  0  0  0  0  0  0  0  0  0  0  0
    1.9591   -6.6301    1.7715 C   0  0  0  0  0  0  0  0  0  0  0  0
    2.4527   -6.7058    3.2386 C   0  0  2  0  0  0  0  0  0  0  0  0
    1.5226   -6.0957    4.3782 C   0  0  1  0  0  0  0  0  0  0  0  0
    1.2809   -4.5699    4.2058 C   0  0  0  0  0  0  0  0  0  0  0  0
    0.0663   -6.6839    4.3694 C   0  0  0  0  0  0  0  0  0  0  0  0
   -0.1144   -8.0554    5.0154 C   0  0  0  0  0  0  0  0  0  0  0  0
    0.3749   -8.0061    6.4619 C   0  0  0  0  0  0  0  0  0  0  0  0
    1.8784   -7.6918    6.5488 C   0  0  0  0  0  0  0  0  0  0  0  0
    2.2054   -7.5493    8.0528 C   0  0  0  0  0  0  0  0  0  0  0  0
    2.6538   -8.9382    6.0448 C   0  0  0  0  0  0  0  0  0  0  0  0
    2.1525   -6.3196    5.8020 C   0  0  1  0  0  0  0  0  0  0  0  0
    3.6095   -5.8100    5.8312 C   0  0  0  0  0  0  0  0  0  0  0  0
    4.5315   -6.4632    4.7901 C   0  0  0  0  0  0  0  0  0  0  0  0
    4.0325   -6.5273    3.3022 C   0  0  2  0  0  0  0  0  0  0  0  0
    4.6162   -7.9014    2.8200 C   0  0  0  0  0  0  0  0  0  0  0  0
    4.5636   -4.2729   -0.0759 C   0  0  1  0  0  0  0  0  0  0  0  0
    3.9162   -2.8601   -0.0360 C   0  0  0  0  0  0  0  0  0  0  0  0
    3.6936   -2.2498   -1.4122 C   0  0  0  0  0  0  0  0  0  0  0  0
    2.7890   -2.8091   -2.3388 C   0  0  0  0  0  0  0  0  0  0  0  0
    2.6279   -2.1865   -3.5912 C   0  0  0  0  0  0  0  0  0  0  0  0
    3.3564   -1.0077   -3.8573 C   0  0  0  0  0  0  0  0  0  0  0  0
    4.2177   -0.4644   -2.9816 N   0  0  0  0  0  0  0  0  0  0  0  0
    4.3579   -1.0558   -1.7842 C   0  0  0  0  0  0  0  0  0  0  0  0
    6.5021   -3.8358   -2.0812 H   0  0  0  0  0  0  0  0  0  0  0  0
    7.8792   -3.5211   -1.0232 H   0  0  0  0  0  0  0  0  0  0  0  0
    6.5632   -2.3703   -1.0906 H   0  0  0  0  0  0  0  0  0  0  0  0
    7.8625   -4.6266    1.0452 H   0  0  0  0  0  0  0  0  0  0  0  0
    6.4647   -6.5261    1.8711 H   0  0  0  0  0  0  0  0  0  0  0  0
    6.7303   -5.2875    3.0758 H   0  0  0  0  0  0  0  0  0  0  0  0
    3.4633   -3.5487    2.8777 H   0  0  0  0  0  0  0  0  0  0  0  0
    5.1053   -3.2005    2.5128 H   0  0  0  0  0  0  0  0  0  0  0  0
    4.7511   -3.8979    4.0421 H   0  0  0  0  0  0  0  0  0  0  0  0
    4.2803   -6.2870    0.4744 H   0  0  0  0  0  0  0  0  0  0  0  0
    2.0453   -4.5145    1.4795 H   0  0  0  0  0  0  0  0  0  0  0  0
    2.4734   -5.7109   -0.9394 H   0  0  0  0  0  0  0  0  0  0  0  0
    0.8791   -6.6968    1.7057 H   0  0  0  0  0  0  0  0  0  0  0  0
    2.3152   -7.5184    1.2514 H   0  0  0  0  0  0  0  0  0  0  0  0
    2.2742   -7.7555    3.4359 H   0  0  0  0  0  0  0  0  0  0  0  0
    0.5508   -4.2000    4.9275 H   0  0  0  0  0  0  0  0  0  0  0  0
    0.8803   -4.3142    3.2262 H   0  0  0  0  0  0  0  0  0  0  0  0
    2.1589   -3.9687    4.3945 H   0  0  0  0  0  0  0  0  0  0  0  0
   -0.6004   -6.0168    4.9111 H   0  0  0  0  0  0  0  0  0  0  0  0
   -0.3533   -6.7151    3.3679 H   0  0  0  0  0  0  0  0  0  0  0  0
   -1.1759   -8.3164    5.0107 H   0  0  0  0  0  0  0  0  0  0  0  0
    0.3771   -8.8409    4.4490 H   0  0  0  0  0  0  0  0  0  0  0  0
   -0.1818   -7.2363    6.9952 H   0  0  0  0  0  0  0  0  0  0  0  0
    0.1411   -8.9469    6.9607 H   0  0  0  0  0  0  0  0  0  0  0  0
    3.2757   -7.4511    8.2372 H   0  0  0  0  0  0  0  0  0  0  0  0
    1.8693   -8.4224    8.6135 H   0  0  0  0  0  0  0  0  0  0  0  0
    1.7126   -6.6798    8.4899 H   0  0  0  0  0  0  0  0  0  0  0  0
    3.7168   -8.8981    6.2816 H   0  0  0  0  0  0  0  0  0  0  0  0
    2.5449   -9.1159    4.9790 H   0  0  0  0  0  0  0  0  0  0  0  0
    2.2795   -9.8447    6.5320 H   0  0  0  0  0  0  0  0  0  0  0  0
    1.6245   -5.6121    6.4449 H   0  0  0  0  0  0  0  0  0  0  0  0
    3.6305   -4.7322    5.7269 H   0  0  0  0  0  0  0  0  0  0  0  0
    4.0451   -5.9609    6.8181 H   0  0  0  0  0  0  0  0  0  0  0  0
    5.4984   -5.9645    4.8431 H   0  0  0  0  0  0  0  0  0  0  0  0
    4.7602   -7.4554    5.1510 H   0  0  0  0  0  0  0  0  0  0  0  0
    4.1351   -8.7506    3.3049 H   0  0  0  0  0  0  0  0  0  0  0  0
    5.6685   -8.0215    3.0778 H   0  0  0  0  0  0  0  0  0  0  0  0
    4.5166   -8.0581    1.7462 H   0  0  0  0  0  0  0  0  0  0  0  0
    4.3612   -4.6901   -1.0624 H   0  0  0  0  0  0  0  0  0  0  0  0
    2.9296   -2.8660    0.4260 H   0  0  0  0  0  0  0  0  0  0  0  0
    4.5130   -2.1878    0.5788 H   0  0  0  0  0  0  0  0  0  0  0  0
    2.2158   -3.6934   -2.1057 H   0  0  0  0  0  0  0  0  0  0  0  0
    1.9299   -2.5790   -4.3187 H   0  0  0  0  0  0  0  0  0  0  0  0
    3.2467   -0.4940   -4.7983 H   0  0  0  0  0  0  0  0  0  0  0  0
    5.0435   -0.5796   -1.1019 H   0  0  0  0  0  0  0  0  0  0  0  0
  1  2  1  0
  1 33  1  0
  1 34  1  0
  1 35  1  0
  2 25  1  0
  2  3  2  0
  3  4  1  0
  3 36  1  0
  4  5  1  0
  4 37  1  0
  4 38  1  0
  5 23  1  0
  5  6  1  1
  5  7  1  0
  6 39  1  0
  6 40  1  0
  6 41  1  0
  7  8  1  0
  7 25  1  0
  7 42  1  6
  8  9  1  0
  8 10  1  0
  8 43  1  1
  9 44  1  0
 10 11  1  0
 10 45  1  0
 10 46  1  0
 11 23  1  0
 11 12  1  0
 11 47  1  1
 12 20  1  0
 12 13  1  6
 12 14  1  0
 13 48  1  0
 13 49  1  0
 13 50  1  0
 14 15  1  0
 14 51  1  0
 14 52  1  0
 15 16  1  0
 15 53  1  0
 15 54  1  0
 16 17  1  0
 16 55  1  0
 16 56  1  0
 17 18  1  0
 17 19  1  0
 17 20  1  0
 18 57  1  0
 18 58  1  0
 18 59  1  0
 19 60  1  0
 19 61  1  0
 19 62  1  0
 20 21  1  0
 20 63  1  1
 21 22  1  0
 21 64  1  0
 21 65  1  0
 22 23  1  0
 22 66  1  0
 22 67  1  0
 23 24  1  6
 24 68  1  0
 24 69  1  0
 24 70  1  0
 25 26  1  0
 25 71  1  6
 26 27  1  0
 26 72  1  0
 26 73  1  0
 27 32  1  0
 27 28  2  0
 28 29  1  0
 28 74  1  0
 29 30  2  0
 29 75  1  0
 30 31  1  0
 30 76  1  0
 31 32  2  0
 32 77  1  0
M  END
>  <i_m_ct_stereo_status>  (150) 
1

>  <s_m_source_file>  (150) 
/var/tmp/pbs.5076255.sched01/tmpxnahmhzs/434e81vi2s.sdf

>  <i_m_source_file_index>  (150) 
20

>  <i_lp_mmshare_version>  (150) 
48012

>  <i_f3d_flags>  (150) 
0

>  <s_epik_input>  (150) 
W2NIXTFuW2NIXVtjSF1bY0hdYzFbQ0gyXVtDQEBIXShDKFtDSDNdKT1bQ0hdW0NIMl0yKVtDQEBIXShbQ0BdMjNbQ0gzXSlbQ0BASF0oW09IXSlbQ0gyXVtDQEBIXTRbQ0BdNShbQ0gzXSlbQ0BASF0oQyhbQ0gzXSkoW0NIM10pW0NIMl1bQ0gyXVtDSDJdNSlbQ0gyXVtDSDJdW0NAXTM0W0NIM10=

>  <s_epik_cmdline>  (150) 
J2VwaWtfcHl0aG9uJywgJy1waHQnLCAnMi4wJywgJy1waCcsICc3LjAnLCAnLXRuJywgJzgnLCAnLW1hJywgJzIwMCcsICctaW1hZScsICc8aW5maWxlLm1hZT4nLCAnLW9tYWUnLCAnPG91dGZpbGUubWFlPic=

>  <r_epik_Ionization_Penalty>  (150) 
0.043396

>  <r_epik_Ionization_Penalty_Charging>  (150) 
0

>  <r_epik_Ionization_Penalty_Neutral>  (150) 
0.043396

>  <r_epik_State_Penalty>  (150) 
0.0367137

>  <r_epik_Charging_Adjusted_Penalty>  (150) 
0.0367137

>  <i_epik_Tot_Q>  (150) 
0

>  <i_epik_Tot_abs_Q>  (150) 
0

>  <s_lp_Force_Field>  (150) 
OPLS3e

>  <r_lp_Energy>  (150) 
105.612

>  <b_lp_Chiralities_Consistent>  (150) 
1

>  <s_lp_Variant>  (150) 
49:0-1

>  <s_i_glide_gridfile>  (150) 
pfpi4k_grid

>  <i_i_glide_lignum>  (150) 
20

>  <i_i_glide_rotatable_bonds>  (150) 
3

>  <r_i_docking_score>  (150) 
-3.68381

>  <r_i_glide_ligand_efficiency>  (150) 
-0.115119

>  <r_i_glide_ligand_efficiency_sa>  (150) 
-0.36548

>  <r_i_glide_ligand_efficiency_ln>  (150) 
-0.824906

>  <r_i_glide_gscore>  (150) 
-3.68381

>  <r_i_glide_lipo>  (150) 
-0.839304

>  <r_i_glide_hbond>  (150) 
-0.356096

>  <r_i_glide_metal>  (150) 
-0

>  <r_i_glide_rewards>  (150) 
-0.438515

>  <r_i_glide_evdw>  (150) 
-27.349

>  <r_i_glide_ecoul>  (150) 
-5.94932

>  <r_i_glide_erotb>  (150) 
0.20995

>  <r_i_glide_esite>  (150) 
0

>  <r_i_glide_emodel>  (150) 
-38.5781

>  <r_i_glide_energy>  (150) 
-33.2983

>  <r_i_glide_einternal>  (150) 
3.44202

>  <r_i_glide_intrahb_reward>  (150) 
-0

>  <i_i_glide_confnum>  (150) 
5

>  <i_i_glide_posenum>  (150) 
4

>  <r_i_glide_eff_state_penalty>  (150) 
0

>  <ligand_id>  (150) 
49

>  <original_smiles>  (150) 
CC1=CCC2(C)C(C(O)CC3C4(C)CCCC(C)(C)C4CCC32C)C1Cc1cccnc1

>  <smiles>  (150) 
[H]OC1([H])C([H])([H])C2([H])C3(C([H])([H])[H])C([H])([H])C([H])([H])C([H])([H])C(C([H])([H])[H])(C([H])([H])[H])C3([H])C([H])([H])C([H])([H])C2(C([H])([H])[H])C2(C([H])([H])[H])C([H])([H])C([H])=C(C([H])([H])[H])C([H])(C([H])([H])c3c([H])nc([H])c([H])c3[H])C12[H]

$$$$
49:0:1
     RDKit          3D

 77 81  0  0  1  0  0  0  0  0999 V2000
    2.8242    3.7484    6.2617 C   0  0  0  0  0  0  0  0  0  0  0  0
    3.2319    2.4725    5.5409 C   0  0  0  0  0  0  0  0  0  0  0  0
    4.3604    1.8259    5.8758 C   0  0  0  0  0  0  0  0  0  0  0  0
    4.8965    0.5968    5.1736 C   0  0  0  0  0  0  0  0  0  0  0  0
    3.8576   -0.1794    4.2926 C   0  0  1  0  0  0  0  0  0  0  0  0
    2.9321   -0.9016    5.3034 C   0  0  0  0  0  0  0  0  0  0  0  0
    3.0203    0.8998    3.5149 C   0  0  1  0  0  0  0  0  0  0  0  0
    2.1102    0.2636    2.4443 C   0  0  1  0  0  0  0  0  0  0  0  0
    1.4708    1.2650    1.6819 O   0  0  0  0  0  0  0  0  0  0  0  0
    2.9251   -0.5601    1.4511 C   0  0  0  0  0  0  0  0  0  0  0  0
    3.7202   -1.7293    2.0680 C   0  0  2  0  0  0  0  0  0  0  0  0
    3.0341   -3.1610    2.1257 C   0  0  1  0  0  0  0  0  0  0  0  0
    1.7365   -3.1724    2.9737 C   0  0  0  0  0  0  0  0  0  0  0  0
    2.5495   -3.6583    0.7234 C   0  0  0  0  0  0  0  0  0  0  0  0
    3.6052   -4.2510   -0.2062 C   0  0  0  0  0  0  0  0  0  0  0  0
    4.2938   -5.4165    0.4946 C   0  0  0  0  0  0  0  0  0  0  0  0
    5.0450   -4.9539    1.7596 C   0  0  0  0  0  0  0  0  0  0  0  0
    5.5924   -6.2332    2.4312 C   0  0  0  0  0  0  0  0  0  0  0  0
    6.2726   -4.1335    1.2933 C   0  0  0  0  0  0  0  0  0  0  0  0
    4.0112   -4.2374    2.7278 C   0  0  1  0  0  0  0  0  0  0  0  0
    4.5619   -3.7494    4.0827 C   0  0  0  0  0  0  0  0  0  0  0  0
    5.2870   -2.4036    4.0128 C   0  0  0  0  0  0  0  0  0  0  0  0
    4.6012   -1.2112    3.2826 C   0  0  2  0  0  0  0  0  0  0  0  0
    5.8071   -0.4760    2.6100 C   0  0  0  0  0  0  0  0  0  0  0  0
    2.3214    1.9920    4.4057 C   0  0  1  0  0  0  0  0  0  0  0  0
    0.9054    1.6322    4.9434 C   0  0  0  0  0  0  0  0  0  0  0  0
   -0.2306    2.4254    4.3160 C   0  0  0  0  0  0  0  0  0  0  0  0
   -1.1348    1.8118    3.4270 C   0  0  0  0  0  0  0  0  0  0  0  0
   -2.1817    2.5715    2.8828 C   0  0  0  0  0  0  0  0  0  0  0  0
   -2.2691    3.9316    3.2325 C   0  0  0  0  0  0  0  0  0  0  0  0
   -1.4240    4.5344    4.0954 N   0  0  0  0  0  0  0  0  0  0  0  0
   -0.4227    3.7945    4.6109 C   0  0  0  0  0  0  0  0  0  0  0  0
    2.6809    4.5620    5.5506 H   0  0  0  0  0  0  0  0  0  0  0  0
    3.5924    4.0583    6.9691 H   0  0  0  0  0  0  0  0  0  0  0  0
    1.9025    3.6097    6.8244 H   0  0  0  0  0  0  0  0  0  0  0  0
    4.9860    2.2119    6.6690 H   0  0  0  0  0  0  0  0  0  0  0  0
    5.7160    1.0132    4.5978 H   0  0  0  0  0  0  0  0  0  0  0  0
    5.3418   -0.0529    5.9207 H   0  0  0  0  0  0  0  0  0  0  0  0
    1.9983   -1.2085    4.8549 H   0  0  0  0  0  0  0  0  0  0  0  0
    2.6498   -0.2497    6.1275 H   0  0  0  0  0  0  0  0  0  0  0  0
    3.4000   -1.7634    5.7713 H   0  0  0  0  0  0  0  0  0  0  0  0
    3.7468    1.4786    2.9477 H   0  0  0  0  0  0  0  0  0  0  0  0
    1.3271   -0.3431    2.8956 H   0  0  0  0  0  0  0  0  0  0  0  0
    0.9219    0.8508    1.0292 H   0  0  0  0  0  0  0  0  0  0  0  0
    2.2797   -0.9042    0.6595 H   0  0  0  0  0  0  0  0  0  0  0  0
    3.6280    0.1147    0.9469 H   0  0  0  0  0  0  0  0  0  0  0  0
    4.4167   -1.9171    1.2626 H   0  0  0  0  0  0  0  0  0  0  0  0
    1.2246   -4.1339    2.9011 H   0  0  0  0  0  0  0  0  0  0  0  0
    1.0157   -2.4250    2.6491 H   0  0  0  0  0  0  0  0  0  0  0  0
    1.9125   -3.0598    4.0334 H   0  0  0  0  0  0  0  0  0  0  0  0
    1.8198   -4.4628    0.8600 H   0  0  0  0  0  0  0  0  0  0  0  0
    2.0130   -2.8908    0.1825 H   0  0  0  0  0  0  0  0  0  0  0  0
    3.1062   -4.6156   -1.0999 H   0  0  0  0  0  0  0  0  0  0  0  0
    4.3115   -3.4940   -0.5487 H   0  0  0  0  0  0  0  0  0  0  0  0
    3.5440   -6.1595    0.7633 H   0  0  0  0  0  0  0  0  0  0  0  0
    4.9672   -5.9178   -0.2033 H   0  0  0  0  0  0  0  0  0  0  0  0
    6.2535   -6.0103    3.2698 H   0  0  0  0  0  0  0  0  0  0  0  0
    6.1725   -6.8339    1.7278 H   0  0  0  0  0  0  0  0  0  0  0  0
    4.7893   -6.8671    2.8022 H   0  0  0  0  0  0  0  0  0  0  0  0
    6.9933   -3.9581    2.0861 H   0  0  0  0  0  0  0  0  0  0  0  0
    6.0186   -3.1777    0.8558 H   0  0  0  0  0  0  0  0  0  0  0  0
    6.8300   -4.6745    0.5238 H   0  0  0  0  0  0  0  0  0  0  0  0
    3.3602   -5.0647    3.0050 H   0  0  0  0  0  0  0  0  0  0  0  0
    3.7633   -3.7101    4.8287 H   0  0  0  0  0  0  0  0  0  0  0  0
    5.2453   -4.4848    4.4976 H   0  0  0  0  0  0  0  0  0  0  0  0
    5.5849   -2.1258    5.0140 H   0  0  0  0  0  0  0  0  0  0  0  0
    6.2080   -2.6167    3.4918 H   0  0  0  0  0  0  0  0  0  0  0  0
    6.2639   -1.0573    1.8104 H   0  0  0  0  0  0  0  0  0  0  0  0
    6.6318   -0.2883    3.2955 H   0  0  0  0  0  0  0  0  0  0  0  0
    5.5230    0.4748    2.1772 H   0  0  0  0  0  0  0  0  0  0  0  0
    2.2081    2.8659    3.7669 H   0  0  0  0  0  0  0  0  0  0  0  0
    0.6835    0.5757    4.8138 H   0  0  0  0  0  0  0  0  0  0  0  0
    0.8520    1.7881    6.0201 H   0  0  0  0  0  0  0  0  0  0  0  0
   -1.0364    0.7630    3.1655 H   0  0  0  0  0  0  0  0  0  0  0  0
   -2.8852    2.1443    2.1902 H   0  0  0  0  0  0  0  0  0  0  0  0
   -3.0522    4.5503    2.8276 H   0  0  0  0  0  0  0  0  0  0  0  0
    0.2271    4.3178    5.2935 H   0  0  0  0  0  0  0  0  0  0  0  0
  1  2  1  0
  1 33  1  0
  1 34  1  0
  1 35  1  0
  2 25  1  0
  2  3  2  0
  3  4  1  0
  3 36  1  0
  4  5  1  0
  4 37  1  0
  4 38  1  0
  5 23  1  0
  5  6  1  1
  5  7  1  0
  6 39  1  0
  6 40  1  0
  6 41  1  0
  7  8  1  0
  7 25  1  0
  7 42  1  6
  8  9  1  0
  8 10  1  0
  8 43  1  1
  9 44  1  0
 10 11  1  0
 10 45  1  0
 10 46  1  0
 11 23  1  0
 11 12  1  0
 11 47  1  6
 12 20  1  0
 12 13  1  1
 12 14  1  0
 13 48  1  0
 13 49  1  0
 13 50  1  0
 14 15  1  0
 14 51  1  0
 14 52  1  0
 15 16  1  0
 15 53  1  0
 15 54  1  0
 16 17  1  0
 16 55  1  0
 16 56  1  0
 17 18  1  0
 17 19  1  0
 17 20  1  0
 18 57  1  0
 18 58  1  0
 18 59  1  0
 19 60  1  0
 19 61  1  0
 19 62  1  0
 20 21  1  0
 20 63  1  1
 21 22  1  0
 21 64  1  0
 21 65  1  0
 22 23  1  0
 22 66  1  0
 22 67  1  0
 23 24  1  6
 24 68  1  0
 24 69  1  0
 24 70  1  0
 25 26  1  0
 25 71  1  6
 26 27  1  0
 26 72  1  0
 26 73  1  0
 27 32  1  0
 27 28  2  0
 28 29  1  0
 28 74  1  0
 29 30  2  0
 29 75  1  0
 30 31  1  0
 30 76  1  0
 31 32  2  0
 32 77  1  0
M  END
>  <i_m_ct_stereo_status>  (151) 
1

>  <s_m_source_file>  (151) 
/var/tmp/pbs.5076255.sched01/tmpxnahmhzs/434e81vi2s.sdf

>  <i_m_source_file_index>  (151) 
20

>  <i_lp_mmshare_version>  (151) 
48012

>  <i_f3d_flags>  (151) 
0

>  <s_epik_input>  (151) 
W2NIXTFuW2NIXVtjSF1bY0hdYzFbQ0gyXVtDQEBIXShDKFtDSDNdKT1bQ0hdW0NIMl0yKVtDQEBIXShbQ0BdMjNbQ0gzXSlbQ0BASF0oW09IXSlbQ0gyXVtDQEBIXTRbQ0BdNShbQ0gzXSlbQ0BASF0oQyhbQ0gzXSkoW0NIM10pW0NIMl1bQ0gyXVtDSDJdNSlbQ0gyXVtDSDJdW0NAXTM0W0NIM10=

>  <s_epik_cmdline>  (151) 
J2VwaWtfcHl0aG9uJywgJy1waHQnLCAnMi4wJywgJy1waCcsICc3LjAnLCAnLXRuJywgJzgnLCAnLW1hJywgJzIwMCcsICctaW1hZScsICc8aW5maWxlLm1hZT4nLCAnLW9tYWUnLCAnPG91dGZpbGUubWFlPic=

>  <r_epik_Ionization_Penalty>  (151) 
0.043396

>  <r_epik_Ionization_Penalty_Charging>  (151) 
0

>  <r_epik_Ionization_Penalty_Neutral>  (151) 
0.043396

>  <r_epik_State_Penalty>  (151) 
0.0367137

>  <r_epik_Charging_Adjusted_Penalty>  (151) 
0.0367137

>  <i_epik_Tot_Q>  (151) 
0

>  <i_epik_Tot_abs_Q>  (151) 
0

>  <s_lp_Force_Field>  (151) 
OPLS3e

>  <r_lp_Energy>  (151) 
105.612

>  <b_lp_Chiralities_Consistent>  (151) 
1

>  <s_lp_Variant>  (151) 
49:0-1

>  <s_i_glide_gridfile>  (151) 
pfpi4k_grid

>  <i_i_glide_lignum>  (151) 
20

>  <i_i_glide_rotatable_bonds>  (151) 
3

>  <r_i_docking_score>  (151) 
-2.23746

>  <r_i_glide_ligand_efficiency>  (151) 
-0.0699207

>  <r_i_glide_ligand_efficiency_sa>  (151) 
-0.221985

>  <r_i_glide_ligand_efficiency_ln>  (151) 
-0.501029

>  <r_i_glide_gscore>  (151) 
-2.23746

>  <r_i_glide_lipo>  (151) 
-0.406871

>  <r_i_glide_hbond>  (151) 
-0.118476

>  <r_i_glide_metal>  (151) 
-0

>  <r_i_glide_rewards>  (151) 
-0.438515

>  <r_i_glide_evdw>  (151) 
-20.1626

>  <r_i_glide_ecoul>  (151) 
-3.16949

>  <r_i_glide_erotb>  (151) 
0.20995

>  <r_i_glide_esite>  (151) 
0

>  <r_i_glide_emodel>  (151) 
-27.4103

>  <r_i_glide_energy>  (151) 
-23.3321

>  <r_i_glide_einternal>  (151) 
0.438665

>  <r_i_glide_intrahb_reward>  (151) 
-0

>  <i_i_glide_confnum>  (151) 
3

>  <i_i_glide_posenum>  (151) 
1

>  <r_i_glide_eff_state_penalty>  (151) 
0

>  <ligand_id>  (151) 
49

>  <original_smiles>  (151) 
CC1=CCC2(C)C(C(O)CC3C4(C)CCCC(C)(C)C4CCC32C)C1Cc1cccnc1

>  <smiles>  (151) 
[H]OC1([H])C([H])([H])C2([H])C3(C([H])([H])[H])C([H])([H])C([H])([H])C([H])([H])C(C([H])([H])[H])(C([H])([H])[H])C3([H])C([H])([H])C([H])([H])C2(C([H])([H])[H])C2(C([H])([H])[H])C([H])([H])C([H])=C(C([H])([H])[H])C([H])(C([H])([H])c3c([H])nc([H])c([H])c3[H])C12[H]

$$$$
49:0:2
     RDKit          3D

 77 81  0  0  1  0  0  0  0  0999 V2000
    1.0821    0.6430    8.3119 C   0  0  0  0  0  0  0  0  0  0  0  0
    1.8745    0.0595    7.1459 C   0  0  0  0  0  0  0  0  0  0  0  0
    2.9040   -0.7749    7.3694 C   0  0  0  0  0  0  0  0  0  0  0  0
    3.8159   -1.3489    6.3007 C   0  0  0  0  0  0  0  0  0  0  0  0
    3.2499   -1.2725    4.8404 C   0  0  1  0  0  0  0  0  0  0  0  0
    2.1485   -2.3615    4.7808 C   0  0  0  0  0  0  0  0  0  0  0  0
    2.5899    0.1470    4.6790 C   0  0  1  0  0  0  0  0  0  0  0  0
    2.2055    0.4442    3.2190 C   0  0  1  0  0  0  0  0  0  0  0  0
    1.7935    1.7902    3.0908 O   0  0  0  0  0  0  0  0  0  0  0  0
    3.3800    0.2904    2.2606 C   0  0  0  0  0  0  0  0  0  0  0  0
    4.0838   -1.0747    2.2487 C   0  0  2  0  0  0  0  0  0  0  0  0
    3.6119   -2.1328    1.1658 C   0  0  1  0  0  0  0  0  0  0  0  0
    2.1284   -2.5174    1.3222 C   0  0  0  0  0  0  0  0  0  0  0  0
    3.6897   -1.5752   -0.2935 C   0  0  0  0  0  0  0  0  0  0  0  0
    5.0612   -1.5660   -0.9622 C   0  0  0  0  0  0  0  0  0  0  0  0
    5.6257   -2.9824   -0.9593 C   0  0  0  0  0  0  0  0  0  0  0  0
    5.8361   -3.5066    0.4740 C   0  0  0  0  0  0  0  0  0  0  0  0
    6.2952   -4.9729    0.3579 C   0  0  0  0  0  0  0  0  0  0  0  0
    7.0123   -2.7321    1.0806 C   0  0  0  0  0  0  0  0  0  0  0  0
    4.4599   -3.4494    1.2593 C   0  0  1  0  0  0  0  0  0  0  0  0
    4.4736   -3.9703    2.7119 C   0  0  0  0  0  0  0  0  0  0  0  0
    4.9757   -2.9756    3.7647 C   0  0  0  0  0  0  0  0  0  0  0  0
    4.4245   -1.5133    3.7395 C   0  0  2  0  0  0  0  0  0  0  0  0
    5.6599   -0.6396    4.1445 C   0  0  0  0  0  0  0  0  0  0  0  0
    1.4763    0.5036    5.7375 C   0  0  1  0  0  0  0  0  0  0  0  0
    0.0187    0.0477    5.3967 C   0  0  0  0  0  0  0  0  0  0  0  0
   -0.8655    1.1396    4.8392 C   0  0  0  0  0  0  0  0  0  0  0  0
   -1.0571    1.2596    3.4502 C   0  0  0  0  0  0  0  0  0  0  0  0
   -1.8541    2.2863    2.9530 C   0  0  0  0  0  0  0  0  0  0  0  0
   -2.4965    3.1524    3.8707 C   0  0  0  0  0  0  0  0  0  0  0  0
   -2.3473    3.0419    5.2029 N   0  0  0  0  0  0  0  0  0  0  0  0
   -1.5548    2.0614    5.6734 C   0  0  0  0  0  0  0  0  0  0  0  0
    1.0820    1.7315    8.2652 H   0  0  0  0  0  0  0  0  0  0  0  0
    1.5257    0.3536    9.2628 H   0  0  0  0  0  0  0  0  0  0  0  0
    0.0504    0.2973    8.3167 H   0  0  0  0  0  0  0  0  0  0  0  0
    3.1678   -1.0383    8.3816 H   0  0  0  0  0  0  0  0  0  0  0  0
    4.7054   -0.7436    6.4504 H   0  0  0  0  0  0  0  0  0  0  0  0
    4.0640   -2.3727    6.5742 H   0  0  0  0  0  0  0  0  0  0  0  0
    1.4719   -2.2163    3.9523 H   0  0  0  0  0  0  0  0  0  0  0  0
    1.5194   -2.3458    5.6675 H   0  0  0  0  0  0  0  0  0  0  0  0
    2.5456   -3.3701    4.7386 H   0  0  0  0  0  0  0  0  0  0  0  0
    3.3786    0.8658    4.9012 H   0  0  0  0  0  0  0  0  0  0  0  0
    1.3914   -0.1989    2.8983 H   0  0  0  0  0  0  0  0  0  0  0  0
    1.3975    1.9062    2.2400 H   0  0  0  0  0  0  0  0  0  0  0  0
    3.0983    0.6258    1.2712 H   0  0  0  0  0  0  0  0  0  0  0  0
    4.1232    1.0068    2.6023 H   0  0  0  0  0  0  0  0  0  0  0  0
    5.0305   -0.7798    1.8087 H   0  0  0  0  0  0  0  0  0  0  0  0
    1.8184   -3.1554    0.4928 H   0  0  0  0  0  0  0  0  0  0  0  0
    1.4754   -1.6486    1.2955 H   0  0  0  0  0  0  0  0  0  0  0  0
    1.9207   -3.1092    2.1995 H   0  0  0  0  0  0  0  0  0  0  0  0
    3.0624   -2.1890   -0.9454 H   0  0  0  0  0  0  0  0  0  0  0  0
    3.2412   -0.5964   -0.3639 H   0  0  0  0  0  0  0  0  0  0  0  0
    4.9528   -1.2278   -1.9898 H   0  0  0  0  0  0  0  0  0  0  0  0
    5.7227   -0.8515   -0.4781 H   0  0  0  0  0  0  0  0  0  0  0  0
    4.9385   -3.6405   -1.4916 H   0  0  0  0  0  0  0  0  0  0  0  0
    6.5632   -3.0126   -1.5189 H   0  0  0  0  0  0  0  0  0  0  0  0
    6.5946   -5.3894    1.3217 H   0  0  0  0  0  0  0  0  0  0  0  0
    7.1735   -5.0298   -0.2853 H   0  0  0  0  0  0  0  0  0  0  0  0
    5.5179   -5.6098   -0.0631 H   0  0  0  0  0  0  0  0  0  0  0  0
    7.3332   -3.2581    1.9732 H   0  0  0  0  0  0  0  0  0  0  0  0
    6.8061   -1.6908    1.3123 H   0  0  0  0  0  0  0  0  0  0  0  0
    7.8720   -2.7330    0.4025 H   0  0  0  0  0  0  0  0  0  0  0  0
    3.8606   -4.1851    0.7201 H   0  0  0  0  0  0  0  0  0  0  0  0
    3.4783   -4.3064    2.9885 H   0  0  0  0  0  0  0  0  0  0  0  0
    5.0550   -4.8822    2.7837 H   0  0  0  0  0  0  0  0  0  0  0  0
    4.8703   -3.4204    4.7488 H   0  0  0  0  0  0  0  0  0  0  0  0
    6.0486   -2.9312    3.6146 H   0  0  0  0  0  0  0  0  0  0  0  0
    6.4212   -0.6362    3.3659 H   0  0  0  0  0  0  0  0  0  0  0  0
    6.1640   -1.0286    5.0275 H   0  0  0  0  0  0  0  0  0  0  0  0
    5.4151    0.4028    4.3414 H   0  0  0  0  0  0  0  0  0  0  0  0
    1.4547    1.5905    5.8012 H   0  0  0  0  0  0  0  0  0  0  0  0
    0.0020   -0.7899    4.7010 H   0  0  0  0  0  0  0  0  0  0  0  0
   -0.4828   -0.3365    6.2881 H   0  0  0  0  0  0  0  0  0  0  0  0
   -0.6116    0.5604    2.7567 H   0  0  0  0  0  0  0  0  0  0  0  0
   -2.0138    2.3894    1.9031 H   0  0  0  0  0  0  0  0  0  0  0  0
   -3.1271    3.9386    3.4915 H   0  0  0  0  0  0  0  0  0  0  0  0
   -1.4644    2.0042    6.7497 H   0  0  0  0  0  0  0  0  0  0  0  0
  1  2  1  0
  1 33  1  0
  1 34  1  0
  1 35  1  0
  2 25  1  0
  2  3  2  0
  3  4  1  0
  3 36  1  0
  4  5  1  0
  4 37  1  0
  4 38  1  0
  5 23  1  0
  5  6  1  1
  5  7  1  0
  6 39  1  0
  6 40  1  0
  6 41  1  0
  7  8  1  0
  7 25  1  0
  7 42  1  1
  8  9  1  0
  8 10  1  0
  8 43  1  6
  9 44  1  0
 10 11  1  0
 10 45  1  0
 10 46  1  0
 11 23  1  0
 11 12  1  0
 11 47  1  6
 12 20  1  0
 12 13  1  1
 12 14  1  0
 13 48  1  0
 13 49  1  0
 13 50  1  0
 14 15  1  0
 14 51  1  0
 14 52  1  0
 15 16  1  0
 15 53  1  0
 15 54  1  0
 16 17  1  0
 16 55  1  0
 16 56  1  0
 17 18  1  0
 17 19  1  0
 17 20  1  0
 18 57  1  0
 18 58  1  0
 18 59  1  0
 19 60  1  0
 19 61  1  0
 19 62  1  0
 20 21  1  0
 20 63  1  6
 21 22  1  0
 21 64  1  0
 21 65  1  0
 22 23  1  0
 22 66  1  0
 22 67  1  0
 23 24  1  1
 24 68  1  0
 24 69  1  0
 24 70  1  0
 25 26  1  0
 25 71  1  1
 26 27  1  0
 26 72  1  0
 26 73  1  0
 27 32  1  0
 27 28  2  0
 28 29  1  0
 28 74  1  0
 29 30  2  0
 29 75  1  0
 30 31  1  0
 30 76  1  0
 31 32  2  0
 32 77  1  0
M  END
>  <i_m_ct_stereo_status>  (152) 
1

>  <s_m_source_file>  (152) 
/var/tmp/pbs.5076255.sched01/tmpxnahmhzs/434e81vi2s.sdf

>  <i_m_source_file_index>  (152) 
20

>  <i_lp_mmshare_version>  (152) 
48012

>  <i_f3d_flags>  (152) 
0

>  <s_epik_input>  (152) 
W2NIXTFuW2NIXVtjSF1bY0hdYzFbQ0gyXVtDQEBIXShDKFtDSDNdKT1bQ0hdW0NIMl0yKVtDQEBIXShbQ0BdMjNbQ0gzXSlbQ0BASF0oW09IXSlbQ0gyXVtDQEBIXTRbQ0BdNShbQ0gzXSlbQ0BASF0oQyhbQ0gzXSkoW0NIM10pW0NIMl1bQ0gyXVtDSDJdNSlbQ0gyXVtDSDJdW0NAXTM0W0NIM10=

>  <s_epik_cmdline>  (152) 
J2VwaWtfcHl0aG9uJywgJy1waHQnLCAnMi4wJywgJy1waCcsICc3LjAnLCAnLXRuJywgJzgnLCAnLW1hJywgJzIwMCcsICctaW1hZScsICc8aW5maWxlLm1hZT4nLCAnLW9tYWUnLCAnPG91dGZpbGUubWFlPic=

>  <r_epik_Ionization_Penalty>  (152) 
0.043396

>  <r_epik_Ionization_Penalty_Charging>  (152) 
0

>  <r_epik_Ionization_Penalty_Neutral>  (152) 
0.043396

>  <r_epik_State_Penalty>  (152) 
0.0367137

>  <r_epik_Charging_Adjusted_Penalty>  (152) 
0.0367137

>  <i_epik_Tot_Q>  (152) 
0

>  <i_epik_Tot_abs_Q>  (152) 
0

>  <s_lp_Force_Field>  (152) 
OPLS3e

>  <r_lp_Energy>  (152) 
105.612

>  <b_lp_Chiralities_Consistent>  (152) 
1

>  <s_lp_Variant>  (152) 
49:0-1

>  <s_i_glide_gridfile>  (152) 
pfpi4k_grid

>  <i_i_glide_lignum>  (152) 
20

>  <i_i_glide_rotatable_bonds>  (152) 
3

>  <r_i_docking_score>  (152) 
-1.64182

>  <r_i_glide_ligand_efficiency>  (152) 
-0.0513069

>  <r_i_glide_ligand_efficiency_sa>  (152) 
-0.162889

>  <r_i_glide_ligand_efficiency_ln>  (152) 
-0.367648

>  <r_i_glide_gscore>  (152) 
-1.64182

>  <r_i_glide_lipo>  (152) 
-0.481173

>  <r_i_glide_hbond>  (152) 
0

>  <r_i_glide_metal>  (152) 
-0

>  <r_i_glide_rewards>  (152) 
-0.438515

>  <r_i_glide_evdw>  (152) 
-17.0931

>  <r_i_glide_ecoul>  (152) 
-0.516173

>  <r_i_glide_erotb>  (152) 
0.20995

>  <r_i_glide_esite>  (152) 
0

>  <r_i_glide_emodel>  (152) 
-19.964

>  <r_i_glide_energy>  (152) 
-17.6093

>  <r_i_glide_einternal>  (152) 
0.407447

>  <r_i_glide_intrahb_reward>  (152) 
-0

>  <i_i_glide_confnum>  (152) 
3

>  <i_i_glide_posenum>  (152) 
2

>  <r_i_glide_eff_state_penalty>  (152) 
0

>  <ligand_id>  (152) 
49

>  <original_smiles>  (152) 
CC1=CCC2(C)C(C(O)CC3C4(C)CCCC(C)(C)C4CCC32C)C1Cc1cccnc1

>  <smiles>  (152) 
[H]OC1([H])C([H])([H])C2([H])C3(C([H])([H])[H])C([H])([H])C([H])([H])C([H])([H])C(C([H])([H])[H])(C([H])([H])[H])C3([H])C([H])([H])C([H])([H])C2(C([H])([H])[H])C2(C([H])([H])[H])C([H])([H])C([H])=C(C([H])([H])[H])C([H])(C([H])([H])c3c([H])nc([H])c([H])c3[H])C12[H]

$$$$
49:1:0
     RDKit          3D

 78 82  0  0  1  0  0  0  0  0999 V2000
    5.6190   -0.5463    1.6063 C   0  0  0  0  0  0  0  0  0  0  0  0
    4.9959   -1.8105    2.1821 C   0  0  0  0  0  0  0  0  0  0  0  0
    4.8386   -1.9609    3.5087 C   0  0  0  0  0  0  0  0  0  0  0  0
    4.3351   -3.2237    4.1793 C   0  0  0  0  0  0  0  0  0  0  0  0
    3.5663   -4.2226    3.2419 C   0  0  1  0  0  0  0  0  0  0  0  0
    2.1986   -3.5458    2.9720 C   0  0  0  0  0  0  0  0  0  0  0  0
    4.3726   -4.3017    1.8953 C   0  0  1  0  0  0  0  0  0  0  0  0
    3.8401   -5.4042    0.9477 C   0  0  1  0  0  0  0  0  0  0  0  0
    4.6507   -5.5332   -0.2030 O   0  0  0  0  0  0  0  0  0  0  0  0
    3.8620   -6.7741    1.6319 C   0  0  0  0  0  0  0  0  0  0  0  0
    3.0350   -6.8705    2.9361 C   0  0  2  0  0  0  0  0  0  0  0  0
    1.5360   -7.3858    2.8201 C   0  0  1  0  0  0  0  0  0  0  0  0
    0.6540   -6.4682    1.9326 C   0  0  0  0  0  0  0  0  0  0  0  0
    1.4210   -8.7797    2.1126 C   0  0  0  0  0  0  0  0  0  0  0  0
    1.7239  -10.0058    2.9741 C   0  0  0  0  0  0  0  0  0  0  0  0
    0.8237  -10.0087    4.2010 C   0  0  0  0  0  0  0  0  0  0  0  0
    1.0856   -8.7898    5.1005 C   0  0  0  0  0  0  0  0  0  0  0  0
    0.0386   -8.8600    6.2335 C   0  0  0  0  0  0  0  0  0  0  0  0
    2.4731   -8.9834    5.7666 C   0  0  0  0  0  0  0  0  0  0  0  0
    0.8657   -7.4753    4.2399 C   0  0  1  0  0  0  0  0  0  0  0  0
    1.0189   -6.1394    4.9970 C   0  0  0  0  0  0  0  0  0  0  0  0
    2.4702   -5.6758    5.1822 C   0  0  0  0  0  0  0  0  0  0  0  0
    3.4126   -5.6840    3.9322 C   0  0  2  0  0  0  0  0  0  0  0  0
    4.7946   -6.0924    4.5488 C   0  0  0  0  0  0  0  0  0  0  0  0
    4.6361   -2.9218    1.1956 C   0  0  1  0  0  0  0  0  0  0  0  0
    3.5540   -2.4418    0.1736 C   0  0  0  0  0  0  0  0  0  0  0  0
    3.7909   -2.8075   -1.2906 C   0  0  0  0  0  0  0  0  0  0  0  0
    2.6801   -3.0357   -2.1348 C   0  0  0  0  0  0  0  0  0  0  0  0
    2.8918   -3.3984   -3.4787 C   0  0  0  0  0  0  0  0  0  0  0  0
    4.2103   -3.5658   -3.9335 C   0  0  0  0  0  0  0  0  0  0  0  0
    5.2512   -3.3240   -3.1123 N   0  0  0  0  0  0  0  0  0  0  0  0
    5.0894   -2.9322   -1.8295 C   0  0  0  0  0  0  0  0  0  0  0  0
    6.4942   -0.7799    1.0004 H   0  0  0  0  0  0  0  0  0  0  0  0
    5.9447    0.1128    2.4094 H   0  0  0  0  0  0  0  0  0  0  0  0
    4.9210    0.0204    0.9922 H   0  0  0  0  0  0  0  0  0  0  0  0
    5.1557   -1.1720    4.1774 H   0  0  0  0  0  0  0  0  0  0  0  0
    5.2578   -3.6405    4.5787 H   0  0  0  0  0  0  0  0  0  0  0  0
    3.7171   -2.9252    5.0269 H   0  0  0  0  0  0  0  0  0  0  0  0
    1.7124   -3.9578    2.1016 H   0  0  0  0  0  0  0  0  0  0  0  0
    2.3078   -2.4850    2.7557 H   0  0  0  0  0  0  0  0  0  0  0  0
    1.5164   -3.5895    3.8153 H   0  0  0  0  0  0  0  0  0  0  0  0
    5.3709   -4.6326    2.1739 H   0  0  0  0  0  0  0  0  0  0  0  0
    2.8406   -5.1587    0.6023 H   0  0  0  0  0  0  0  0  0  0  0  0
    4.1110   -5.8662   -0.9162 H   0  0  0  0  0  0  0  0  0  0  0  0
    3.5990   -7.5456    0.9159 H   0  0  0  0  0  0  0  0  0  0  0  0
    4.9046   -6.9951    1.8783 H   0  0  0  0  0  0  0  0  0  0  0  0
    3.4807   -7.7580    3.3677 H   0  0  0  0  0  0  0  0  0  0  0  0
   -0.3347   -6.9043    1.7770 H   0  0  0  0  0  0  0  0  0  0  0  0
    1.0736   -6.3180    0.9412 H   0  0  0  0  0  0  0  0  0  0  0  0
    0.4523   -5.5122    2.3909 H   0  0  0  0  0  0  0  0  0  0  0  0
    0.3959   -8.9205    1.7612 H   0  0  0  0  0  0  0  0  0  0  0  0
    2.0110   -8.8342    1.2050 H   0  0  0  0  0  0  0  0  0  0  0  0
    1.5087  -10.9099    2.4161 H   0  0  0  0  0  0  0  0  0  0  0  0
    2.7784  -10.0640    3.2310 H   0  0  0  0  0  0  0  0  0  0  0  0
   -0.2153  -10.0090    3.8729 H   0  0  0  0  0  0  0  0  0  0  0  0
    0.9532  -10.9414    4.7546 H   0  0  0  0  0  0  0  0  0  0  0  0
    0.2193   -8.1136    7.0076 H   0  0  0  0  0  0  0  0  0  0  0  0
    0.0588   -9.8348    6.7268 H   0  0  0  0  0  0  0  0  0  0  0  0
   -0.9698   -8.7237    5.8416 H   0  0  0  0  0  0  0  0  0  0  0  0
    2.6517   -8.2889    6.5857 H   0  0  0  0  0  0  0  0  0  0  0  0
    3.3051   -8.9180    5.0721 H   0  0  0  0  0  0  0  0  0  0  0  0
    2.5412   -9.9819    6.2113 H   0  0  0  0  0  0  0  0  0  0  0  0
   -0.2032   -7.5296    4.0251 H   0  0  0  0  0  0  0  0  0  0  0  0
    0.4423   -5.3626    4.5026 H   0  0  0  0  0  0  0  0  0  0  0  0
    0.5474   -6.2001    5.9722 H   0  0  0  0  0  0  0  0  0  0  0  0
    2.4542   -4.6921    5.6390 H   0  0  0  0  0  0  0  0  0  0  0  0
    2.8952   -6.2978    5.9673 H   0  0  0  0  0  0  0  0  0  0  0  0
    4.8010   -7.1238    4.8988 H   0  0  0  0  0  0  0  0  0  0  0  0
    5.0343   -5.5149    5.4415 H   0  0  0  0  0  0  0  0  0  0  0  0
    5.6260   -5.9910    3.8536 H   0  0  0  0  0  0  0  0  0  0  0  0
    5.5888   -3.0562    0.6975 H   0  0  0  0  0  0  0  0  0  0  0  0
    2.5593   -2.7774    0.4517 H   0  0  0  0  0  0  0  0  0  0  0  0
    3.4633   -1.3597    0.1788 H   0  0  0  0  0  0  0  0  0  0  0  0
    1.6709   -2.9411   -1.7637 H   0  0  0  0  0  0  0  0  0  0  0  0
    2.0448   -3.5930   -4.1286 H   0  0  0  0  0  0  0  0  0  0  0  0
    4.4693   -3.9087   -4.9240 H   0  0  0  0  0  0  0  0  0  0  0  0
    6.0138   -2.7867   -1.2942 H   0  0  0  0  0  0  0  0  0  0  0  0
    6.1981   -3.4665   -3.4625 H   0  0  0  0  0  0  0  0  0  0  0  0
  1  2  1  0
  1 33  1  0
  1 34  1  0
  1 35  1  0
  2 25  1  0
  2  3  2  0
  3  4  1  0
  3 36  1  0
  4  5  1  0
  4 37  1  0
  4 38  1  0
  5 23  1  0
  5  6  1  6
  5  7  1  0
  6 39  1  0
  6 40  1  0
  6 41  1  0
  7  8  1  0
  7 25  1  0
  7 42  1  1
  8  9  1  0
  8 10  1  0
  8 43  1  6
  9 44  1  0
 10 11  1  0
 10 45  1  0
 10 46  1  0
 11 23  1  0
 11 12  1  0
 11 47  1  1
 12 20  1  0
 12 13  1  6
 12 14  1  0
 13 48  1  0
 13 49  1  0
 13 50  1  0
 14 15  1  0
 14 51  1  0
 14 52  1  0
 15 16  1  0
 15 53  1  0
 15 54  1  0
 16 17  1  0
 16 55  1  0
 16 56  1  0
 17 18  1  0
 17 19  1  0
 17 20  1  0
 18 57  1  0
 18 58  1  0
 18 59  1  0
 19 60  1  0
 19 61  1  0
 19 62  1  0
 20 21  1  0
 20 63  1  6
 21 22  1  0
 21 64  1  0
 21 65  1  0
 22 23  1  0
 22 66  1  0
 22 67  1  0
 23 24  1  1
 24 68  1  0
 24 69  1  0
 24 70  1  0
 25 26  1  0
 25 71  1  6
 26 27  1  0
 26 72  1  0
 26 73  1  0
 27 32  1  0
 27 28  2  0
 28 29  1  0
 28 74  1  0
 29 30  2  0
 29 75  1  0
 30 31  1  0
 30 76  1  0
 31 32  2  0
 31 78  1  0
 32 77  1  0
M  CHG  1  31   1
M  END
>  <i_m_ct_stereo_status>  (153) 
1

>  <s_m_source_file>  (153) 
/var/tmp/pbs.5076255.sched01/tmpxnahmhzs/434e81vi2s.sdf

>  <i_m_source_file_index>  (153) 
21

>  <i_lp_mmshare_version>  (153) 
48012

>  <i_f3d_flags>  (153) 
0

>  <s_epik_input>  (153) 
W2NIXTFuW2NIXVtjSF1bY0hdYzFbQ0gyXVtDQEBIXShDKFtDSDNdKT1bQ0hdW0NIMl0yKVtDQEBIXShbQ0BdMjNbQ0gzXSlbQ0BASF0oW09IXSlbQ0gyXVtDQEBIXTRbQ0BdNShbQ0gzXSlbQ0BASF0oQyhbQ0gzXSkoW0NIM10pW0NIMl1bQ0gyXVtDSDJdNSlbQ0gyXVtDSDJdW0NAXTM0W0NIM10=

>  <s_epik_cmdline>  (153) 
J2VwaWtfcHl0aG9uJywgJy1waHQnLCAnMi4wJywgJy1waCcsICc3LjAnLCAnLXRuJywgJzgnLCAnLW1hJywgJzIwMCcsICctaW1hZScsICc8aW5maWxlLm1hZT4nLCAnLW9tYWUnLCAnPG91dGZpbGUubWFlPic=

>  <r_epik_Ionization_Penalty>  (153) 
1.57032

>  <r_epik_Ionization_Penalty_Charging>  (153) 
1.57032

>  <r_epik_Ionization_Penalty_Neutral>  (153) 
1.29777e-06

>  <r_epik_State_Penalty>  (153) 
1.66607

>  <r_epik_Charging_Adjusted_Penalty>  (153) 
3.23639

>  <i_epik_Tot_Q>  (153) 
1

>  <i_epik_Tot_abs_Q>  (153) 
1

>  <s_lp_Force_Field>  (153) 
OPLS3e

>  <r_lp_Energy>  (153) 
109.191

>  <b_lp_Chiralities_Consistent>  (153) 
1

>  <s_lp_Variant>  (153) 
49:0-2

>  <s_i_glide_gridfile>  (153) 
pfpi4k_grid

>  <i_i_glide_lignum>  (153) 
21

>  <i_i_glide_rotatable_bonds>  (153) 
3

>  <r_i_docking_score>  (153) 
-3.2251

>  <r_i_glide_ligand_efficiency>  (153) 
-0.100784

>  <r_i_glide_ligand_efficiency_sa>  (153) 
-0.319971

>  <r_i_glide_ligand_efficiency_ln>  (153) 
-0.722189

>  <r_i_glide_gscore>  (153) 
-3.2251

>  <r_i_glide_lipo>  (153) 
-0.639479

>  <r_i_glide_hbond>  (153) 
-0.314972

>  <r_i_glide_metal>  (153) 
-0

>  <r_i_glide_rewards>  (153) 
-0.431643

>  <r_i_glide_evdw>  (153) 
-27.2837

>  <r_i_glide_ecoul>  (153) 
-4.55931

>  <r_i_glide_erotb>  (153) 
0.209072

>  <r_i_glide_esite>  (153) 
0

>  <r_i_glide_emodel>  (153) 
-36.3528

>  <r_i_glide_energy>  (153) 
-31.843

>  <r_i_glide_einternal>  (153) 
3.27673

>  <r_i_glide_intrahb_reward>  (153) 
-0

>  <i_i_glide_confnum>  (153) 
1

>  <i_i_glide_posenum>  (153) 
19

>  <r_i_glide_eff_state_penalty>  (153) 
0

>  <ligand_id>  (153) 
49

>  <original_smiles>  (153) 
CC1=CCC2(C)C(C(O)CC3C4(C)CCCC(C)(C)C4CCC32C)C1Cc1cccnc1

>  <smiles>  (153) 
[H]OC1([H])C([H])([H])C2([H])C3(C([H])([H])[H])C([H])([H])C([H])([H])C([H])([H])C(C([H])([H])[H])(C([H])([H])[H])C3([H])C([H])([H])C([H])([H])C2(C([H])([H])[H])C2(C([H])([H])[H])C([H])([H])C([H])=C(C([H])([H])[H])C([H])(C([H])([H])c3c([H])c([H])c([H])[n+]([H])c3[H])C12[H]

$$$$
49:1:1
     RDKit          3D

 78 82  0  0  1  0  0  0  0  0999 V2000
    5.4813   -0.4749    1.7730 C   0  0  0  0  0  0  0  0  0  0  0  0
    4.8779   -1.7640    2.3167 C   0  0  0  0  0  0  0  0  0  0  0  0
    4.7399   -1.9532    3.6419 C   0  0  0  0  0  0  0  0  0  0  0  0
    4.2548   -3.2393    4.2831 C   0  0  0  0  0  0  0  0  0  0  0  0
    3.4852   -4.2205    3.3283 C   0  0  1  0  0  0  0  0  0  0  0  0
    2.1070   -3.5482    3.0948 C   0  0  0  0  0  0  0  0  0  0  0  0
    4.2797   -4.2508    1.9716 C   0  0  1  0  0  0  0  0  0  0  0  0
    3.7533   -5.3321    0.9970 C   0  0  1  0  0  0  0  0  0  0  0  0
    4.5619   -5.4252   -0.1609 O   0  0  0  0  0  0  0  0  0  0  0  0
    3.7932   -6.7191    1.6443 C   0  0  0  0  0  0  0  0  0  0  0  0
    2.9800   -6.8623    2.9545 C   0  0  2  0  0  0  0  0  0  0  0  0
    1.4867   -7.3895    2.8423 C   0  0  1  0  0  0  0  0  0  0  0  0
    0.5837   -6.4574    1.9877 C   0  0  0  0  0  0  0  0  0  0  0  0
    1.3830   -8.7644    2.0954 C   0  0  0  0  0  0  0  0  0  0  0  0
    1.7059  -10.0097    2.9199 C   0  0  0  0  0  0  0  0  0  0  0  0
    0.8180  -10.0565    4.1557 C   0  0  0  0  0  0  0  0  0  0  0  0
    1.0770   -8.8623    5.0869 C   0  0  0  0  0  0  0  0  0  0  0  0
    0.0438   -8.9770    6.2287 C   0  0  0  0  0  0  0  0  0  0  0  0
    2.4771   -9.0598    5.7288 C   0  0  0  0  0  0  0  0  0  0  0  0
    0.8337   -7.5299    4.2661 C   0  0  1  0  0  0  0  0  0  0  0  0
    0.9806   -6.2124    5.0567 C   0  0  0  0  0  0  0  0  0  0  0  0
    2.4287   -5.7341    5.2377 C   0  0  0  0  0  0  0  0  0  0  0  0
    3.3569   -5.7001    3.9793 C   0  0  2  0  0  0  0  0  0  0  0  0
    4.7507   -6.1094    4.5714 C   0  0  0  0  0  0  0  0  0  0  0  0
    4.5164   -2.8484    1.3028 C   0  0  1  0  0  0  0  0  0  0  0  0
    3.4151   -2.3507    0.3102 C   0  0  0  0  0  0  0  0  0  0  0  0
    3.6160   -2.7139   -1.1534 C   0  0  0  0  0  0  0  0  0  0  0  0
    4.8961   -2.7190   -1.7570 C   0  0  0  0  0  0  0  0  0  0  0  0
    5.0214   -3.1086   -3.0983 C   0  0  0  0  0  0  0  0  0  0  0  0
    3.8687   -3.4466   -3.8351 C   0  0  0  0  0  0  0  0  0  0  0  0
    2.6565   -3.3911   -3.2448 N   0  0  0  0  0  0  0  0  0  0  0  0
    2.4996   -3.0557   -1.9483 C   0  0  0  0  0  0  0  0  0  0  0  0
    6.3506   -0.6785    1.1480 H   0  0  0  0  0  0  0  0  0  0  0  0
    5.8169    0.1513    2.5971 H   0  0  0  0  0  0  0  0  0  0  0  0
    4.7670    0.1054    1.1914 H   0  0  0  0  0  0  0  0  0  0  0  0
    5.0509   -1.1760    4.3270 H   0  0  0  0  0  0  0  0  0  0  0  0
    5.1880   -3.6541    4.6601 H   0  0  0  0  0  0  0  0  0  0  0  0
    3.6448   -2.9682    5.1466 H   0  0  0  0  0  0  0  0  0  0  0  0
    1.6131   -3.9407    2.2197 H   0  0  0  0  0  0  0  0  0  0  0  0
    2.2041   -2.4794    2.9103 H   0  0  0  0  0  0  0  0  0  0  0  0
    1.4373   -3.6252    3.9459 H   0  0  0  0  0  0  0  0  0  0  0  0
    5.2850   -4.5758    2.2282 H   0  0  0  0  0  0  0  0  0  0  0  0
    2.7479   -5.0892    0.6701 H   0  0  0  0  0  0  0  0  0  0  0  0
    4.0386   -5.7964   -0.8664 H   0  0  0  0  0  0  0  0  0  0  0  0
    3.5318   -7.4750    0.9116 H   0  0  0  0  0  0  0  0  0  0  0  0
    4.8408   -6.9346    1.8735 H   0  0  0  0  0  0  0  0  0  0  0  0
    3.4422   -7.7542    3.3558 H   0  0  0  0  0  0  0  0  0  0  0  0
   -0.4014   -6.9019    1.8334 H   0  0  0  0  0  0  0  0  0  0  0  0
    0.9914   -6.2769    0.9957 H   0  0  0  0  0  0  0  0  0  0  0  0
    0.3764   -5.5170    2.4742 H   0  0  0  0  0  0  0  0  0  0  0  0
    0.3561   -8.9067    1.7508 H   0  0  0  0  0  0  0  0  0  0  0  0
    1.9636   -8.7858    1.1782 H   0  0  0  0  0  0  0  0  0  0  0  0
    1.4930  -10.8928    2.3296 H   0  0  0  0  0  0  0  0  0  0  0  0
    2.7643  -10.0663    3.1621 H   0  0  0  0  0  0  0  0  0  0  0  0
   -0.2233  -10.0605    3.8369 H   0  0  0  0  0  0  0  0  0  0  0  0
    0.9639  -11.0041    4.6776 H   0  0  0  0  0  0  0  0  0  0  0  0
    0.2244   -8.2491    7.0202 H   0  0  0  0  0  0  0  0  0  0  0  0
    0.0817   -9.9658    6.6943 H   0  0  0  0  0  0  0  0  0  0  0  0
   -0.9713   -8.8430    5.8541 H   0  0  0  0  0  0  0  0  0  0  0  0
    2.6564   -8.3854    6.5641 H   0  0  0  0  0  0  0  0  0  0  0  0
    3.2999   -8.9652    5.0238 H   0  0  0  0  0  0  0  0  0  0  0  0
    2.5602  -10.0691    6.1448 H   0  0  0  0  0  0  0  0  0  0  0  0
   -0.2373   -7.5882    4.0592 H   0  0  0  0  0  0  0  0  0  0  0  0
    0.3889   -5.4291    4.5914 H   0  0  0  0  0  0  0  0  0  0  0  0
    0.5191   -6.3048    6.0356 H   0  0  0  0  0  0  0  0  0  0  0  0
    2.4074   -4.7644    5.7263 H   0  0  0  0  0  0  0  0  0  0  0  0
    2.8651   -6.3738    6.0001 H   0  0  0  0  0  0  0  0  0  0  0  0
    4.7702   -7.1498    4.8918 H   0  0  0  0  0  0  0  0  0  0  0  0
    4.9925   -5.5535    5.4772 H   0  0  0  0  0  0  0  0  0  0  0  0
    5.5734   -5.9788    3.8696 H   0  0  0  0  0  0  0  0  0  0  0  0
    5.4608   -2.9631    0.7765 H   0  0  0  0  0  0  0  0  0  0  0  0
    2.4241   -2.6766    0.6115 H   0  0  0  0  0  0  0  0  0  0  0  0
    3.3379   -1.2667    0.3241 H   0  0  0  0  0  0  0  0  0  0  0  0
    5.7861   -2.4628   -1.2086 H   0  0  0  0  0  0  0  0  0  0  0  0
    6.0093   -3.1835   -3.5252 H   0  0  0  0  0  0  0  0  0  0  0  0
    3.8848   -3.7908   -4.8544 H   0  0  0  0  0  0  0  0  0  0  0  0
    1.4787   -3.0591   -1.5875 H   0  0  0  0  0  0  0  0  0  0  0  0
    1.8222   -3.6515   -3.7785 H   0  0  0  0  0  0  0  0  0  0  0  0
  1  2  1  0
  1 33  1  0
  1 34  1  0
  1 35  1  0
  2 25  1  0
  2  3  2  0
  3  4  1  0
  3 36  1  0
  4  5  1  0
  4 37  1  0
  4 38  1  0
  5 23  1  0
  5  6  1  6
  5  7  1  0
  6 39  1  0
  6 40  1  0
  6 41  1  0
  7  8  1  0
  7 25  1  0
  7 42  1  1
  8  9  1  0
  8 10  1  0
  8 43  1  6
  9 44  1  0
 10 11  1  0
 10 45  1  0
 10 46  1  0
 11 23  1  0
 11 12  1  0
 11 47  1  1
 12 20  1  0
 12 13  1  6
 12 14  1  0
 13 48  1  0
 13 49  1  0
 13 50  1  0
 14 15  1  0
 14 51  1  0
 14 52  1  0
 15 16  1  0
 15 53  1  0
 15 54  1  0
 16 17  1  0
 16 55  1  0
 16 56  1  0
 17 18  1  0
 17 19  1  0
 17 20  1  0
 18 57  1  0
 18 58  1  0
 18 59  1  0
 19 60  1  0
 19 61  1  0
 19 62  1  0
 20 21  1  0
 20 63  1  6
 21 22  1  0
 21 64  1  0
 21 65  1  0
 22 23  1  0
 22 66  1  0
 22 67  1  0
 23 24  1  1
 24 68  1  0
 24 69  1  0
 24 70  1  0
 25 26  1  0
 25 71  1  6
 26 27  1  0
 26 72  1  0
 26 73  1  0
 27 32  1  0
 27 28  2  0
 28 29  1  0
 28 74  1  0
 29 30  2  0
 29 75  1  0
 30 31  1  0
 30 76  1  0
 31 32  2  0
 31 78  1  0
 32 77  1  0
M  CHG  1  31   1
M  END
>  <i_m_ct_stereo_status>  (154) 
1

>  <s_m_source_file>  (154) 
/var/tmp/pbs.5076255.sched01/tmpxnahmhzs/434e81vi2s.sdf

>  <i_m_source_file_index>  (154) 
21

>  <i_lp_mmshare_version>  (154) 
48012

>  <i_f3d_flags>  (154) 
0

>  <s_epik_input>  (154) 
W2NIXTFuW2NIXVtjSF1bY0hdYzFbQ0gyXVtDQEBIXShDKFtDSDNdKT1bQ0hdW0NIMl0yKVtDQEBIXShbQ0BdMjNbQ0gzXSlbQ0BASF0oW09IXSlbQ0gyXVtDQEBIXTRbQ0BdNShbQ0gzXSlbQ0BASF0oQyhbQ0gzXSkoW0NIM10pW0NIMl1bQ0gyXVtDSDJdNSlbQ0gyXVtDSDJdW0NAXTM0W0NIM10=

>  <s_epik_cmdline>  (154) 
J2VwaWtfcHl0aG9uJywgJy1waHQnLCAnMi4wJywgJy1waCcsICc3LjAnLCAnLXRuJywgJzgnLCAnLW1hJywgJzIwMCcsICctaW1hZScsICc8aW5maWxlLm1hZT4nLCAnLW9tYWUnLCAnPG91dGZpbGUubWFlPic=

>  <r_epik_Ionization_Penalty>  (154) 
1.57032

>  <r_epik_Ionization_Penalty_Charging>  (154) 
1.57032

>  <r_epik_Ionization_Penalty_Neutral>  (154) 
1.29777e-06

>  <r_epik_State_Penalty>  (154) 
1.66607

>  <r_epik_Charging_Adjusted_Penalty>  (154) 
3.23639

>  <i_epik_Tot_Q>  (154) 
1

>  <i_epik_Tot_abs_Q>  (154) 
1

>  <s_lp_Force_Field>  (154) 
OPLS3e

>  <r_lp_Energy>  (154) 
109.191

>  <b_lp_Chiralities_Consistent>  (154) 
1

>  <s_lp_Variant>  (154) 
49:0-2

>  <s_i_glide_gridfile>  (154) 
pfpi4k_grid

>  <i_i_glide_lignum>  (154) 
21

>  <i_i_glide_rotatable_bonds>  (154) 
3

>  <r_i_docking_score>  (154) 
-3.05225

>  <r_i_glide_ligand_efficiency>  (154) 
-0.095383

>  <r_i_glide_ligand_efficiency_sa>  (154) 
-0.302822

>  <r_i_glide_ligand_efficiency_ln>  (154) 
-0.683483

>  <r_i_glide_gscore>  (154) 
-3.05225

>  <r_i_glide_lipo>  (154) 
-0.681242

>  <r_i_glide_hbond>  (154) 
-0.304087

>  <r_i_glide_metal>  (154) 
-0

>  <r_i_glide_rewards>  (154) 
-0.431643

>  <r_i_glide_evdw>  (154) 
-27.3939

>  <r_i_glide_ecoul>  (154) 
-3.16438

>  <r_i_glide_erotb>  (154) 
0.209072

>  <r_i_glide_esite>  (154) 
0

>  <r_i_glide_emodel>  (154) 
-35.1685

>  <r_i_glide_energy>  (154) 
-30.5583

>  <r_i_glide_einternal>  (154) 
2.41656

>  <r_i_glide_intrahb_reward>  (154) 
-0

>  <i_i_glide_confnum>  (154) 
4

>  <i_i_glide_posenum>  (154) 
7

>  <r_i_glide_eff_state_penalty>  (154) 
0

>  <ligand_id>  (154) 
49

>  <original_smiles>  (154) 
CC1=CCC2(C)C(C(O)CC3C4(C)CCCC(C)(C)C4CCC32C)C1Cc1cccnc1

>  <smiles>  (154) 
[H]OC1([H])C([H])([H])C2([H])C3(C([H])([H])[H])C([H])([H])C([H])([H])C([H])([H])C(C([H])([H])[H])(C([H])([H])[H])C3([H])C([H])([H])C([H])([H])C2(C([H])([H])[H])C2(C([H])([H])[H])C([H])([H])C([H])=C(C([H])([H])[H])C([H])(C([H])([H])c3c([H])c([H])c([H])[n+]([H])c3[H])C12[H]

$$$$
49:1:2
     RDKit          3D

 78 82  0  0  1  0  0  0  0  0999 V2000
    5.6356   -0.7130    2.4202 C   0  0  0  0  0  0  0  0  0  0  0  0
    5.0033   -2.0279    2.8572 C   0  0  0  0  0  0  0  0  0  0  0  0
    4.9766   -2.3768    4.1577 C   0  0  0  0  0  0  0  0  0  0  0  0
    4.4556   -3.6947    4.6983 C   0  0  0  0  0  0  0  0  0  0  0  0
    3.5255   -4.4928    3.7209 C   0  0  1  0  0  0  0  0  0  0  0  0
    2.1850   -3.7116    3.7146 C   0  0  0  0  0  0  0  0  0  0  0  0
    4.1852   -4.4000    2.2957 C   0  0  1  0  0  0  0  0  0  0  0  0
    3.5022   -5.3359    1.2797 C   0  0  1  0  0  0  0  0  0  0  0  0
    4.2354   -5.3472    0.0775 O   0  0  0  0  0  0  0  0  0  0  0  0
    3.4735   -6.7894    1.7487 C   0  0  0  0  0  0  0  0  0  0  0  0
    2.7839   -7.0378    3.1044 C   0  0  2  0  0  0  0  0  0  0  0  0
    1.2491   -7.4456    3.0857 C   0  0  1  0  0  0  0  0  0  0  0  0
    0.3415   -6.3577    2.4529 C   0  0  0  0  0  0  0  0  0  0  0  0
    0.9649   -8.6978    2.1914 C   0  0  0  0  0  0  0  0  0  0  0  0
    1.2705  -10.0589    2.8050 C   0  0  0  0  0  0  0  0  0  0  0  0
    0.5203  -10.2104    4.1199 C   0  0  0  0  0  0  0  0  0  0  0  0
    0.9603   -9.1666    5.1618 C   0  0  0  0  0  0  0  0  0  0  0  0
    0.0421   -9.3568    6.3894 C   0  0  0  0  0  0  0  0  0  0  0  0
    2.3951   -9.5311    5.6201 C   0  0  0  0  0  0  0  0  0  0  0  0
    0.7325   -7.7237    4.5429 C   0  0  1  0  0  0  0  0  0  0  0  0
    1.0650   -6.5357    5.4670 C   0  0  0  0  0  0  0  0  0  0  0  0
    2.5536   -6.1730    5.5443 C   0  0  0  0  0  0  0  0  0  0  0  0
    3.3500   -6.0369    4.2050 C   0  0  2  0  0  0  0  0  0  0  0  0
    4.7610   -6.6051    4.5820 C   0  0  0  0  0  0  0  0  0  0  0  0
    4.4526   -2.9424    1.7585 C   0  0  1  0  0  0  0  0  0  0  0  0
    3.2825   -2.2559    0.9886 C   0  0  0  0  0  0  0  0  0  0  0  0
    3.4938   -2.1553   -0.5237 C   0  0  0  0  0  0  0  0  0  0  0  0
    2.9515   -3.1300   -1.3857 C   0  0  0  0  0  0  0  0  0  0  0  0
    3.1722   -3.0334   -2.7726 C   0  0  0  0  0  0  0  0  0  0  0  0
    3.8608   -1.9168   -3.2771 C   0  0  0  0  0  0  0  0  0  0  0  0
    4.3230   -0.9741   -2.4289 N   0  0  0  0  0  0  0  0  0  0  0  0
    4.1801   -1.0603   -1.0834 C   0  0  0  0  0  0  0  0  0  0  0  0
    6.4197   -0.8893    1.6840 H   0  0  0  0  0  0  0  0  0  0  0  0
    6.0934   -0.1991    3.2669 H   0  0  0  0  0  0  0  0  0  0  0  0
    4.8997   -0.0358    1.9895 H   0  0  0  0  0  0  0  0  0  0  0  0
    5.4013   -1.7126    4.8992 H   0  0  0  0  0  0  0  0  0  0  0  0
    5.3855   -4.2124    4.9206 H   0  0  0  0  0  0  0  0  0  0  0  0
    3.9553   -3.4992    5.6472 H   0  0  0  0  0  0  0  0  0  0  0  0
    1.5684   -3.9525    2.8612 H   0  0  0  0  0  0  0  0  0  0  0  0
    2.3433   -2.6369    3.6464 H   0  0  0  0  0  0  0  0  0  0  0  0
    1.6053   -3.8524    4.6207 H   0  0  0  0  0  0  0  0  0  0  0  0
    5.1869   -4.8111    2.4067 H   0  0  0  0  0  0  0  0  0  0  0  0
    2.4950   -4.9989    1.0593 H   0  0  0  0  0  0  0  0  0  0  0  0
    3.7012   -5.7516   -0.5985 H   0  0  0  0  0  0  0  0  0  0  0  0
    3.0717   -7.4153    0.9608 H   0  0  0  0  0  0  0  0  0  0  0  0
    4.5132   -7.1089    1.8404 H   0  0  0  0  0  0  0  0  0  0  0  0
    3.2109   -8.0050    3.3416 H   0  0  0  0  0  0  0  0  0  0  0  0
   -0.6840   -6.7186    2.3507 H   0  0  0  0  0  0  0  0  0  0  0  0
    0.6661   -6.0834    1.4524 H   0  0  0  0  0  0  0  0  0  0  0  0
    0.2479   -5.4716    3.0634 H   0  0  0  0  0  0  0  0  0  0  0  0
   -0.0989   -8.7334    1.9439 H   0  0  0  0  0  0  0  0  0  0  0  0
    1.4494   -8.6372    1.2246 H   0  0  0  0  0  0  0  0  0  0  0  0
    0.9136  -10.8238    2.1228 H   0  0  0  0  0  0  0  0  0  0  0  0
    2.3396  -10.2183    2.9172 H   0  0  0  0  0  0  0  0  0  0  0  0
   -0.5431  -10.0997    3.9149 H   0  0  0  0  0  0  0  0  0  0  0  0
    0.6445  -11.2243    4.5065 H   0  0  0  0  0  0  0  0  0  0  0  0
    0.3654   -8.7561    7.2412 H   0  0  0  0  0  0  0  0  0  0  0  0
    0.0487  -10.3991    6.7188 H   0  0  0  0  0  0  0  0  0  0  0  0
   -0.9879   -9.0984    6.1516 H   0  0  0  0  0  0  0  0  0  0  0  0
    2.7045   -8.9835    6.5107 H   0  0  0  0  0  0  0  0  0  0  0  0
    3.1504   -9.4006    4.8486 H   0  0  0  0  0  0  0  0  0  0  0  0
    2.4376  -10.5894    5.9027 H   0  0  0  0  0  0  0  0  0  0  0  0
   -0.3552   -7.6880    4.4486 H   0  0  0  0  0  0  0  0  0  0  0  0
    0.4947   -5.6633    5.1649 H   0  0  0  0  0  0  0  0  0  0  0  0
    0.6987   -6.7238    6.4697 H   0  0  0  0  0  0  0  0  0  0  0  0
    2.6531   -5.2728    6.1415 H   0  0  0  0  0  0  0  0  0  0  0  0
    3.0189   -6.9313    6.1690 H   0  0  0  0  0  0  0  0  0  0  0  0
    4.7325   -7.6783    4.7693 H   0  0  0  0  0  0  0  0  0  0  0  0
    5.1343   -6.1869    5.5171 H   0  0  0  0  0  0  0  0  0  0  0  0
    5.5146   -6.4367    3.8141 H   0  0  0  0  0  0  0  0  0  0  0  0
    5.2803   -3.0282    1.0586 H   0  0  0  0  0  0  0  0  0  0  0  0
    2.3286   -2.7430    1.1661 H   0  0  0  0  0  0  0  0  0  0  0  0
    3.1245   -1.2427    1.3581 H   0  0  0  0  0  0  0  0  0  0  0  0
    2.3682   -3.9523   -1.0016 H   0  0  0  0  0  0  0  0  0  0  0  0
    2.7795   -3.8008   -3.4293 H   0  0  0  0  0  0  0  0  0  0  0  0
    4.0408   -1.7475   -4.3314 H   0  0  0  0  0  0  0  0  0  0  0  0
    4.5924   -0.2404   -0.5134 H   0  0  0  0  0  0  0  0  0  0  0  0
    4.7767   -0.1470   -2.8197 H   0  0  0  0  0  0  0  0  0  0  0  0
  1  2  1  0
  1 33  1  0
  1 34  1  0
  1 35  1  0
  2 25  1  0
  2  3  2  0
  3  4  1  0
  3 36  1  0
  4  5  1  0
  4 37  1  0
  4 38  1  0
  5 23  1  0
  5  6  1  6
  5  7  1  0
  6 39  1  0
  6 40  1  0
  6 41  1  0
  7  8  1  0
  7 25  1  0
  7 42  1  1
  8  9  1  0
  8 10  1  0
  8 43  1  6
  9 44  1  0
 10 11  1  0
 10 45  1  0
 10 46  1  0
 11 23  1  0
 11 12  1  0
 11 47  1  1
 12 20  1  0
 12 13  1  6
 12 14  1  0
 13 48  1  0
 13 49  1  0
 13 50  1  0
 14 15  1  0
 14 51  1  0
 14 52  1  0
 15 16  1  0
 15 53  1  0
 15 54  1  0
 16 17  1  0
 16 55  1  0
 16 56  1  0
 17 18  1  0
 17 19  1  0
 17 20  1  0
 18 57  1  0
 18 58  1  0
 18 59  1  0
 19 60  1  0
 19 61  1  0
 19 62  1  0
 20 21  1  0
 20 63  1  6
 21 22  1  0
 21 64  1  0
 21 65  1  0
 22 23  1  0
 22 66  1  0
 22 67  1  0
 23 24  1  1
 24 68  1  0
 24 69  1  0
 24 70  1  0
 25 26  1  0
 25 71  1  6
 26 27  1  0
 26 72  1  0
 26 73  1  0
 27 32  1  0
 27 28  2  0
 28 29  1  0
 28 74  1  0
 29 30  2  0
 29 75  1  0
 30 31  1  0
 30 76  1  0
 31 32  2  0
 31 78  1  0
 32 77  1  0
M  CHG  1  31   1
M  END
>  <i_m_ct_stereo_status>  (155) 
1

>  <s_m_source_file>  (155) 
/var/tmp/pbs.5076255.sched01/tmpxnahmhzs/434e81vi2s.sdf

>  <i_m_source_file_index>  (155) 
21

>  <i_lp_mmshare_version>  (155) 
48012

>  <i_f3d_flags>  (155) 
0

>  <s_epik_input>  (155) 
W2NIXTFuW2NIXVtjSF1bY0hdYzFbQ0gyXVtDQEBIXShDKFtDSDNdKT1bQ0hdW0NIMl0yKVtDQEBIXShbQ0BdMjNbQ0gzXSlbQ0BASF0oW09IXSlbQ0gyXVtDQEBIXTRbQ0BdNShbQ0gzXSlbQ0BASF0oQyhbQ0gzXSkoW0NIM10pW0NIMl1bQ0gyXVtDSDJdNSlbQ0gyXVtDSDJdW0NAXTM0W0NIM10=

>  <s_epik_cmdline>  (155) 
J2VwaWtfcHl0aG9uJywgJy1waHQnLCAnMi4wJywgJy1waCcsICc3LjAnLCAnLXRuJywgJzgnLCAnLW1hJywgJzIwMCcsICctaW1hZScsICc8aW5maWxlLm1hZT4nLCAnLW9tYWUnLCAnPG91dGZpbGUubWFlPic=

>  <r_epik_Ionization_Penalty>  (155) 
1.57032

>  <r_epik_Ionization_Penalty_Charging>  (155) 
1.57032

>  <r_epik_Ionization_Penalty_Neutral>  (155) 
1.29777e-06

>  <r_epik_State_Penalty>  (155) 
1.66607

>  <r_epik_Charging_Adjusted_Penalty>  (155) 
3.23639

>  <i_epik_Tot_Q>  (155) 
1

>  <i_epik_Tot_abs_Q>  (155) 
1

>  <s_lp_Force_Field>  (155) 
OPLS3e

>  <r_lp_Energy>  (155) 
109.191

>  <b_lp_Chiralities_Consistent>  (155) 
1

>  <s_lp_Variant>  (155) 
49:0-2

>  <s_i_glide_gridfile>  (155) 
pfpi4k_grid

>  <i_i_glide_lignum>  (155) 
21

>  <i_i_glide_rotatable_bonds>  (155) 
3

>  <r_i_docking_score>  (155) 
-3.01382

>  <r_i_glide_ligand_efficiency>  (155) 
-0.094182

>  <r_i_glide_ligand_efficiency_sa>  (155) 
-0.299009

>  <r_i_glide_ligand_efficiency_ln>  (155) 
-0.674878

>  <r_i_glide_gscore>  (155) 
-3.01382

>  <r_i_glide_lipo>  (155) 
-0.555713

>  <r_i_glide_hbond>  (155) 
-0.223936

>  <r_i_glide_metal>  (155) 
-0

>  <r_i_glide_rewards>  (155) 
-0.431643

>  <r_i_glide_evdw>  (155) 
-27.2389

>  <r_i_glide_ecoul>  (155) 
-4.22606

>  <r_i_glide_erotb>  (155) 
0.209072

>  <r_i_glide_esite>  (155) 
-0.0157494

>  <r_i_glide_emodel>  (155) 
-36.993

>  <r_i_glide_energy>  (155) 
-31.465

>  <r_i_glide_einternal>  (155) 
0.376756

>  <r_i_glide_intrahb_reward>  (155) 
-0

>  <i_i_glide_confnum>  (155) 
1

>  <i_i_glide_posenum>  (155) 
39

>  <r_i_glide_eff_state_penalty>  (155) 
0

>  <ligand_id>  (155) 
49

>  <original_smiles>  (155) 
CC1=CCC2(C)C(C(O)CC3C4(C)CCCC(C)(C)C4CCC32C)C1Cc1cccnc1

>  <smiles>  (155) 
[H]OC1([H])C([H])([H])C2([H])C3(C([H])([H])[H])C([H])([H])C([H])([H])C([H])([H])C(C([H])([H])[H])(C([H])([H])[H])C3([H])C([H])([H])C([H])([H])C2(C([H])([H])[H])C2(C([H])([H])[H])C([H])([H])C([H])=C(C([H])([H])[H])C([H])(C([H])([H])c3c([H])c([H])c([H])[n+]([H])c3[H])C12[H]

$$$$
51:0:0
     RDKit          3D

 37 39  0  0  1  0  0  0  0  0999 V2000
    5.7757   -0.3950    0.1145 C   0  0  0  0  0  0  0  0  0  0  0  0
    5.7423   -1.8780    0.5200 C   0  0  0  0  0  0  0  0  0  0  0  0
    4.6272   -2.6116   -0.1005 N   0  0  0  0  0  0  0  0  0  0  0  0
    4.2503   -2.5780   -1.4047 C   0  0  0  0  0  0  0  0  0  0  0  0
    4.8256   -1.9943   -2.3285 O   0  0  0  0  0  0  0  0  0  0  0  0
    3.1194   -3.2766   -1.5299 N   0  0  0  0  0  0  0  0  0  0  0  0
    2.2799   -3.2486   -2.7270 C   0  0  0  0  0  0  0  0  0  0  0  0
    2.8507   -3.9933   -0.4364 C   0  0  0  0  0  0  0  0  0  0  0  0
    1.9080   -4.7707   -0.2624 O   0  0  0  0  0  0  0  0  0  0  0  0
    3.9362   -3.7114    0.6011 C   0  0  1  0  0  0  0  0  0  0  0  0
    4.8282   -4.9285    0.7552 N   0  0  0  0  0  0  0  0  0  0  0  0
    5.8087   -5.1965   -0.3184 C   0  0  0  0  0  0  0  0  0  0  0  0
    4.6435   -5.8770    1.7108 C   0  0  0  0  0  0  0  0  0  0  0  0
    5.2050   -6.9738    1.7605 O   0  0  0  0  0  0  0  0  0  0  0  0
    3.7096   -5.4782    2.7423 C   0  0  0  0  0  0  0  0  0  0  0  0
    3.2647   -6.2570    3.7928 N   0  0  0  0  0  0  0  0  0  0  0  0
    2.4192   -5.4841    4.4833 C   0  0  0  0  0  0  0  0  0  0  0  0
    2.2702   -4.2609    3.9620 N   0  0  0  0  0  0  0  0  0  0  0  0
    3.1156   -4.2647    2.8526 C   0  0  0  0  0  0  0  0  0  0  0  0
    3.3554   -3.2446    1.9038 N   0  0  0  0  0  0  0  0  0  0  0  0
    2.4426   -2.1015    1.9417 C   0  0  0  0  0  0  0  0  0  0  0  0
    3.5361   -7.2183    3.9675 H   0  0  0  0  0  0  0  0  0  0  0  0
    6.6698    0.0877    0.4870 H   0  0  0  0  0  0  0  0  0  0  0  0
    4.9152    0.1608    0.4865 H   0  0  0  0  0  0  0  0  0  0  0  0
    5.8053   -0.2626   -0.9644 H   0  0  0  0  0  0  0  0  0  0  0  0
    6.6901   -2.3233    0.2172 H   0  0  0  0  0  0  0  0  0  0  0  0
    5.7031   -1.9486    1.6122 H   0  0  0  0  0  0  0  0  0  0  0  0
    1.2328   -3.3724   -2.4528 H   0  0  0  0  0  0  0  0  0  0  0  0
    2.5482   -4.0305   -3.4429 H   0  0  0  0  0  0  0  0  0  0  0  0
    2.3731   -2.2872   -3.2379 H   0  0  0  0  0  0  0  0  0  0  0  0
    6.4783   -6.0237   -0.0908 H   0  0  0  0  0  0  0  0  0  0  0  0
    6.4720   -4.3555   -0.5192 H   0  0  0  0  0  0  0  0  0  0  0  0
    5.2748   -5.4262   -1.2403 H   0  0  0  0  0  0  0  0  0  0  0  0
    1.9173   -5.8156    5.3778 H   0  0  0  0  0  0  0  0  0  0  0  0
    2.3520   -1.7226    2.9582 H   0  0  0  0  0  0  0  0  0  0  0  0
    1.4413   -2.4076    1.6362 H   0  0  0  0  0  0  0  0  0  0  0  0
    2.7545   -1.2786    1.2952 H   0  0  0  0  0  0  0  0  0  0  0  0
  1  2  1  0
  1 23  1  0
  1 24  1  0
  1 25  1  0
  2  3  1  0
  2 26  1  0
  2 27  1  0
 10  3  1  6
  3  4  1  0
  4  5  2  0
  4  6  1  0
  6  7  1  0
  6  8  1  0
  7 28  1  0
  7 29  1  0
  7 30  1  0
  8  9  2  0
  8 10  1  0
 10 20  1  0
 10 11  1  0
 11 12  1  0
 11 13  1  0
 12 31  1  0
 12 32  1  0
 12 33  1  0
 13 14  2  0
 13 15  1  0
 15 19  2  0
 15 16  1  0
 16 22  1  0
 16 17  1  0
 17 18  2  0
 17 34  1  0
 18 19  1  0
 19 20  1  0
 20 21  1  0
 21 35  1  0
 21 36  1  0
 21 37  1  0
M  END
>  <i_m_ct_stereo_status>  (156) 
1

>  <s_m_source_file>  (156) 
/var/tmp/pbs.5076255.sched01/tmpxnahmhzs/434e81vi2s.sdf

>  <i_m_source_file_index>  (156) 
23

>  <i_lp_mmshare_version>  (156) 
48012

>  <i_f3d_flags>  (156) 
0

>  <s_epik_input>  (156) 
Tz1DMU4oW0NIM10pQyg9TylOKFtDSDJdW0NIM10pW0NAXTEyTihbQ0gzXSlDKD1PKWMzYyhOMltDSDNdKW5bY0hdW25IXTM=

>  <s_epik_cmdline>  (156) 
J2VwaWtfcHl0aG9uJywgJy1waHQnLCAnMi4wJywgJy1waCcsICc3LjAnLCAnLXRuJywgJzgnLCAnLW1hJywgJzIwMCcsICctaW1hZScsICc8aW5maWxlLm1hZT4nLCAnLW9tYWUnLCAnPG91dGZpbGUubWFlPic=

>  <r_lp_tautomer_probability>  (156) 
0.945542

>  <r_epik_Ionization_Penalty>  (156) 
0.027461

>  <r_epik_Ionization_Penalty_Charging>  (156) 
7.47495e-07

>  <r_epik_Ionization_Penalty_Neutral>  (156) 
0.0274603

>  <r_epik_State_Penalty>  (156) 
0.306609

>  <r_epik_Charging_Adjusted_Penalty>  (156) 
0.306609

>  <i_epik_Tot_Q>  (156) 
0

>  <i_epik_Tot_abs_Q>  (156) 
0

>  <s_lp_Force_Field>  (156) 
OPLS3e

>  <r_lp_Energy>  (156) 
14.9666

>  <b_lp_Chiralities_Consistent>  (156) 
1

>  <s_lp_Variant>  (156) 
51:0-1

>  <s_i_glide_gridfile>  (156) 
pfpi4k_grid

>  <i_i_glide_lignum>  (156) 
23

>  <i_i_glide_rotatable_bonds>  (156) 
1

>  <r_i_docking_score>  (156) 
-3.58569

>  <r_i_glide_ligand_efficiency>  (156) 
-0.170747

>  <r_i_glide_ligand_efficiency_sa>  (156) 
-0.471079

>  <r_i_glide_ligand_efficiency_ln>  (156) 
-0.886555

>  <r_i_glide_gscore>  (156) 
-3.58569

>  <r_i_glide_lipo>  (156) 
-0.337807

>  <r_i_glide_hbond>  (156) 
-0.0252603

>  <r_i_glide_metal>  (156) 
-0

>  <r_i_glide_rewards>  (156) 
-1.69285

>  <r_i_glide_evdw>  (156) 
-18.4794

>  <r_i_glide_ecoul>  (156) 
-3.65802

>  <r_i_glide_erotb>  (156) 
0

>  <r_i_glide_esite>  (156) 
-0.0571051

>  <r_i_glide_emodel>  (156) 
-27.0341

>  <r_i_glide_energy>  (156) 
-22.1375

>  <r_i_glide_einternal>  (156) 
0.381907

>  <r_i_glide_intrahb_reward>  (156) 
-0

>  <i_i_glide_confnum>  (156) 
2

>  <i_i_glide_posenum>  (156) 
27

>  <r_i_glide_eff_state_penalty>  (156) 
0

>  <ligand_id>  (156) 
51

>  <original_smiles>  (156) 
CCN1C(=O)N(C)C(=O)C12N(C)C(=O)c1[nH]cnc1N2C

>  <smiles>  (156) 
[H]c1nc2c(n1[H])C(=O)N(C([H])([H])[H])C1(C(=O)N(C([H])([H])[H])C(=O)N1C([H])([H])C([H])([H])[H])N2C([H])([H])[H]

$$$$
51:0:1
     RDKit          3D

 37 39  0  0  1  0  0  0  0  0999 V2000
    5.7783   -0.6739    2.1177 C   0  0  0  0  0  0  0  0  0  0  0  0
    5.8779   -2.1381    1.6464 C   0  0  0  0  0  0  0  0  0  0  0  0
    4.8896   -2.4773    0.6128 N   0  0  0  0  0  0  0  0  0  0  0  0
    4.8949   -2.0408   -0.6661 C   0  0  0  0  0  0  0  0  0  0  0  0
    5.7611   -1.3279   -1.1855 O   0  0  0  0  0  0  0  0  0  0  0  0
    3.7855   -2.4919   -1.2715 N   0  0  0  0  0  0  0  0  0  0  0  0
    3.3091   -2.0271   -2.5721 C   0  0  0  0  0  0  0  0  0  0  0  0
    3.1379   -3.3866   -0.5157 C   0  0  0  0  0  0  0  0  0  0  0  0
    2.0777   -3.9626   -0.7617 O   0  0  0  0  0  0  0  0  0  0  0  0
    3.9214   -3.5725    0.7792 C   0  0  1  0  0  0  0  0  0  0  0  0
    4.6013   -4.9297    0.7740 N   0  0  0  0  0  0  0  0  0  0  0  0
    5.8093   -5.0857   -0.0690 C   0  0  0  0  0  0  0  0  0  0  0  0
    4.0596   -6.0364    1.3486 C   0  0  0  0  0  0  0  0  0  0  0  0
    4.4600   -7.1948    1.2107 O   0  0  0  0  0  0  0  0  0  0  0  0
    2.9263   -5.7479    2.2071 C   0  0  0  0  0  0  0  0  0  0  0  0
    2.1281   -6.6704    2.8546 N   0  0  0  0  0  0  0  0  0  0  0  0
    1.2181   -5.9536    3.5297 C   0  0  0  0  0  0  0  0  0  0  0  0
    1.3567   -4.6341    3.3649 N   0  0  0  0  0  0  0  0  0  0  0  0
    2.4668   -4.5107    2.5257 C   0  0  0  0  0  0  0  0  0  0  0  0
    3.0669   -3.3469    1.9924 N   0  0  0  0  0  0  0  0  0  0  0  0
    2.3020   -2.1084    2.1310 C   0  0  0  0  0  0  0  0  0  0  0  0
    2.2363   -7.6735    2.8117 H   0  0  0  0  0  0  0  0  0  0  0  0
    6.5896   -0.4464    2.8087 H   0  0  0  0  0  0  0  0  0  0  0  0
    4.8526   -0.4626    2.6499 H   0  0  0  0  0  0  0  0  0  0  0  0
    5.8479    0.0350    1.2922 H   0  0  0  0  0  0  0  0  0  0  0  0
    6.8779   -2.2977    1.2379 H   0  0  0  0  0  0  0  0  0  0  0  0
    5.7822   -2.8051    2.5088 H   0  0  0  0  0  0  0  0  0  0  0  0
    2.2176   -2.0162   -2.6056 H   0  0  0  0  0  0  0  0  0  0  0  0
    3.6692   -2.6664   -3.3828 H   0  0  0  0  0  0  0  0  0  0  0  0
    3.6416   -1.0025   -2.7580 H   0  0  0  0  0  0  0  0  0  0  0  0
    6.3084   -6.0456    0.0595 H   0  0  0  0  0  0  0  0  0  0  0  0
    6.5825   -4.3498    0.1554 H   0  0  0  0  0  0  0  0  0  0  0  0
    5.5334   -4.9812   -1.1200 H   0  0  0  0  0  0  0  0  0  0  0  0
    0.4581   -6.3980    4.1472 H   0  0  0  0  0  0  0  0  0  0  0  0
    1.9652   -1.9782    3.1592 H   0  0  0  0  0  0  0  0  0  0  0  0
    1.4122   -2.1471    1.5044 H   0  0  0  0  0  0  0  0  0  0  0  0
    2.8550   -1.2157    1.8360 H   0  0  0  0  0  0  0  0  0  0  0  0
  1  2  1  0
  1 23  1  0
  1 24  1  0
  1 25  1  0
  2  3  1  0
  2 26  1  0
  2 27  1  0
 10  3  1  6
  3  4  1  0
  4  5  2  0
  4  6  1  0
  6  7  1  0
  6  8  1  0
  7 28  1  0
  7 29  1  0
  7 30  1  0
  8  9  2  0
  8 10  1  0
 10 20  1  0
 10 11  1  0
 11 12  1  0
 11 13  1  0
 12 31  1  0
 12 32  1  0
 12 33  1  0
 13 14  2  0
 13 15  1  0
 15 19  2  0
 15 16  1  0
 16 22  1  0
 16 17  1  0
 17 18  2  0
 17 34  1  0
 18 19  1  0
 19 20  1  0
 20 21  1  0
 21 35  1  0
 21 36  1  0
 21 37  1  0
M  END
>  <i_m_ct_stereo_status>  (157) 
1

>  <s_m_source_file>  (157) 
/var/tmp/pbs.5076255.sched01/tmpxnahmhzs/434e81vi2s.sdf

>  <i_m_source_file_index>  (157) 
23

>  <i_lp_mmshare_version>  (157) 
48012

>  <i_f3d_flags>  (157) 
0

>  <s_epik_input>  (157) 
Tz1DMU4oW0NIM10pQyg9TylOKFtDSDJdW0NIM10pW0NAXTEyTihbQ0gzXSlDKD1PKWMzYyhOMltDSDNdKW5bY0hdW25IXTM=

>  <s_epik_cmdline>  (157) 
J2VwaWtfcHl0aG9uJywgJy1waHQnLCAnMi4wJywgJy1waCcsICc3LjAnLCAnLXRuJywgJzgnLCAnLW1hJywgJzIwMCcsICctaW1hZScsICc8aW5maWxlLm1hZT4nLCAnLW9tYWUnLCAnPG91dGZpbGUubWFlPic=

>  <r_lp_tautomer_probability>  (157) 
0.945542

>  <r_epik_Ionization_Penalty>  (157) 
0.027461

>  <r_epik_Ionization_Penalty_Charging>  (157) 
7.47495e-07

>  <r_epik_Ionization_Penalty_Neutral>  (157) 
0.0274603

>  <r_epik_State_Penalty>  (157) 
0.306609

>  <r_epik_Charging_Adjusted_Penalty>  (157) 
0.306609

>  <i_epik_Tot_Q>  (157) 
0

>  <i_epik_Tot_abs_Q>  (157) 
0

>  <s_lp_Force_Field>  (157) 
OPLS3e

>  <r_lp_Energy>  (157) 
14.9666

>  <b_lp_Chiralities_Consistent>  (157) 
1

>  <s_lp_Variant>  (157) 
51:0-1

>  <s_i_glide_gridfile>  (157) 
pfpi4k_grid

>  <i_i_glide_lignum>  (157) 
23

>  <i_i_glide_rotatable_bonds>  (157) 
1

>  <r_i_docking_score>  (157) 
-3.41575

>  <r_i_glide_ligand_efficiency>  (157) 
-0.162655

>  <r_i_glide_ligand_efficiency_sa>  (157) 
-0.448752

>  <r_i_glide_ligand_efficiency_ln>  (157) 
-0.844537

>  <r_i_glide_gscore>  (157) 
-3.41575

>  <r_i_glide_lipo>  (157) 
-0.222725

>  <r_i_glide_hbond>  (157) 
-0.0587803

>  <r_i_glide_metal>  (157) 
-0

>  <r_i_glide_rewards>  (157) 
-1.6774

>  <r_i_glide_evdw>  (157) 
-23.1343

>  <r_i_glide_ecoul>  (157) 
-1.4664

>  <r_i_glide_erotb>  (157) 
0

>  <r_i_glide_esite>  (157) 
-0.0801732

>  <r_i_glide_emodel>  (157) 
-29.7601

>  <r_i_glide_energy>  (157) 
-24.6007

>  <r_i_glide_einternal>  (157) 
0.156905

>  <r_i_glide_intrahb_reward>  (157) 
-0

>  <i_i_glide_confnum>  (157) 
2

>  <i_i_glide_posenum>  (157) 
39

>  <r_i_glide_eff_state_penalty>  (157) 
0

>  <ligand_id>  (157) 
51

>  <original_smiles>  (157) 
CCN1C(=O)N(C)C(=O)C12N(C)C(=O)c1[nH]cnc1N2C

>  <smiles>  (157) 
[H]c1nc2c(n1[H])C(=O)N(C([H])([H])[H])C1(C(=O)N(C([H])([H])[H])C(=O)N1C([H])([H])C([H])([H])[H])N2C([H])([H])[H]

$$$$
51:0:2
     RDKit          3D

 37 39  0  0  1  0  0  0  0  0999 V2000
    7.2813   -1.5310    0.4851 C   0  0  0  0  0  0  0  0  0  0  0  0
    5.8113   -1.0905    0.5996 C   0  0  0  0  0  0  0  0  0  0  0  0
    4.8678   -1.9966   -0.0649 N   0  0  0  0  0  0  0  0  0  0  0  0
    4.5607   -1.9748   -1.3934 C   0  0  0  0  0  0  0  0  0  0  0  0
    5.1256   -1.3166   -2.2651 O   0  0  0  0  0  0  0  0  0  0  0  0
    3.5161   -2.8163   -1.5897 N   0  0  0  0  0  0  0  0  0  0  0  0
    2.7582   -2.8825   -2.8397 C   0  0  0  0  0  0  0  0  0  0  0  0
    3.1781   -3.4932   -0.4789 C   0  0  0  0  0  0  0  0  0  0  0  0
    2.2538   -4.2904   -0.3442 O   0  0  0  0  0  0  0  0  0  0  0  0
    4.1760   -3.1179    0.6305 C   0  0  1  0  0  0  0  0  0  0  0  0
    5.1615   -4.2711    0.8187 N   0  0  0  0  0  0  0  0  0  0  0  0
    6.1540   -4.5721   -0.2396 C   0  0  0  0  0  0  0  0  0  0  0  0
    4.9721   -5.1785    1.8309 C   0  0  0  0  0  0  0  0  0  0  0  0
    5.6080   -6.2073    1.9888 O   0  0  0  0  0  0  0  0  0  0  0  0
    3.9379   -4.8267    2.7837 C   0  0  0  0  0  0  0  0  0  0  0  0
    3.4611   -5.5972    3.8202 N   0  0  0  0  0  0  0  0  0  0  0  0
    2.4974   -4.8730    4.4133 C   0  0  0  0  0  0  0  0  0  0  0  0
    2.2981   -3.6892    3.8365 N   0  0  0  0  0  0  0  0  0  0  0  0
    3.2387   -3.6535    2.7994 C   0  0  0  0  0  0  0  0  0  0  0  0
    3.4635   -2.6688    1.8499 N   0  0  0  0  0  0  0  0  0  0  0  0
    2.4363   -1.5922    1.7679 C   0  0  0  0  0  0  0  0  0  0  0  0
    3.7986   -6.5278    4.0469 H   0  0  0  0  0  0  0  0  0  0  0  0
    7.9965   -0.7967    0.8656 H   0  0  0  0  0  0  0  0  0  0  0  0
    7.5210   -1.7139   -0.5571 H   0  0  0  0  0  0  0  0  0  0  0  0
    7.3960   -2.4842    1.0003 H   0  0  0  0  0  0  0  0  0  0  0  0
    5.5548   -0.9669    1.6523 H   0  0  0  0  0  0  0  0  0  0  0  0
    5.6914   -0.0919    0.1672 H   0  0  0  0  0  0  0  0  0  0  0  0
    1.6943   -3.0820   -2.6553 H   0  0  0  0  0  0  0  0  0  0  0  0
    3.1382   -3.6733   -3.4934 H   0  0  0  0  0  0  0  0  0  0  0  0
    2.8068   -1.9308   -3.3847 H   0  0  0  0  0  0  0  0  0  0  0  0
    6.9064   -5.2861    0.1049 H   0  0  0  0  0  0  0  0  0  0  0  0
    6.7457   -3.7148   -0.5783 H   0  0  0  0  0  0  0  0  0  0  0  0
    5.6384   -4.9853   -1.1114 H   0  0  0  0  0  0  0  0  0  0  0  0
    1.9598   -5.2393    5.2887 H   0  0  0  0  0  0  0  0  0  0  0  0
    2.2290   -1.1968    2.7554 H   0  0  0  0  0  0  0  0  0  0  0  0
    1.5009   -1.9993    1.3922 H   0  0  0  0  0  0  0  0  0  0  0  0
    2.7288   -0.7623    1.1226 H   0  0  0  0  0  0  0  0  0  0  0  0
  1  2  1  0
  1 23  1  0
  1 24  1  0
  1 25  1  0
  2  3  1  0
  2 26  1  0
  2 27  1  0
 10  3  1  6
  3  4  1  0
  4  5  2  0
  4  6  1  0
  6  7  1  0
  6  8  1  0
  7 28  1  0
  7 29  1  0
  7 30  1  0
  8  9  2  0
  8 10  1  0
 10 20  1  0
 10 11  1  0
 11 12  1  0
 11 13  1  0
 12 31  1  0
 12 32  1  0
 12 33  1  0
 13 14  2  0
 13 15  1  0
 15 19  2  0
 15 16  1  0
 16 22  1  0
 16 17  1  0
 17 18  2  0
 17 34  1  0
 18 19  1  0
 19 20  1  0
 20 21  1  0
 21 35  1  0
 21 36  1  0
 21 37  1  0
M  END
>  <i_m_ct_stereo_status>  (158) 
1

>  <s_m_source_file>  (158) 
/var/tmp/pbs.5076255.sched01/tmpxnahmhzs/434e81vi2s.sdf

>  <i_m_source_file_index>  (158) 
23

>  <i_lp_mmshare_version>  (158) 
48012

>  <i_f3d_flags>  (158) 
0

>  <s_epik_input>  (158) 
Tz1DMU4oW0NIM10pQyg9TylOKFtDSDJdW0NIM10pW0NAXTEyTihbQ0gzXSlDKD1PKWMzYyhOMltDSDNdKW5bY0hdW25IXTM=

>  <s_epik_cmdline>  (158) 
J2VwaWtfcHl0aG9uJywgJy1waHQnLCAnMi4wJywgJy1waCcsICc3LjAnLCAnLXRuJywgJzgnLCAnLW1hJywgJzIwMCcsICctaW1hZScsICc8aW5maWxlLm1hZT4nLCAnLW9tYWUnLCAnPG91dGZpbGUubWFlPic=

>  <r_lp_tautomer_probability>  (158) 
0.945542

>  <r_epik_Ionization_Penalty>  (158) 
0.027461

>  <r_epik_Ionization_Penalty_Charging>  (158) 
7.47495e-07

>  <r_epik_Ionization_Penalty_Neutral>  (158) 
0.0274603

>  <r_epik_State_Penalty>  (158) 
0.306609

>  <r_epik_Charging_Adjusted_Penalty>  (158) 
0.306609

>  <i_epik_Tot_Q>  (158) 
0

>  <i_epik_Tot_abs_Q>  (158) 
0

>  <s_lp_Force_Field>  (158) 
OPLS3e

>  <r_lp_Energy>  (158) 
14.9666

>  <b_lp_Chiralities_Consistent>  (158) 
1

>  <s_lp_Variant>  (158) 
51:0-1

>  <s_i_glide_gridfile>  (158) 
pfpi4k_grid

>  <i_i_glide_lignum>  (158) 
23

>  <i_i_glide_rotatable_bonds>  (158) 
1

>  <r_i_docking_score>  (158) 
-3.2247

>  <r_i_glide_ligand_efficiency>  (158) 
-0.153557

>  <r_i_glide_ligand_efficiency_sa>  (158) 
-0.423653

>  <r_i_glide_ligand_efficiency_ln>  (158) 
-0.797301

>  <r_i_glide_gscore>  (158) 
-3.2247

>  <r_i_glide_lipo>  (158) 
-0.158714

>  <r_i_glide_hbond>  (158) 
0

>  <r_i_glide_metal>  (158) 
-0

>  <r_i_glide_rewards>  (158) 
-1.57336

>  <r_i_glide_evdw>  (158) 
-22.8633

>  <r_i_glide_ecoul>  (158) 
-1.91964

>  <r_i_glide_erotb>  (158) 
0

>  <r_i_glide_esite>  (158) 
-0.0615194

>  <r_i_glide_emodel>  (158) 
-28.1966

>  <r_i_glide_energy>  (158) 
-24.783

>  <r_i_glide_einternal>  (158) 
1.9463

>  <r_i_glide_intrahb_reward>  (158) 
-0

>  <i_i_glide_confnum>  (158) 
2

>  <i_i_glide_posenum>  (158) 
9

>  <r_i_glide_eff_state_penalty>  (158) 
0

>  <ligand_id>  (158) 
51

>  <original_smiles>  (158) 
CCN1C(=O)N(C)C(=O)C12N(C)C(=O)c1[nH]cnc1N2C

>  <smiles>  (158) 
[H]c1nc2c(n1[H])C(=O)N(C([H])([H])[H])C1(C(=O)N(C([H])([H])[H])C(=O)N1C([H])([H])C([H])([H])[H])N2C([H])([H])[H]

$$$$
51:1:0
     RDKit          3D

 37 39  0  0  1  0  0  0  0  0999 V2000
    3.6122   -2.5506    2.7574 C   0  0  0  0  0  0  0  0  0  0  0  0
    5.1030   -2.8431    2.4130 C   0  0  0  0  0  0  0  0  0  0  0  0
    5.4265   -2.6580    0.9790 N   0  0  0  0  0  0  0  0  0  0  0  0
    5.1955   -1.5073    0.3028 C   0  0  0  0  0  0  0  0  0  0  0  0
    5.0071   -0.3884    0.8120 O   0  0  0  0  0  0  0  0  0  0  0  0
    5.1334   -1.8007   -0.9980 N   0  0  0  0  0  0  0  0  0  0  0  0
    4.5725   -0.9024   -2.0143 C   0  0  0  0  0  0  0  0  0  0  0  0
    5.5064   -3.0580   -1.2686 C   0  0  0  0  0  0  0  0  0  0  0  0
    5.4925   -3.5979   -2.3724 O   0  0  0  0  0  0  0  0  0  0  0  0
    5.9279   -3.7101    0.0657 C   0  0  1  0  0  0  0  0  0  0  0  0
    7.4480   -3.8137    0.1840 N   0  0  0  0  0  0  0  0  0  0  0  0
    8.2680   -2.7307   -0.4387 C   0  0  0  0  0  0  0  0  0  0  0  0
    8.0799   -4.6859    1.0230 C   0  0  0  0  0  0  0  0  0  0  0  0
    9.2865   -4.6291    1.2948 O   0  0  0  0  0  0  0  0  0  0  0  0
    7.2057   -5.7514    1.5889 C   0  0  0  0  0  0  0  0  0  0  0  0
    7.5105   -6.7229    2.5466 N   0  0  0  0  0  0  0  0  0  0  0  0
    6.3710   -7.4155    2.6876 C   0  0  0  0  0  0  0  0  0  0  0  0
    5.3964   -6.9644    1.8862 N   0  0  0  0  0  0  0  0  0  0  0  0
    5.9039   -5.8694    1.2119 C   0  0  0  0  0  0  0  0  0  0  0  0
    5.2361   -5.0130    0.3388 N   0  0  0  0  0  0  0  0  0  0  0  0
    3.8063   -5.1992    0.1180 C   0  0  0  0  0  0  0  0  0  0  0  0
    4.4485   -7.3134    1.7983 H   0  0  0  0  0  0  0  0  0  0  0  0
    3.4374   -2.6907    3.8227 H   0  0  0  0  0  0  0  0  0  0  0  0
    2.8871   -3.1865    2.2535 H   0  0  0  0  0  0  0  0  0  0  0  0
    3.3299   -1.5278    2.5151 H   0  0  0  0  0  0  0  0  0  0  0  0
    5.7405   -2.1639    2.9816 H   0  0  0  0  0  0  0  0  0  0  0  0
    5.3723   -3.8371    2.7763 H   0  0  0  0  0  0  0  0  0  0  0  0
    4.0097   -1.4475   -2.7758 H   0  0  0  0  0  0  0  0  0  0  0  0
    5.3405   -0.2877   -2.4927 H   0  0  0  0  0  0  0  0  0  0  0  0
    3.8438   -0.2617   -1.5271 H   0  0  0  0  0  0  0  0  0  0  0  0
    9.3417   -2.8906   -0.3615 H   0  0  0  0  0  0  0  0  0  0  0  0
    8.0933   -1.7655    0.0383 H   0  0  0  0  0  0  0  0  0  0  0  0
    8.1038   -2.6395   -1.5116 H   0  0  0  0  0  0  0  0  0  0  0  0
    6.2455   -8.2401    3.3836 H   0  0  0  0  0  0  0  0  0  0  0  0
    3.5533   -6.2536    0.0173 H   0  0  0  0  0  0  0  0  0  0  0  0
    3.4373   -4.6781   -0.7642 H   0  0  0  0  0  0  0  0  0  0  0  0
    3.2516   -4.8223    0.9682 H   0  0  0  0  0  0  0  0  0  0  0  0
  1  2  1  0
  1 23  1  0
  1 24  1  0
  1 25  1  0
  2  3  1  0
  2 26  1  0
  2 27  1  0
 10  3  1  1
  3  4  1  0
  4  5  2  0
  4  6  1  0
  6  7  1  0
  6  8  1  0
  7 28  1  0
  7 29  1  0
  7 30  1  0
  8  9  2  0
  8 10  1  0
 10 11  1  0
 10 20  1  0
 11 12  1  0
 11 13  1  0
 12 31  1  0
 12 32  1  0
 12 33  1  0
 13 14  2  0
 13 15  1  0
 15 19  2  0
 15 16  1  0
 16 17  2  0
 17 34  1  0
 17 18  1  0
 18 19  1  0
 18 22  1  0
 19 20  1  0
 20 21  1  0
 21 35  1  0
 21 36  1  0
 21 37  1  0
M  END
>  <i_m_ct_stereo_status>  (159) 
1

>  <s_m_source_file>  (159) 
/var/tmp/pbs.5076255.sched01/tmpxnahmhzs/434e81vi2s.sdf

>  <i_m_source_file_index>  (159) 
24

>  <i_lp_mmshare_version>  (159) 
48012

>  <i_f3d_flags>  (159) 
0

>  <s_epik_input>  (159) 
Tz1DMU4oW0NIM10pQyg9TylOKFtDSDJdW0NIM10pW0NAXTEyTihbQ0gzXSlDKD1PKWMzYyhOMltDSDNdKW5bY0hdW25IXTM=

>  <s_epik_cmdline>  (159) 
J2VwaWtfcHl0aG9uJywgJy1waHQnLCAnMi4wJywgJy1waCcsICc3LjAnLCAnLXRuJywgJzgnLCAnLW1hJywgJzIwMCcsICctaW1hZScsICc8aW5maWxlLm1hZT4nLCAnLW9tYWUnLCAnPG91dGZpbGUubWFlPic=

>  <r_lp_tautomer_probability>  (159) 
0.0473971

>  <r_epik_Ionization_Penalty>  (159) 
0.000443918

>  <r_epik_Ionization_Penalty_Charging>  (159) 
0.000157271

>  <r_epik_Ionization_Penalty_Neutral>  (159) 
0.000286647

>  <r_epik_State_Penalty>  (159) 
0.539065

>  <r_epik_Charging_Adjusted_Penalty>  (159) 
0.539223

>  <i_epik_Tot_Q>  (159) 
0

>  <i_epik_Tot_abs_Q>  (159) 
0

>  <s_lp_Force_Field>  (159) 
OPLS3e

>  <r_lp_Energy>  (159) 
17.0719

>  <b_lp_Chiralities_Consistent>  (159) 
1

>  <s_lp_Variant>  (159) 
51:0-2

>  <s_i_glide_gridfile>  (159) 
pfpi4k_grid

>  <i_i_glide_lignum>  (159) 
24

>  <i_i_glide_rotatable_bonds>  (159) 
1

>  <r_i_docking_score>  (159) 
-3.79427

>  <r_i_glide_ligand_efficiency>  (159) 
-0.180679

>  <r_i_glide_ligand_efficiency_sa>  (159) 
-0.498481

>  <r_i_glide_ligand_efficiency_ln>  (159) 
-0.938125

>  <r_i_glide_gscore>  (159) 
-3.79427

>  <r_i_glide_lipo>  (159) 
-0.218242

>  <r_i_glide_hbond>  (159) 
-0.00152404

>  <r_i_glide_metal>  (159) 
-0

>  <r_i_glide_rewards>  (159) 
-2.26075

>  <r_i_glide_evdw>  (159) 
-26.4475

>  <r_i_glide_ecoul>  (159) 
0.248948

>  <r_i_glide_erotb>  (159) 
0

>  <r_i_glide_esite>  (159) 
-0.0287162

>  <r_i_glide_emodel>  (159) 
-31.1891

>  <r_i_glide_energy>  (159) 
-26.1985

>  <r_i_glide_einternal>  (159) 
0.0589636

>  <r_i_glide_intrahb_reward>  (159) 
-0

>  <i_i_glide_confnum>  (159) 
1

>  <i_i_glide_posenum>  (159) 
7

>  <r_i_glide_eff_state_penalty>  (159) 
0

>  <ligand_id>  (159) 
51

>  <original_smiles>  (159) 
CCN1C(=O)N(C)C(=O)C12N(C)C(=O)c1[nH]cnc1N2C

>  <smiles>  (159) 
[H]c1nc2c(n1[H])N(C([H])([H])[H])C1(C(=O)N(C([H])([H])[H])C(=O)N1C([H])([H])C([H])([H])[H])N(C([H])([H])[H])C2=O

$$$$
51:1:1
     RDKit          3D

 37 39  0  0  1  0  0  0  0  0999 V2000
    5.2390   -0.6398    0.9120 C   0  0  0  0  0  0  0  0  0  0  0  0
    4.0667   -1.2825    0.1747 C   0  0  0  0  0  0  0  0  0  0  0  0
    4.4543   -1.8216   -1.1571 N   0  0  0  0  0  0  0  0  0  0  0  0
    4.3263   -1.1379   -2.3072 C   0  0  0  0  0  0  0  0  0  0  0  0
    4.3420    0.0852   -2.4799 O   0  0  0  0  0  0  0  0  0  0  0  0
    4.1535   -1.9827   -3.2991 N   0  0  0  0  0  0  0  0  0  0  0  0
    3.7394   -1.5350   -4.6235 C   0  0  0  0  0  0  0  0  0  0  0  0
    4.4368   -3.2301   -2.9678 C   0  0  0  0  0  0  0  0  0  0  0  0
    4.5430   -4.1699   -3.7741 O   0  0  0  0  0  0  0  0  0  0  0  0
    4.7502   -3.2349   -1.4374 C   0  0  1  0  0  0  0  0  0  0  0  0
    6.2204   -3.4717   -1.1402 N   0  0  0  0  0  0  0  0  0  0  0  0
    7.1885   -2.9457   -2.1337 C   0  0  0  0  0  0  0  0  0  0  0  0
    6.7217   -3.9229    0.0437 C   0  0  0  0  0  0  0  0  0  0  0  0
    7.9250   -3.9147    0.3310 O   0  0  0  0  0  0  0  0  0  0  0  0
    5.6992   -4.4574    0.9792 C   0  0  0  0  0  0  0  0  0  0  0  0
    5.8580   -4.9135    2.2895 N   0  0  0  0  0  0  0  0  0  0  0  0
    4.6280   -5.2967    2.6472 C   0  0  0  0  0  0  0  0  0  0  0  0
    3.7273   -5.1350    1.6631 N   0  0  0  0  0  0  0  0  0  0  0  0
    4.3998   -4.5424    0.6102 C   0  0  0  0  0  0  0  0  0  0  0  0
    3.8567   -4.1051   -0.6048 N   0  0  0  0  0  0  0  0  0  0  0  0
    2.4131   -4.1417   -0.7978 C   0  0  0  0  0  0  0  0  0  0  0  0
    2.7420   -5.3677    1.6812 H   0  0  0  0  0  0  0  0  0  0  0  0
    4.9121   -0.1977    1.8571 H   0  0  0  0  0  0  0  0  0  0  0  0
    5.6872    0.1380    0.3043 H   0  0  0  0  0  0  0  0  0  0  0  0
    6.0001   -1.3822    1.1296 H   0  0  0  0  0  0  0  0  0  0  0  0
    3.5824   -2.0062    0.8306 H   0  0  0  0  0  0  0  0  0  0  0  0
    3.2810   -0.5397    0.0401 H   0  0  0  0  0  0  0  0  0  0  0  0
    3.1495   -2.3332   -5.0592 H   0  0  0  0  0  0  0  0  0  0  0  0
    4.6127   -1.3104   -5.2304 H   0  0  0  0  0  0  0  0  0  0  0  0
    3.1382   -0.6250   -4.5815 H   0  0  0  0  0  0  0  0  0  0  0  0
    8.2317   -3.1853   -1.9379 H   0  0  0  0  0  0  0  0  0  0  0  0
    7.1362   -1.8606   -2.1915 H   0  0  0  0  0  0  0  0  0  0  0  0
    6.9967   -3.3611   -3.1121 H   0  0  0  0  0  0  0  0  0  0  0  0
    4.3871   -5.6811    3.6300 H   0  0  0  0  0  0  0  0  0  0  0  0
    1.9859   -5.0631   -0.3982 H   0  0  0  0  0  0  0  0  0  0  0  0
    2.1143   -4.1095   -1.8456 H   0  0  0  0  0  0  0  0  0  0  0  0
    1.9314   -3.2932   -0.3119 H   0  0  0  0  0  0  0  0  0  0  0  0
  1  2  1  0
  1 23  1  0
  1 24  1  0
  1 25  1  0
  2  3  1  0
  2 26  1  0
  2 27  1  0
 10  3  1  1
  3  4  1  0
  4  5  2  0
  4  6  1  0
  6  7  1  0
  6  8  1  0
  7 28  1  0
  7 29  1  0
  7 30  1  0
  8  9  2  0
  8 10  1  0
 10 11  1  0
 10 20  1  0
 11 12  1  0
 11 13  1  0
 12 31  1  0
 12 32  1  0
 12 33  1  0
 13 14  2  0
 13 15  1  0
 15 19  2  0
 15 16  1  0
 16 17  2  0
 17 34  1  0
 17 18  1  0
 18 19  1  0
 18 22  1  0
 19 20  1  0
 20 21  1  0
 21 35  1  0
 21 36  1  0
 21 37  1  0
M  END
>  <i_m_ct_stereo_status>  (160) 
1

>  <s_m_source_file>  (160) 
/var/tmp/pbs.5076255.sched01/tmpxnahmhzs/434e81vi2s.sdf

>  <i_m_source_file_index>  (160) 
24

>  <i_lp_mmshare_version>  (160) 
48012

>  <i_f3d_flags>  (160) 
0

>  <s_epik_input>  (160) 
Tz1DMU4oW0NIM10pQyg9TylOKFtDSDJdW0NIM10pW0NAXTEyTihbQ0gzXSlDKD1PKWMzYyhOMltDSDNdKW5bY0hdW25IXTM=

>  <s_epik_cmdline>  (160) 
J2VwaWtfcHl0aG9uJywgJy1waHQnLCAnMi4wJywgJy1waCcsICc3LjAnLCAnLXRuJywgJzgnLCAnLW1hJywgJzIwMCcsICctaW1hZScsICc8aW5maWxlLm1hZT4nLCAnLW9tYWUnLCAnPG91dGZpbGUubWFlPic=

>  <r_lp_tautomer_probability>  (160) 
0.0473971

>  <r_epik_Ionization_Penalty>  (160) 
0.000443918

>  <r_epik_Ionization_Penalty_Charging>  (160) 
0.000157271

>  <r_epik_Ionization_Penalty_Neutral>  (160) 
0.000286647

>  <r_epik_State_Penalty>  (160) 
0.539065

>  <r_epik_Charging_Adjusted_Penalty>  (160) 
0.539223

>  <i_epik_Tot_Q>  (160) 
0

>  <i_epik_Tot_abs_Q>  (160) 
0

>  <s_lp_Force_Field>  (160) 
OPLS3e

>  <r_lp_Energy>  (160) 
17.0719

>  <b_lp_Chiralities_Consistent>  (160) 
1

>  <s_lp_Variant>  (160) 
51:0-2

>  <s_i_glide_gridfile>  (160) 
pfpi4k_grid

>  <i_i_glide_lignum>  (160) 
24

>  <i_i_glide_rotatable_bonds>  (160) 
1

>  <r_i_docking_score>  (160) 
-3.50189

>  <r_i_glide_ligand_efficiency>  (160) 
-0.166757

>  <r_i_glide_ligand_efficiency_sa>  (160) 
-0.460069

>  <r_i_glide_ligand_efficiency_ln>  (160) 
-0.865836

>  <r_i_glide_gscore>  (160) 
-3.50189

>  <r_i_glide_lipo>  (160) 
-0.252745

>  <r_i_glide_hbond>  (160) 
0

>  <r_i_glide_metal>  (160) 
-0

>  <r_i_glide_rewards>  (160) 
-2.06331

>  <r_i_glide_evdw>  (160) 
-23.2701

>  <r_i_glide_ecoul>  (160) 
0.430628

>  <r_i_glide_erotb>  (160) 
0

>  <r_i_glide_esite>  (160) 
-0.0869242

>  <r_i_glide_emodel>  (160) 
-27.0536

>  <r_i_glide_energy>  (160) 
-22.8394

>  <r_i_glide_einternal>  (160) 
0.43873

>  <r_i_glide_intrahb_reward>  (160) 
-0

>  <i_i_glide_confnum>  (160) 
1

>  <i_i_glide_posenum>  (160) 
1

>  <r_i_glide_eff_state_penalty>  (160) 
0

>  <ligand_id>  (160) 
51

>  <original_smiles>  (160) 
CCN1C(=O)N(C)C(=O)C12N(C)C(=O)c1[nH]cnc1N2C

>  <smiles>  (160) 
[H]c1nc2c(n1[H])N(C([H])([H])[H])C1(C(=O)N(C([H])([H])[H])C(=O)N1C([H])([H])C([H])([H])[H])N(C([H])([H])[H])C2=O

$$$$
51:1:2
     RDKit          3D

 37 39  0  0  1  0  0  0  0  0999 V2000
    4.9076   -0.0497    1.8734 C   0  0  0  0  0  0  0  0  0  0  0  0
    5.6467   -1.3690    1.4867 C   0  0  0  0  0  0  0  0  0  0  0  0
    4.9205   -2.2807    0.5845 N   0  0  0  0  0  0  0  0  0  0  0  0
    4.8626   -2.1490   -0.7564 C   0  0  0  0  0  0  0  0  0  0  0  0
    5.6635   -1.4830   -1.4264 O   0  0  0  0  0  0  0  0  0  0  0  0
    3.8126   -2.8202   -1.2269 N   0  0  0  0  0  0  0  0  0  0  0  0
    3.2178   -2.5974   -2.5332 C   0  0  0  0  0  0  0  0  0  0  0  0
    3.2705   -3.6009   -0.2710 C   0  0  0  0  0  0  0  0  0  0  0  0
    2.2502   -4.2768   -0.3545 O   0  0  0  0  0  0  0  0  0  0  0  0
    4.1196   -3.4605    0.9989 C   0  0  1  0  0  0  0  0  0  0  0  0
    5.0436   -4.6591    1.2118 N   0  0  0  0  0  0  0  0  0  0  0  0
    5.5710   -5.3565    0.0131 C   0  0  0  0  0  0  0  0  0  0  0  0
    5.5572   -5.0058    2.4217 C   0  0  0  0  0  0  0  0  0  0  0  0
    6.4329   -5.8644    2.5734 O   0  0  0  0  0  0  0  0  0  0  0  0
    4.9634   -4.2978    3.5716 C   0  0  0  0  0  0  0  0  0  0  0  0
    5.3762   -4.3286    4.9142 N   0  0  0  0  0  0  0  0  0  0  0  0
    4.4802   -3.5277    5.5050 C   0  0  0  0  0  0  0  0  0  0  0  0
    3.5798   -3.0171    4.6723 N   0  0  0  0  0  0  0  0  0  0  0  0
    3.8970   -3.4644    3.4085 C   0  0  0  0  0  0  0  0  0  0  0  0
    3.2972   -3.1175    2.1887 N   0  0  0  0  0  0  0  0  0  0  0  0
    2.1358   -2.1993    2.1611 C   0  0  0  0  0  0  0  0  0  0  0  0
    2.8118   -2.3897    4.9004 H   0  0  0  0  0  0  0  0  0  0  0  0
    5.6010    0.5387    2.4684 H   0  0  0  0  0  0  0  0  0  0  0  0
    4.1088   -0.1659    2.6128 H   0  0  0  0  0  0  0  0  0  0  0  0
    4.5379    0.5161    0.9990 H   0  0  0  0  0  0  0  0  0  0  0  0
    6.5744   -1.0590    0.9842 H   0  0  0  0  0  0  0  0  0  0  0  0
    5.9570   -1.8830    2.3990 H   0  0  0  0  0  0  0  0  0  0  0  0
    2.1296   -2.6793   -2.4635 H   0  0  0  0  0  0  0  0  0  0  0  0
    3.5890   -3.3237   -3.2598 H   0  0  0  0  0  0  0  0  0  0  0  0
    3.4398   -1.5797   -2.8769 H   0  0  0  0  0  0  0  0  0  0  0  0
    6.1692   -6.2410    0.2460 H   0  0  0  0  0  0  0  0  0  0  0  0
    6.2243   -4.6792   -0.5472 H   0  0  0  0  0  0  0  0  0  0  0  0
    4.7795   -5.7307   -0.6467 H   0  0  0  0  0  0  0  0  0  0  0  0
    4.5129   -3.3347    6.5740 H   0  0  0  0  0  0  0  0  0  0  0  0
    1.4879   -2.2851    3.0437 H   0  0  0  0  0  0  0  0  0  0  0  0
    1.5403   -2.2556    1.2411 H   0  0  0  0  0  0  0  0  0  0  0  0
    2.4705   -1.1706    2.1376 H   0  0  0  0  0  0  0  0  0  0  0  0
  1  2  1  0
  1 23  1  0
  1 24  1  0
  1 25  1  0
  2  3  1  0
  2 26  1  0
  2 27  1  0
 10  3  1  6
  3  4  1  0
  4  5  2  0
  4  6  1  0
  6  7  1  0
  6  8  1  0
  7 28  1  0
  7 29  1  0
  7 30  1  0
  8  9  2  0
  8 10  1  0
 10 11  1  0
 10 20  1  0
 11 12  1  0
 11 13  1  0
 12 31  1  0
 12 32  1  0
 12 33  1  0
 13 14  2  0
 13 15  1  0
 15 19  2  0
 15 16  1  0
 16 17  2  0
 17 34  1  0
 17 18  1  0
 18 19  1  0
 18 22  1  0
 19 20  1  0
 20 21  1  0
 21 35  1  0
 21 36  1  0
 21 37  1  0
M  END
>  <i_m_ct_stereo_status>  (161) 
1

>  <s_m_source_file>  (161) 
/var/tmp/pbs.5076255.sched01/tmpxnahmhzs/434e81vi2s.sdf

>  <i_m_source_file_index>  (161) 
24

>  <i_lp_mmshare_version>  (161) 
48012

>  <i_f3d_flags>  (161) 
0

>  <s_epik_input>  (161) 
Tz1DMU4oW0NIM10pQyg9TylOKFtDSDJdW0NIM10pW0NAXTEyTihbQ0gzXSlDKD1PKWMzYyhOMltDSDNdKW5bY0hdW25IXTM=

>  <s_epik_cmdline>  (161) 
J2VwaWtfcHl0aG9uJywgJy1waHQnLCAnMi4wJywgJy1waCcsICc3LjAnLCAnLXRuJywgJzgnLCAnLW1hJywgJzIwMCcsICctaW1hZScsICc8aW5maWxlLm1hZT4nLCAnLW9tYWUnLCAnPG91dGZpbGUubWFlPic=

>  <r_lp_tautomer_probability>  (161) 
0.0473971

>  <r_epik_Ionization_Penalty>  (161) 
0.000443918

>  <r_epik_Ionization_Penalty_Charging>  (161) 
0.000157271

>  <r_epik_Ionization_Penalty_Neutral>  (161) 
0.000286647

>  <r_epik_State_Penalty>  (161) 
0.539065

>  <r_epik_Charging_Adjusted_Penalty>  (161) 
0.539223

>  <i_epik_Tot_Q>  (161) 
0

>  <i_epik_Tot_abs_Q>  (161) 
0

>  <s_lp_Force_Field>  (161) 
OPLS3e

>  <r_lp_Energy>  (161) 
17.0719

>  <b_lp_Chiralities_Consistent>  (161) 
1

>  <s_lp_Variant>  (161) 
51:0-2

>  <s_i_glide_gridfile>  (161) 
pfpi4k_grid

>  <i_i_glide_lignum>  (161) 
24

>  <i_i_glide_rotatable_bonds>  (161) 
1

>  <r_i_docking_score>  (161) 
-3.34393

>  <r_i_glide_ligand_efficiency>  (161) 
-0.159235

>  <r_i_glide_ligand_efficiency_sa>  (161) 
-0.439317

>  <r_i_glide_ligand_efficiency_ln>  (161) 
-0.82678

>  <r_i_glide_gscore>  (161) 
-3.34393

>  <r_i_glide_lipo>  (161) 
-0.317684

>  <r_i_glide_hbond>  (161) 
-0.0378847

>  <r_i_glide_metal>  (161) 
-0

>  <r_i_glide_rewards>  (161) 
-1.55104

>  <r_i_glide_evdw>  (161) 
-20.5599

>  <r_i_glide_ecoul>  (161) 
-2.47458

>  <r_i_glide_erotb>  (161) 
0

>  <r_i_glide_esite>  (161) 
-0.0381358

>  <r_i_glide_emodel>  (161) 
-25.7618

>  <r_i_glide_energy>  (161) 
-23.0345

>  <r_i_glide_einternal>  (161) 
0.463597

>  <r_i_glide_intrahb_reward>  (161) 
-0

>  <i_i_glide_confnum>  (161) 
1

>  <i_i_glide_posenum>  (161) 
22

>  <r_i_glide_eff_state_penalty>  (161) 
0

>  <ligand_id>  (161) 
51

>  <original_smiles>  (161) 
CCN1C(=O)N(C)C(=O)C12N(C)C(=O)c1[nH]cnc1N2C

>  <smiles>  (161) 
[H]c1nc2c(n1[H])N(C([H])([H])[H])C1(C(=O)N(C([H])([H])[H])C(=O)N1C([H])([H])C([H])([H])[H])N(C([H])([H])[H])C2=O

$$$$
52:0:0
     RDKit          3D

 61 66  0  0  1  0  0  0  0  0999 V2000
    3.3994   -0.7808    1.2838 C   0  0  0  0  0  0  0  0  0  0  0  0
    2.8812   -0.5732    2.7370 C   0  0  0  0  0  0  0  0  0  0  0  0
    1.6130   -1.4583    2.8409 C   0  0  0  0  0  0  0  0  0  0  0  0
    3.9291   -1.1665    3.7117 C   0  0  1  0  0  0  0  0  0  0  0  0
    5.2452   -0.7700    3.3707 O   0  0  0  0  0  0  0  0  0  0  0  0
    3.6302   -0.8004    5.1704 C   0  0  0  0  0  0  0  0  0  0  0  0
    3.5998    0.7157    5.4204 C   0  0  1  0  0  0  0  0  0  0  0  0
    4.9211    1.2170    5.3471 O   0  0  0  0  0  0  0  0  0  0  0  0
    2.6098    1.5232    4.5098 C   0  0  1  0  0  0  0  0  0  0  0  0
    3.0681    3.0166    4.4790 C   0  0  0  0  0  0  0  0  0  0  0  0
    2.6892    0.9785    3.0215 C   0  0  2  0  0  0  0  0  0  0  0  0
    1.6811    1.7162    2.1051 C   0  0  0  0  0  0  0  0  0  0  0  0
    0.2143    1.7496    2.5584 C   0  0  1  0  0  0  0  0  0  0  0  0
   -0.4683    0.6197    2.0797 O   0  0  0  0  0  0  0  0  0  0  0  0
    0.0123    2.0482    4.0845 C   0  0  2  0  0  0  0  0  0  0  0  0
   -0.3493    3.5703    4.3724 C   0  0  2  0  0  0  0  0  0  0  0  0
   -0.6908    3.6208    5.8854 C   0  0  0  0  0  0  0  0  0  0  0  0
   -0.8202    2.1320    6.1383 C   0  0  1  0  0  0  0  0  0  0  0  0
   -0.5064    1.1857    7.2563 C   0  0  0  0  0  0  0  0  0  0  0  0
    0.6501    1.7253    6.4608 C   0  0  2  0  0  0  0  0  0  0  0  0
    1.5922    2.5007    7.3962 C   0  0  0  0  0  0  0  0  0  0  0  0
    1.1159    1.4009    5.0093 C   0  0  2  0  0  0  0  0  0  0  0  0
   -1.2945    1.5964    4.7659 C   0  0  2  0  0  0  0  0  0  0  0  0
   -1.7014    0.0927    4.7779 C   0  0  0  0  0  0  0  0  0  0  0  0
   -2.4339    2.4246    4.0967 C   0  0  0  0  0  0  0  0  0  0  0  0
   -1.7181    3.6969    3.7561 C   0  0  0  0  0  0  0  0  0  0  0  0
   -2.1828    4.6658    3.1670 O   0  0  0  0  0  0  0  0  0  0  0  0
    3.7073   -1.8144    1.1152 H   0  0  0  0  0  0  0  0  0  0  0  0
    4.2525   -0.1385    1.0520 H   0  0  0  0  0  0  0  0  0  0  0  0
    2.6300   -0.5642    0.5398 H   0  0  0  0  0  0  0  0  0  0  0  0
    1.0457   -1.3130    3.7553 H   0  0  0  0  0  0  0  0  0  0  0  0
    1.8710   -2.5183    2.8031 H   0  0  0  0  0  0  0  0  0  0  0  0
    0.9493   -1.3149    1.9913 H   0  0  0  0  0  0  0  0  0  0  0  0
    3.9190   -2.2557    3.6327 H   0  0  0  0  0  0  0  0  0  0  0  0
    5.4503   -1.1439    2.5260 H   0  0  0  0  0  0  0  0  0  0  0  0
    2.6662   -1.2216    5.4465 H   0  0  0  0  0  0  0  0  0  0  0  0
    4.3529   -1.2783    5.8319 H   0  0  0  0  0  0  0  0  0  0  0  0
    3.3254    0.8221    6.4577 H   0  0  0  0  0  0  0  0  0  0  0  0
    5.2500    1.0065    4.4806 H   0  0  0  0  0  0  0  0  0  0  0  0
    2.2937    3.6986    4.1437 H   0  0  0  0  0  0  0  0  0  0  0  0
    3.8929    3.1579    3.7847 H   0  0  0  0  0  0  0  0  0  0  0  0
    3.4569    3.3751    5.4281 H   0  0  0  0  0  0  0  0  0  0  0  0
    3.6478    1.3474    2.6683 H   0  0  0  0  0  0  0  0  0  0  0  0
    2.0051    2.7539    2.0282 H   0  0  0  0  0  0  0  0  0  0  0  0
    1.7363    1.3350    1.0906 H   0  0  0  0  0  0  0  0  0  0  0  0
   -0.2439    2.5342    1.9768 H   0  0  0  0  0  0  0  0  0  0  0  0
   -0.4665    0.6548    1.1267 H   0  0  0  0  0  0  0  0  0  0  0  0
    0.3304    4.3409    4.0131 H   0  0  0  0  0  0  0  0  0  0  0  0
    0.0757    4.1379    6.4568 H   0  0  0  0  0  0  0  0  0  0  0  0
   -1.6356    4.1062    6.1364 H   0  0  0  0  0  0  0  0  0  0  0  0
   -0.6768    1.5506    8.2665 H   0  0  0  0  0  0  0  0  0  0  0  0
   -0.6890    0.1200    7.1533 H   0  0  0  0  0  0  0  0  0  0  0  0
    2.3155    1.8563    7.8848 H   0  0  0  0  0  0  0  0  0  0  0  0
    1.0213    2.9560    8.2088 H   0  0  0  0  0  0  0  0  0  0  0  0
    2.0803    3.3294    6.9034 H   0  0  0  0  0  0  0  0  0  0  0  0
    0.9718    0.3344    4.9686 H   0  0  0  0  0  0  0  0  0  0  0  0
   -2.5115   -0.0768    5.4932 H   0  0  0  0  0  0  0  0  0  0  0  0
   -0.8932   -0.6012    5.0188 H   0  0  0  0  0  0  0  0  0  0  0  0
   -2.0932   -0.2105    3.8070 H   0  0  0  0  0  0  0  0  0  0  0  0
   -2.7724    1.9734    3.1708 H   0  0  0  0  0  0  0  0  0  0  0  0
   -3.2826    2.6013    4.7523 H   0  0  0  0  0  0  0  0  0  0  0  0
  1  2  1  0
  1 28  1  0
  1 29  1  0
  1 30  1  0
  2 11  1  0
  2  3  1  0
  2  4  1  0
  3 31  1  0
  3 32  1  0
  3 33  1  0
  4  5  1  0
  4  6  1  0
  4 34  1  1
  5 35  1  0
  6  7  1  0
  6 36  1  0
  6 37  1  0
  7  8  1  0
  7  9  1  0
  7 38  1  1
  8 39  1  0
  9 22  1  0
  9 10  1  6
  9 11  1  0
 10 40  1  0
 10 41  1  0
 10 42  1  0
 11 12  1  0
 11 43  1  6
 12 13  1  0
 12 44  1  0
 12 45  1  0
 13 14  1  0
 13 15  1  0
 13 46  1  6
 14 47  1  0
 15 22  1  0
 15 23  1  1
 15 16  1  0
 16 26  1  0
 16 17  1  0
 16 48  1  6
 18 17  1  1
 17 49  1  0
 17 50  1  0
 18 20  1  0
 18 19  1  0
 18 23  1  0
 19 20  1  0
 19 51  1  0
 19 52  1  0
 20 21  1  1
 20 22  1  0
 21 53  1  0
 21 54  1  0
 21 55  1  0
 22 56  1  1
 23 24  1  1
 23 25  1  0
 24 57  1  0
 24 58  1  0
 24 59  1  0
 25 26  1  0
 25 60  1  0
 25 61  1  0
 26 27  2  0
M  END
>  <i_m_ct_stereo_status>  (162) 
1

>  <s_m_source_file>  (162) 
/var/tmp/pbs.5076255.sched01/tmpxnahmhzs/434e81vi2s.sdf

>  <i_m_source_file_index>  (162) 
25

>  <i_lp_mmshare_version>  (162) 
48012

>  <i_f3d_flags>  (162) 
0

>  <s_epik_input>  (162) 
W09IXVtDQEBIXTFbQ0gyXVtDQEhdKFtPSF0pQyhbQ0gzXSkoW0NIM10pW0NAQEhdKFtDSDJdW0NIXTJbT0hdKVtDQEBdMShbQ0gzXSlbQ0BIXTNbQ0BAXShbQ0gyXTQpKFtDSDNdKVtDQEBdNChbQ0gyXVtDQEhdNVtDQEBdMjM2KVtDQEBdNihbQ0gzXSlbQ0gyXUM1PU8=

>  <s_epik_cmdline>  (162) 
J2VwaWtfcHl0aG9uJywgJy1waHQnLCAnMi4wJywgJy1waCcsICc3LjAnLCAnLXRuJywgJzgnLCAnLW1hJywgJzIwMCcsICctaW1hZScsICc8aW5maWxlLm1hZT4nLCAnLW9tYWUnLCAnPG91dGZpbGUubWFlPic=

>  <r_lp_tautomer_probability>  (162) 
1

>  <r_epik_Ionization_Penalty>  (162) 
2.59835e-06

>  <r_epik_Ionization_Penalty_Charging>  (162) 
0

>  <r_epik_Ionization_Penalty_Neutral>  (162) 
2.59835e-06

>  <r_epik_State_Penalty>  (162) 
-0

>  <r_epik_Charging_Adjusted_Penalty>  (162) 
0

>  <i_epik_Tot_Q>  (162) 
0

>  <i_epik_Tot_abs_Q>  (162) 
0

>  <s_lp_Force_Field>  (162) 
OPLS3e

>  <r_lp_Energy>  (162) 
123.237

>  <b_lp_Chiralities_Consistent>  (162) 
1

>  <s_lp_Variant>  (162) 
52:0-1

>  <s_i_glide_gridfile>  (162) 
pfpi4k_grid

>  <i_i_glide_lignum>  (162) 
25

>  <i_i_glide_rotatable_bonds>  (162) 
3

>  <r_i_docking_score>  (162) 
-3.75488

>  <r_i_glide_ligand_efficiency>  (162) 
-0.13907

>  <r_i_glide_ligand_efficiency_sa>  (162) 
-0.417209

>  <r_i_glide_ligand_efficiency_ln>  (162) 
-0.874074

>  <r_i_glide_gscore>  (162) 
-3.75488

>  <r_i_glide_lipo>  (162) 
-0.0033708

>  <r_i_glide_hbond>  (162) 
-0.320719

>  <r_i_glide_metal>  (162) 
-0

>  <r_i_glide_rewards>  (162) 
-1.35559

>  <r_i_glide_evdw>  (162) 
-23.8497

>  <r_i_glide_ecoul>  (162) 
-5.42816

>  <r_i_glide_erotb>  (162) 
0

>  <r_i_glide_esite>  (162) 
-0.0684921

>  <r_i_glide_emodel>  (162) 
-41.632

>  <r_i_glide_energy>  (162) 
-29.2779

>  <r_i_glide_einternal>  (162) 
0.701484

>  <r_i_glide_intrahb_reward>  (162) 
-0.5

>  <i_i_glide_confnum>  (162) 
2

>  <i_i_glide_posenum>  (162) 
1

>  <r_i_glide_eff_state_penalty>  (162) 
0

>  <ligand_id>  (162) 
52

>  <original_smiles>  (162) 
CC1(C)C(O)CC(O)C2(C)C1CC(O)C13C4CC5(CC5(C)C21)C3(C)CC4=O

>  <smiles>  (162) 
[H]OC1([H])C([H])([H])C([H])(O[H])C2(C([H])([H])[H])C([H])(C([H])([H])C([H])(O[H])C34C5([H])C(=O)C([H])([H])C3(C([H])([H])[H])C3(C5([H])[H])C([H])([H])C3(C([H])([H])[H])C24[H])C1(C([H])([H])[H])C([H])([H])[H]

$$$$
52:0:1
     RDKit          3D

 61 66  0  0  1  0  0  0  0  0999 V2000
   -1.8219    3.8444    3.3520 C   0  0  0  0  0  0  0  0  0  0  0  0
   -0.9591    3.0508    4.3662 C   0  0  0  0  0  0  0  0  0  0  0  0
    0.4558    3.6765    4.2740 C   0  0  0  0  0  0  0  0  0  0  0  0
   -1.4935    3.3506    5.7899 C   0  0  1  0  0  0  0  0  0  0  0  0
   -2.9057    3.2431    5.8470 O   0  0  0  0  0  0  0  0  0  0  0  0
   -0.8663    2.4422    6.8449 C   0  0  0  0  0  0  0  0  0  0  0  0
   -1.1201    0.9563    6.5810 C   0  0  1  0  0  0  0  0  0  0  0  0
   -2.4825    0.6974    6.8514 O   0  0  0  0  0  0  0  0  0  0  0  0
   -0.6862    0.4319    5.1657 C   0  0  1  0  0  0  0  0  0  0  0  0
   -1.4883   -0.8678    4.8535 C   0  0  0  0  0  0  0  0  0  0  0  0
   -1.0656    1.4954    4.0524 C   0  0  2  0  0  0  0  0  0  0  0  0
   -0.5712    1.0467    2.6507 C   0  0  0  0  0  0  0  0  0  0  0  0
    0.9083    0.6572    2.5072 C   0  0  1  0  0  0  0  0  0  0  0  0
    1.6826    1.7950    2.2441 O   0  0  0  0  0  0  0  0  0  0  0  0
    1.4739   -0.2081    3.6878 C   0  0  2  0  0  0  0  0  0  0  0  0
    1.5455   -1.7524    3.3360 C   0  0  2  0  0  0  0  0  0  0  0  0
    2.2798   -2.4080    4.5328 C   0  0  0  0  0  0  0  0  0  0  0  0
    2.8237   -1.1456    5.1745 C   0  0  1  0  0  0  0  0  0  0  0  0
    3.0867   -0.6570    6.5707 C   0  0  0  0  0  0  0  0  0  0  0  0
    1.6523   -0.7163    6.1115 C   0  0  2  0  0  0  0  0  0  0  0  0
    0.8721   -1.6726    7.0246 C   0  0  0  0  0  0  0  0  0  0  0  0
    0.8747    0.1756    5.1024 C   0  0  2  0  0  0  0  0  0  0  0  0
    2.9933   -0.1928    3.9682 C   0  0  2  0  0  0  0  0  0  0  0  0
    3.7193    1.1362    4.3027 C   0  0  0  0  0  0  0  0  0  0  0  0
    3.6780   -0.8255    2.7156 C   0  0  0  0  0  0  0  0  0  0  0  0
    2.6168   -1.7924    2.2657 C   0  0  0  0  0  0  0  0  0  0  0  0
    2.6381   -2.5088    1.2696 O   0  0  0  0  0  0  0  0  0  0  0  0
   -1.8883    4.8970    3.6249 H   0  0  0  0  0  0  0  0  0  0  0  0
   -2.8295    3.4496    3.2409 H   0  0  0  0  0  0  0  0  0  0  0  0
   -1.3892    3.8197    2.3539 H   0  0  0  0  0  0  0  0  0  0  0  0
    1.2168    3.1389    4.8267 H   0  0  0  0  0  0  0  0  0  0  0  0
    0.4603    4.6974    4.6600 H   0  0  0  0  0  0  0  0  0  0  0  0
    0.7882    3.7842    3.2430 H   0  0  0  0  0  0  0  0  0  0  0  0
   -1.2583    4.3848    6.0468 H   0  0  0  0  0  0  0  0  0  0  0  0
   -3.2345    3.2657    4.9595 H   0  0  0  0  0  0  0  0  0  0  0  0
    0.2076    2.6164    6.8768 H   0  0  0  0  0  0  0  0  0  0  0  0
   -1.2357    2.7129    7.8349 H   0  0  0  0  0  0  0  0  0  0  0  0
   -0.5833    0.4329    7.3542 H   0  0  0  0  0  0  0  0  0  0  0  0
   -2.9794    1.3230    6.3355 H   0  0  0  0  0  0  0  0  0  0  0  0
   -1.0187   -1.4642    4.0800 H   0  0  0  0  0  0  0  0  0  0  0  0
   -2.4980   -0.6457    4.5018 H   0  0  0  0  0  0  0  0  0  0  0  0
   -1.6426   -1.5115    5.7134 H   0  0  0  0  0  0  0  0  0  0  0  0
   -2.1465    1.3984    3.9592 H   0  0  0  0  0  0  0  0  0  0  0  0
   -1.1465    0.1585    2.3873 H   0  0  0  0  0  0  0  0  0  0  0  0
   -0.8266    1.7670    1.8757 H   0  0  0  0  0  0  0  0  0  0  0  0
    0.9582    0.1008    1.5713 H   0  0  0  0  0  0  0  0  0  0  0  0
    2.5387    1.5229    1.9568 H   0  0  0  0  0  0  0  0  0  0  0  0
    0.6282   -2.2455    3.0242 H   0  0  0  0  0  0  0  0  0  0  0  0
    1.6181   -3.0068    5.1447 H   0  0  0  0  0  0  0  0  0  0  0  0
    3.1181   -3.0541    4.2635 H   0  0  0  0  0  0  0  0  0  0  0  0
    3.4519   -1.3976    7.2756 H   0  0  0  0  0  0  0  0  0  0  0  0
    3.4899    0.3336    6.7481 H   0  0  0  0  0  0  0  0  0  0  0  0
    0.5000   -1.1812    7.9187 H   0  0  0  0  0  0  0  0  0  0  0  0
    1.5286   -2.4624    7.3922 H   0  0  0  0  0  0  0  0  0  0  0  0
    0.0800   -2.1955    6.5079 H   0  0  0  0  0  0  0  0  0  0  0  0
    1.2484    1.1557    5.3456 H   0  0  0  0  0  0  0  0  0  0  0  0
    4.7216    0.9307    4.6894 H   0  0  0  0  0  0  0  0  0  0  0  0
    3.2125    1.7732    5.0302 H   0  0  0  0  0  0  0  0  0  0  0  0
    3.8545    1.7390    3.4039 H   0  0  0  0  0  0  0  0  0  0  0  0
    3.8555   -0.0940    1.9313 H   0  0  0  0  0  0  0  0  0  0  0  0
    4.6165   -1.3240    2.9513 H   0  0  0  0  0  0  0  0  0  0  0  0
  1  2  1  0
  1 28  1  0
  1 29  1  0
  1 30  1  0
  2 11  1  0
  2  3  1  0
  2  4  1  0
  3 31  1  0
  3 32  1  0
  3 33  1  0
  4  5  1  0
  4  6  1  0
  4 34  1  1
  5 35  1  0
  6  7  1  0
  6 36  1  0
  6 37  1  0
  7  8  1  0
  7  9  1  0
  7 38  1  1
  8 39  1  0
  9 22  1  0
  9 10  1  6
  9 11  1  0
 10 40  1  0
 10 41  1  0
 10 42  1  0
 11 12  1  0
 11 43  1  6
 12 13  1  0
 12 44  1  0
 12 45  1  0
 13 14  1  0
 13 15  1  0
 13 46  1  6
 14 47  1  0
 15 22  1  0
 15 23  1  1
 15 16  1  0
 16 26  1  0
 16 17  1  0
 16 48  1  6
 18 17  1  6
 17 49  1  0
 17 50  1  0
 18 20  1  0
 18 19  1  0
 18 23  1  0
 19 20  1  0
 19 51  1  0
 19 52  1  0
 20 21  1  1
 20 22  1  0
 21 53  1  0
 21 54  1  0
 21 55  1  0
 22 56  1  1
 23 24  1  1
 23 25  1  0
 24 57  1  0
 24 58  1  0
 24 59  1  0
 25 26  1  0
 25 60  1  0
 25 61  1  0
 26 27  2  0
M  END
>  <i_m_ct_stereo_status>  (163) 
1

>  <s_m_source_file>  (163) 
/var/tmp/pbs.5076255.sched01/tmpxnahmhzs/434e81vi2s.sdf

>  <i_m_source_file_index>  (163) 
25

>  <i_lp_mmshare_version>  (163) 
48012

>  <i_f3d_flags>  (163) 
0

>  <s_epik_input>  (163) 
W09IXVtDQEBIXTFbQ0gyXVtDQEhdKFtPSF0pQyhbQ0gzXSkoW0NIM10pW0NAQEhdKFtDSDJdW0NIXTJbT0hdKVtDQEBdMShbQ0gzXSlbQ0BIXTNbQ0BAXShbQ0gyXTQpKFtDSDNdKVtDQEBdNChbQ0gyXVtDQEhdNVtDQEBdMjM2KVtDQEBdNihbQ0gzXSlbQ0gyXUM1PU8=

>  <s_epik_cmdline>  (163) 
J2VwaWtfcHl0aG9uJywgJy1waHQnLCAnMi4wJywgJy1waCcsICc3LjAnLCAnLXRuJywgJzgnLCAnLW1hJywgJzIwMCcsICctaW1hZScsICc8aW5maWxlLm1hZT4nLCAnLW9tYWUnLCAnPG91dGZpbGUubWFlPic=

>  <r_lp_tautomer_probability>  (163) 
1

>  <r_epik_Ionization_Penalty>  (163) 
2.59835e-06

>  <r_epik_Ionization_Penalty_Charging>  (163) 
0

>  <r_epik_Ionization_Penalty_Neutral>  (163) 
2.59835e-06

>  <r_epik_State_Penalty>  (163) 
-0

>  <r_epik_Charging_Adjusted_Penalty>  (163) 
0

>  <i_epik_Tot_Q>  (163) 
0

>  <i_epik_Tot_abs_Q>  (163) 
0

>  <s_lp_Force_Field>  (163) 
OPLS3e

>  <r_lp_Energy>  (163) 
123.237

>  <b_lp_Chiralities_Consistent>  (163) 
1

>  <s_lp_Variant>  (163) 
52:0-1

>  <s_i_glide_gridfile>  (163) 
pfpi4k_grid

>  <i_i_glide_lignum>  (163) 
25

>  <i_i_glide_rotatable_bonds>  (163) 
3

>  <r_i_docking_score>  (163) 
-3.41592

>  <r_i_glide_ligand_efficiency>  (163) 
-0.126516

>  <r_i_glide_ligand_efficiency_sa>  (163) 
-0.379547

>  <r_i_glide_ligand_efficiency_ln>  (163) 
-0.79517

>  <r_i_glide_gscore>  (163) 
-3.41592

>  <r_i_glide_lipo>  (163) 
-0.0131599

>  <r_i_glide_hbond>  (163) 
0

>  <r_i_glide_metal>  (163) 
-0

>  <r_i_glide_rewards>  (163) 
-1.35559

>  <r_i_glide_evdw>  (163) 
-23.1215

>  <r_i_glide_ecoul>  (163) 
-5.84014

>  <r_i_glide_erotb>  (163) 
0

>  <r_i_glide_esite>  (163) 
-0.015075

>  <r_i_glide_emodel>  (163) 
-39.959

>  <r_i_glide_energy>  (163) 
-28.9617

>  <r_i_glide_einternal>  (163) 
1.78597

>  <r_i_glide_intrahb_reward>  (163) 
-0.5

>  <i_i_glide_confnum>  (163) 
2

>  <i_i_glide_posenum>  (163) 
19

>  <r_i_glide_eff_state_penalty>  (163) 
0

>  <ligand_id>  (163) 
52

>  <original_smiles>  (163) 
CC1(C)C(O)CC(O)C2(C)C1CC(O)C13C4CC5(CC5(C)C21)C3(C)CC4=O

>  <smiles>  (163) 
[H]OC1([H])C([H])([H])C([H])(O[H])C2(C([H])([H])[H])C([H])(C([H])([H])C([H])(O[H])C34C5([H])C(=O)C([H])([H])C3(C([H])([H])[H])C3(C5([H])[H])C([H])([H])C3(C([H])([H])[H])C24[H])C1(C([H])([H])[H])C([H])([H])[H]

$$$$
52:0:2
     RDKit          3D

 61 66  0  0  1  0  0  0  0  0999 V2000
   -1.9556    3.8505    3.3020 C   0  0  0  0  0  0  0  0  0  0  0  0
   -1.0585    3.1006    4.3187 C   0  0  0  0  0  0  0  0  0  0  0  0
    0.3336    3.7665    4.1968 C   0  0  0  0  0  0  0  0  0  0  0  0
   -1.5730    3.4089    5.7526 C   0  0  1  0  0  0  0  0  0  0  0  0
   -2.9838    3.3335    5.8630 O   0  0  0  0  0  0  0  0  0  0  0  0
   -0.9118    2.5131    6.8049 C   0  0  0  0  0  0  0  0  0  0  0  0
   -1.1279    1.0143    6.5559 C   0  0  1  0  0  0  0  0  0  0  0  0
   -2.4563    0.6689    6.8661 O   0  0  0  0  0  0  0  0  0  0  0  0
   -0.6969    0.4936    5.1378 C   0  0  1  0  0  0  0  0  0  0  0  0
   -1.4662   -0.8329    4.8515 C   0  0  0  0  0  0  0  0  0  0  0  0
   -1.1233    1.5415    4.0234 C   0  0  2  0  0  0  0  0  0  0  0  0
   -0.6452    1.0853    2.6198 C   0  0  0  0  0  0  0  0  0  0  0  0
    0.8424    0.7495    2.4515 C   0  0  1  0  0  0  0  0  0  0  0  0
    1.5595    1.9203    2.1729 O   0  0  0  0  0  0  0  0  0  0  0  0
    1.4519   -0.0933    3.6309 C   0  0  2  0  0  0  0  0  0  0  0  0
    1.5613   -1.6351    3.2961 C   0  0  2  0  0  0  0  0  0  0  0  0
    2.3386   -2.2581    4.4860 C   0  0  0  0  0  0  0  0  0  0  0  0
    2.8556   -0.9774    5.1046 C   0  0  1  0  0  0  0  0  0  0  0  0
    3.1233   -0.4763    6.4904 C   0  0  0  0  0  0  0  0  0  0  0  0
    1.6844   -0.5800    6.0551 C   0  0  2  0  0  0  0  0  0  0  0  0
    0.9484   -1.5408    6.9943 C   0  0  0  0  0  0  0  0  0  0  0  0
    0.8661    0.2832    5.0470 C   0  0  2  0  0  0  0  0  0  0  0  0
    2.9721   -0.0310    3.8888 C   0  0  2  0  0  0  0  0  0  0  0  0
    3.6591    1.3223    4.1997 C   0  0  0  0  0  0  0  0  0  0  0  0
    3.6585   -0.6597    2.6370 C   0  0  0  0  0  0  0  0  0  0  0  0
    2.6121   -1.6591    2.2056 C   0  0  0  0  0  0  0  0  0  0  0  0
    2.6543   -2.4039    1.2388 O   0  0  0  0  0  0  0  0  0  0  0  0
   -2.0490    4.9004    3.5773 H   0  0  0  0  0  0  0  0  0  0  0  0
   -2.9577    3.4242    3.2342 H   0  0  0  0  0  0  0  0  0  0  0  0
   -1.5253    3.8277    2.3028 H   0  0  0  0  0  0  0  0  0  0  0  0
    1.1198    3.2477    4.7416 H   0  0  0  0  0  0  0  0  0  0  0  0
    0.3087    4.7900    4.5794 H   0  0  0  0  0  0  0  0  0  0  0  0
    0.6415    3.8908    3.1597 H   0  0  0  0  0  0  0  0  0  0  0  0
   -1.3157    4.4433    6.0001 H   0  0  0  0  0  0  0  0  0  0  0  0
   -3.2922    2.5989    5.3342 H   0  0  0  0  0  0  0  0  0  0  0  0
    0.1569    2.7174    6.8185 H   0  0  0  0  0  0  0  0  0  0  0  0
   -1.2730    2.7839    7.7978 H   0  0  0  0  0  0  0  0  0  0  0  0
   -0.5369    0.5297    7.3175 H   0  0  0  0  0  0  0  0  0  0  0  0
   -3.0270    1.2059    6.3529 H   0  0  0  0  0  0  0  0  0  0  0  0
   -0.9876   -1.4213    4.0786 H   0  0  0  0  0  0  0  0  0  0  0  0
   -2.4845   -0.6389    4.5119 H   0  0  0  0  0  0  0  0  0  0  0  0
   -1.5898   -1.4731    5.7213 H   0  0  0  0  0  0  0  0  0  0  0  0
   -2.1972    1.4069    3.9444 H   0  0  0  0  0  0  0  0  0  0  0  0
   -1.1925    0.1760    2.3834 H   0  0  0  0  0  0  0  0  0  0  0  0
   -0.9436    1.7843    1.8394 H   0  0  0  0  0  0  0  0  0  0  0  0
    0.8988    0.1908    1.5160 H   0  0  0  0  0  0  0  0  0  0  0  0
    1.0325    2.4695    1.5936 H   0  0  0  0  0  0  0  0  0  0  0  0
    0.6565   -2.1646    2.9975 H   0  0  0  0  0  0  0  0  0  0  0  0
    1.7033   -2.8676    5.1168 H   0  0  0  0  0  0  0  0  0  0  0  0
    3.1944   -2.8745    4.2003 H   0  0  0  0  0  0  0  0  0  0  0  0
    3.5193   -1.2002    7.1984 H   0  0  0  0  0  0  0  0  0  0  0  0
    3.5038    0.5246    6.6567 H   0  0  0  0  0  0  0  0  0  0  0  0
    0.5795   -1.0492    7.8905 H   0  0  0  0  0  0  0  0  0  0  0  0
    1.6392   -2.3065    7.3548 H   0  0  0  0  0  0  0  0  0  0  0  0
    0.1673   -2.0888    6.4891 H   0  0  0  0  0  0  0  0  0  0  0  0
    1.2147    1.2710    5.2824 H   0  0  0  0  0  0  0  0  0  0  0  0
    4.6776    1.1483    4.5525 H   0  0  0  0  0  0  0  0  0  0  0  0
    3.1457    1.9378    4.9451 H   0  0  0  0  0  0  0  0  0  0  0  0
    3.7675    1.9051    3.2822 H   0  0  0  0  0  0  0  0  0  0  0  0
    3.7957    0.0690    1.8466 H   0  0  0  0  0  0  0  0  0  0  0  0
    4.6148   -1.1299    2.8572 H   0  0  0  0  0  0  0  0  0  0  0  0
  1  2  1  0
  1 28  1  0
  1 29  1  0
  1 30  1  0
  2 11  1  0
  2  3  1  0
  2  4  1  0
  3 31  1  0
  3 32  1  0
  3 33  1  0
  4  5  1  0
  4  6  1  0
  4 34  1  1
  5 35  1  0
  6  7  1  0
  6 36  1  0
  6 37  1  0
  7  8  1  0
  7  9  1  0
  7 38  1  1
  8 39  1  0
  9 22  1  0
  9 10  1  6
  9 11  1  0
 10 40  1  0
 10 41  1  0
 10 42  1  0
 11 12  1  0
 11 43  1  6
 12 13  1  0
 12 44  1  0
 12 45  1  0
 13 14  1  0
 13 15  1  0
 13 46  1  6
 14 47  1  0
 15 22  1  0
 15 23  1  1
 15 16  1  0
 16 26  1  0
 16 17  1  0
 16 48  1  6
 18 17  1  6
 17 49  1  0
 17 50  1  0
 18 20  1  0
 18 19  1  0
 18 23  1  0
 19 20  1  0
 19 51  1  0
 19 52  1  0
 20 21  1  1
 20 22  1  0
 21 53  1  0
 21 54  1  0
 21 55  1  0
 22 56  1  1
 23 24  1  1
 23 25  1  0
 24 57  1  0
 24 58  1  0
 24 59  1  0
 25 26  1  0
 25 60  1  0
 25 61  1  0
 26 27  2  0
M  END
>  <i_m_ct_stereo_status>  (164) 
1

>  <s_m_source_file>  (164) 
/var/tmp/pbs.5076255.sched01/tmpxnahmhzs/434e81vi2s.sdf

>  <i_m_source_file_index>  (164) 
25

>  <i_lp_mmshare_version>  (164) 
48012

>  <i_f3d_flags>  (164) 
0

>  <s_epik_input>  (164) 
W09IXVtDQEBIXTFbQ0gyXVtDQEhdKFtPSF0pQyhbQ0gzXSkoW0NIM10pW0NAQEhdKFtDSDJdW0NIXTJbT0hdKVtDQEBdMShbQ0gzXSlbQ0BIXTNbQ0BAXShbQ0gyXTQpKFtDSDNdKVtDQEBdNChbQ0gyXVtDQEhdNVtDQEBdMjM2KVtDQEBdNihbQ0gzXSlbQ0gyXUM1PU8=

>  <s_epik_cmdline>  (164) 
J2VwaWtfcHl0aG9uJywgJy1waHQnLCAnMi4wJywgJy1waCcsICc3LjAnLCAnLXRuJywgJzgnLCAnLW1hJywgJzIwMCcsICctaW1hZScsICc8aW5maWxlLm1hZT4nLCAnLW9tYWUnLCAnPG91dGZpbGUubWFlPic=

>  <r_lp_tautomer_probability>  (164) 
1

>  <r_epik_Ionization_Penalty>  (164) 
2.59835e-06

>  <r_epik_Ionization_Penalty_Charging>  (164) 
0

>  <r_epik_Ionization_Penalty_Neutral>  (164) 
2.59835e-06

>  <r_epik_State_Penalty>  (164) 
-0

>  <r_epik_Charging_Adjusted_Penalty>  (164) 
0

>  <i_epik_Tot_Q>  (164) 
0

>  <i_epik_Tot_abs_Q>  (164) 
0

>  <s_lp_Force_Field>  (164) 
OPLS3e

>  <r_lp_Energy>  (164) 
123.237

>  <b_lp_Chiralities_Consistent>  (164) 
1

>  <s_lp_Variant>  (164) 
52:0-1

>  <s_i_glide_gridfile>  (164) 
pfpi4k_grid

>  <i_i_glide_lignum>  (164) 
25

>  <i_i_glide_rotatable_bonds>  (164) 
3

>  <r_i_docking_score>  (164) 
-3.23275

>  <r_i_glide_ligand_efficiency>  (164) 
-0.119731

>  <r_i_glide_ligand_efficiency_sa>  (164) 
-0.359194

>  <r_i_glide_ligand_efficiency_ln>  (164) 
-0.75253

>  <r_i_glide_gscore>  (164) 
-3.23275

>  <r_i_glide_lipo>  (164) 
-0.0134195

>  <r_i_glide_hbond>  (164) 
-0.0788279

>  <r_i_glide_metal>  (164) 
-0

>  <r_i_glide_rewards>  (164) 
-0.855589

>  <r_i_glide_evdw>  (164) 
-22.9655

>  <r_i_glide_ecoul>  (164) 
-7.44792

>  <r_i_glide_erotb>  (164) 
0

>  <r_i_glide_esite>  (164) 
-0.0194453

>  <r_i_glide_emodel>  (164) 
-36.3782

>  <r_i_glide_energy>  (164) 
-30.4134

>  <r_i_glide_einternal>  (164) 
0.768484

>  <r_i_glide_intrahb_reward>  (164) 
-0

>  <i_i_glide_confnum>  (164) 
1

>  <i_i_glide_posenum>  (164) 
2

>  <r_i_glide_eff_state_penalty>  (164) 
0

>  <ligand_id>  (164) 
52

>  <original_smiles>  (164) 
CC1(C)C(O)CC(O)C2(C)C1CC(O)C13C4CC5(CC5(C)C21)C3(C)CC4=O

>  <smiles>  (164) 
[H]OC1([H])C([H])([H])C([H])(O[H])C2(C([H])([H])[H])C([H])(C([H])([H])C([H])(O[H])C34C5([H])C(=O)C([H])([H])C3(C([H])([H])[H])C3(C5([H])[H])C([H])([H])C3(C([H])([H])[H])C24[H])C1(C([H])([H])[H])C([H])([H])[H]

$$$$
53:0:0
     RDKit          3D

 52 56  0  0  1  0  0  0  0  0999 V2000
    0.3024   -7.1378    1.0068 C   0  0  0  0  0  0  0  0  0  0  0  0
    1.0868   -6.3585    2.0415 C   0  0  0  0  0  0  0  0  0  0  0  0
    2.0051   -5.5234    1.7861 N   0  0  0  0  0  0  0  0  0  0  0  0
    2.3117   -5.4266    0.4207 O   0  0  0  0  0  0  0  0  0  0  0  0
    3.4905   -4.6411    0.2899 C   0  0  0  0  0  0  0  0  0  0  0  0
    3.1940   -3.2163   -0.2179 C   0  0  2  0  0  0  0  0  0  0  0  0
    2.3568   -2.5595    0.7101 O   0  0  0  0  0  0  0  0  0  0  0  0
    2.6116   -3.1638   -1.6439 C   0  0  0  0  0  0  0  0  0  0  0  0
    3.6133   -3.4566   -2.5986 O   0  0  0  0  0  0  0  0  0  0  0  0
    0.6560   -6.6172    3.4757 C   0  0  2  0  0  0  0  0  0  0  0  0
    1.0743   -5.5394    4.3396 O   0  0  0  0  0  0  0  0  0  0  0  0
    1.1280   -6.0607    5.6023 C   0  0  0  0  0  0  0  0  0  0  0  0
    1.0858   -5.3804    6.8346 C   0  0  0  0  0  0  0  0  0  0  0  0
    1.1965   -4.0204    6.8729 O   0  0  0  0  0  0  0  0  0  0  0  0
    0.8991   -6.1071    8.0349 C   0  0  0  0  0  0  0  0  0  0  0  0
    0.6665   -7.5054    8.0054 C   0  0  0  0  0  0  0  0  0  0  0  0
    0.7068   -8.2046    6.7793 C   0  0  0  0  0  0  0  0  0  0  0  0
    1.0600   -7.4382    5.6324 C   0  0  0  0  0  0  0  0  0  0  0  0
    1.1886   -7.9051    4.1827 C   0  0  2  0  0  0  0  0  0  0  0  0
    2.5022   -8.5940    3.6169 C   0  0  0  0  0  0  0  0  0  0  0  0
    1.6481   -9.7762    3.0489 C   0  0  1  0  0  0  0  0  0  0  0  0
    1.9255  -11.1864    3.4583 N   0  0  0  0  0  0  0  0  0  0  0  0
    1.1071  -11.5315    4.6571 C   0  0  0  0  0  0  0  0  0  0  0  0
    0.9121  -10.1540    5.2478 C   0  0  2  0  0  0  0  0  0  0  0  0
    0.2715   -9.6525    6.5245 C   0  0  0  0  0  0  0  0  0  0  0  0
    0.6163   -9.2980    4.0419 C   0  0  1  0  0  0  0  0  0  0  0  0
   -0.7367   -9.3879    3.6362 O   0  0  0  0  0  0  0  0  0  0  0  0
   -0.7630   -6.9007    1.0411 H   0  0  0  0  0  0  0  0  0  0  0  0
    0.3871   -8.1953    1.2146 H   0  0  0  0  0  0  0  0  0  0  0  0
    0.6905   -6.9848    0.0052 H   0  0  0  0  0  0  0  0  0  0  0  0
    4.0975   -4.6252    1.1977 H   0  0  0  0  0  0  0  0  0  0  0  0
    4.0954   -5.1583   -0.4499 H   0  0  0  0  0  0  0  0  0  0  0  0
    4.1245   -2.6502   -0.2120 H   0  0  0  0  0  0  0  0  0  0  0  0
    1.9038   -1.8566    0.2448 H   0  0  0  0  0  0  0  0  0  0  0  0
    1.7741   -3.8543   -1.7579 H   0  0  0  0  0  0  0  0  0  0  0  0
    2.2502   -2.1717   -1.8949 H   0  0  0  0  0  0  0  0  0  0  0  0
    3.6171   -4.4099   -2.7169 H   0  0  0  0  0  0  0  0  0  0  0  0
   -0.4333   -6.6110    3.4941 H   0  0  0  0  0  0  0  0  0  0  0  0
    1.4055   -3.6500    6.0285 H   0  0  0  0  0  0  0  0  0  0  0  0
    0.8788   -5.5775    8.9687 H   0  0  0  0  0  0  0  0  0  0  0  0
    0.4301   -8.0266    8.9218 H   0  0  0  0  0  0  0  0  0  0  0  0
    3.0015   -8.0308    2.8276 H   0  0  0  0  0  0  0  0  0  0  0  0
    3.2260   -8.8705    4.3875 H   0  0  0  0  0  0  0  0  0  0  0  0
    1.4104   -9.7219    1.9929 H   0  0  0  0  0  0  0  0  0  0  0  0
    1.6232  -11.7895    2.7039 H   0  0  0  0  0  0  0  0  0  0  0  0
    0.1543  -11.9626    4.3525 H   0  0  0  0  0  0  0  0  0  0  0  0
    1.6380  -12.2402    5.2844 H   0  0  0  0  0  0  0  0  0  0  0  0
    1.9428  -10.0101    5.5841 H   0  0  0  0  0  0  0  0  0  0  0  0
    0.6090  -10.2443    7.3741 H   0  0  0  0  0  0  0  0  0  0  0  0
   -0.8140   -9.7241    6.4813 H   0  0  0  0  0  0  0  0  0  0  0  0
   -1.1879   -9.9722    4.2520 H   0  0  0  0  0  0  0  0  0  0  0  0
    2.9185  -11.3194    3.6239 H   0  0  0  0  0  0  0  0  0  0  0  0
  1  2  1  0
  1 28  1  0
  1 29  1  0
  1 30  1  0
  2  3  2  3
  2 10  1  0
  3  4  1  0
  4  5  1  0
  5  6  1  0
  5 31  1  0
  5 32  1  0
  6  7  1  0
  6  8  1  0
  6 33  1  6
  7 34  1  0
  8  9  1  0
  8 35  1  0
  8 36  1  0
  9 37  1  0
 10 19  1  0
 10 11  1  0
 10 38  1  6
 11 12  1  0
 12 18  2  0
 12 13  1  0
 13 14  1  0
 13 15  2  0
 14 39  1  0
 15 16  1  0
 15 40  1  0
 16 17  2  0
 16 41  1  0
 17 25  1  0
 17 18  1  0
 18 19  1  0
 19 26  1  0
 19 20  1  6
 20 21  1  0
 20 42  1  0
 20 43  1  0
 21 26  1  0
 21 22  1  0
 21 44  1  6
 22 23  1  0
 22 45  1  0
 22 52  1  0
 23 24  1  0
 23 46  1  0
 23 47  1  0
 24 25  1  0
 24 26  1  0
 24 48  1  1
 25 49  1  0
 25 50  1  0
 26 27  1  6
 27 51  1  0
M  CHG  1  22   1
M  END
>  <i_m_ct_stereo_status>  (165) 
1

>  <s_m_source_file>  (165) 
/var/tmp/pbs.5076255.sched01/tmpxnahmhzs/434e81vi2s.sdf

>  <i_m_source_file_index>  (165) 
26

>  <i_lp_mmshare_version>  (165) 
48012

>  <i_f3d_flags>  (165) 
0

>  <s_epik_input>  (165) 
W09IXVtDSDJdW0NAQEhdKFtPSF0pW0NIMl1PL049QyhcW0NIM10pW0NAQEhdMU9jKGMyW0NAQF0xMzQpYyhbT0hdKVtjSF1bY0hdYzJbQ0gyXVtDQEBIXTVbQ0BdNChbT0hdKVtDQEBIXShbQ0gyXTMpW05IXVtDSDJdNQ==

>  <s_epik_cmdline>  (165) 
J2VwaWtfcHl0aG9uJywgJy1waHQnLCAnMi4wJywgJy1waCcsICc3LjAnLCAnLXRuJywgJzgnLCAnLW1hJywgJzIwMCcsICctaW1hZScsICc8aW5maWxlLm1hZT4nLCAnLW9tYWUnLCAnPG91dGZpbGUubWFlPic=

>  <r_lp_tautomer_probability>  (165) 
1

>  <r_epik_Ionization_Penalty>  (165) 
0.0124512

>  <r_epik_Ionization_Penalty_Charging>  (165) 
0.00882486

>  <r_epik_Ionization_Penalty_Neutral>  (165) 
0.0036263

>  <r_epik_State_Penalty>  (165) 
0.00667057

>  <r_epik_Charging_Adjusted_Penalty>  (165) 
0.0154954

>  <i_epik_Tot_Q>  (165) 
1

>  <i_epik_Tot_abs_Q>  (165) 
1

>  <s_epik_Chemistry_Notes>  (165) 
This compound has an imine and may undergo hydrolysis.

>  <s_lp_Force_Field>  (165) 
OPLS3e

>  <r_lp_Energy>  (165) 
71.8625

>  <b_lp_Chiralities_Consistent>  (165) 
1

>  <s_lp_Variant>  (165) 
53:0-1

>  <s_i_glide_gridfile>  (165) 
pfpi4k_grid

>  <i_i_glide_lignum>  (165) 
26

>  <i_i_glide_rotatable_bonds>  (165) 
9

>  <r_i_docking_score>  (165) 
-4.38099

>  <r_i_glide_ligand_efficiency>  (165) 
-0.162259

>  <r_i_glide_ligand_efficiency_sa>  (165) 
-0.486777

>  <r_i_glide_ligand_efficiency_ln>  (165) 
-1.01982

>  <r_i_glide_gscore>  (165) 
-4.38099

>  <r_i_glide_lipo>  (165) 
-0.111668

>  <r_i_glide_hbond>  (165) 
-0.432

>  <r_i_glide_metal>  (165) 
-0

>  <r_i_glide_rewards>  (165) 
-0.83583

>  <r_i_glide_evdw>  (165) 
-20.4472

>  <r_i_glide_ecoul>  (165) 
-15.3303

>  <r_i_glide_erotb>  (165) 
0.475911

>  <r_i_glide_esite>  (165) 
-0.155495

>  <r_i_glide_emodel>  (165) 
-45.7008

>  <r_i_glide_energy>  (165) 
-35.7775

>  <r_i_glide_einternal>  (165) 
9.88049

>  <r_i_glide_intrahb_reward>  (165) 
-0

>  <i_i_glide_confnum>  (165) 
2

>  <i_i_glide_posenum>  (165) 
9

>  <r_i_glide_eff_state_penalty>  (165) 
0

>  <ligand_id>  (165) 
53

>  <original_smiles>  (165) 
CC(=NOCC(O)CO)C1Oc2c(O)ccc3c2C12CC1NCC(C3)C12O

>  <smiles>  (165) 
[H]Oc1c([H])c([H])c2c3c1OC([H])(C(=NOC([H])([H])C([H])(O[H])C([H])([H])O[H])C([H])([H])[H])C31C([H])([H])C3([H])C1(O[H])C([H])(C2([H])[H])C([H])([H])[N+]3([H])[H]

$$$$
53:0:1
     RDKit          3D

 52 56  0  0  1  0  0  0  0  0999 V2000
    5.0053   -6.5963    0.1132 C   0  0  0  0  0  0  0  0  0  0  0  0
    3.6951   -6.5340    0.8786 C   0  0  0  0  0  0  0  0  0  0  0  0
    2.9782   -5.4920    1.0062 N   0  0  0  0  0  0  0  0  0  0  0  0
    3.6030   -4.3730    0.4457 O   0  0  0  0  0  0  0  0  0  0  0  0
    2.6363   -3.6369   -0.2661 C   0  0  0  0  0  0  0  0  0  0  0  0
    3.3176   -2.4290   -0.9254 C   0  0  2  0  0  0  0  0  0  0  0  0
    3.0196   -1.2961   -0.1338 O   0  0  0  0  0  0  0  0  0  0  0  0
    2.8199   -2.1887   -2.3645 C   0  0  0  0  0  0  0  0  0  0  0  0
    3.3763   -3.1303   -3.2611 O   0  0  0  0  0  0  0  0  0  0  0  0
    3.2276   -7.8851    1.4023 C   0  0  2  0  0  0  0  0  0  0  0  0
    1.8163   -7.8331    1.6891 O   0  0  0  0  0  0  0  0  0  0  0  0
    1.5840   -8.8300    2.5832 C   0  0  0  0  0  0  0  0  0  0  0  0
    0.3609   -9.4512    2.9162 C   0  0  0  0  0  0  0  0  0  0  0  0
   -0.8259   -8.9717    2.4546 O   0  0  0  0  0  0  0  0  0  0  0  0
    0.3839  -10.6203    3.6970 C   0  0  0  0  0  0  0  0  0  0  0  0
    1.5801  -11.2468    4.0973 C   0  0  0  0  0  0  0  0  0  0  0  0
    2.8071  -10.6310    3.7886 C   0  0  0  0  0  0  0  0  0  0  0  0
    2.7257   -9.3609    3.1340 C   0  0  0  0  0  0  0  0  0  0  0  0
    3.8735   -8.4583    2.7017 C   0  0  2  0  0  0  0  0  0  0  0  0
    4.6079   -7.4660    3.6783 C   0  0  0  0  0  0  0  0  0  0  0  0
    5.9873   -8.0484    3.2410 C   0  0  1  0  0  0  0  0  0  0  0  0
    6.9332   -8.6267    4.2455 N   0  0  0  0  0  0  0  0  0  0  0  0
    6.6736  -10.0944    4.3877 C   0  0  0  0  0  0  0  0  0  0  0  0
    5.2245  -10.1455    3.9705 C   0  0  2  0  0  0  0  0  0  0  0  0
    4.2017  -11.2579    3.9491 C   0  0  0  0  0  0  0  0  0  0  0  0
    5.1757   -9.2303    2.7720 C   0  0  1  0  0  0  0  0  0  0  0  0
    5.6170   -9.8565    1.5849 O   0  0  0  0  0  0  0  0  0  0  0  0
    4.8390   -7.2398   -0.7443 H   0  0  0  0  0  0  0  0  0  0  0  0
    5.7899   -7.0533    0.6998 H   0  0  0  0  0  0  0  0  0  0  0  0
    5.3812   -5.6210   -0.2036 H   0  0  0  0  0  0  0  0  0  0  0  0
    2.1887   -4.2878   -1.0172 H   0  0  0  0  0  0  0  0  0  0  0  0
    1.8407   -3.3190    0.4085 H   0  0  0  0  0  0  0  0  0  0  0  0
    4.3982   -2.5615   -0.9412 H   0  0  0  0  0  0  0  0  0  0  0  0
    2.0770   -1.0749   -0.3228 H   0  0  0  0  0  0  0  0  0  0  0  0
    1.7350   -2.2550   -2.4262 H   0  0  0  0  0  0  0  0  0  0  0  0
    3.1026   -1.1945   -2.7070 H   0  0  0  0  0  0  0  0  0  0  0  0
    3.0762   -3.9998   -3.0232 H   0  0  0  0  0  0  0  0  0  0  0  0
    3.3541   -8.6116    0.5989 H   0  0  0  0  0  0  0  0  0  0  0  0
   -0.7878   -8.8046    1.5222 H   0  0  0  0  0  0  0  0  0  0  0  0
   -0.5635  -11.0502    3.9405 H   0  0  0  0  0  0  0  0  0  0  0  0
    1.5376  -12.2050    4.6120 H   0  0  0  0  0  0  0  0  0  0  0  0
    4.5055   -6.4210    3.4080 H   0  0  0  0  0  0  0  0  0  0  0  0
    4.3565   -7.6096    4.7283 H   0  0  0  0  0  0  0  0  0  0  0  0
    6.5418   -7.4742    2.5077 H   0  0  0  0  0  0  0  0  0  0  0  0
    7.8632   -8.5220    3.8569 H   0  0  0  0  0  0  0  0  0  0  0  0
    7.2960  -10.6578    3.6843 H   0  0  0  0  0  0  0  0  0  0  0  0
    6.8683  -10.4295    5.4080 H   0  0  0  0  0  0  0  0  0  0  0  0
    4.8181   -9.6425    4.8484 H   0  0  0  0  0  0  0  0  0  0  0  0
    4.2355  -11.8096    4.8885 H   0  0  0  0  0  0  0  0  0  0  0  0
    4.4006  -11.9546    3.1333 H   0  0  0  0  0  0  0  0  0  0  0  0
    5.0238  -10.5787    1.4136 H   0  0  0  0  0  0  0  0  0  0  0  0
    6.8379   -8.1333    5.1262 H   0  0  0  0  0  0  0  0  0  0  0  0
  1  2  1  0
  1 28  1  0
  1 29  1  0
  1 30  1  0
  2  3  2  3
  2 10  1  0
  3  4  1  0
  4  5  1  0
  5  6  1  0
  5 31  1  0
  5 32  1  0
  6  7  1  0
  6  8  1  0
  6 33  1  6
  7 34  1  0
  8  9  1  0
  8 35  1  0
  8 36  1  0
  9 37  1  0
 10 19  1  0
 10 11  1  0
 10 38  1  6
 11 12  1  0
 12 18  2  0
 12 13  1  0
 13 14  1  0
 13 15  2  0
 14 39  1  0
 15 16  1  0
 15 40  1  0
 16 17  2  0
 16 41  1  0
 17 25  1  0
 17 18  1  0
 18 19  1  0
 19 26  1  0
 19 20  1  1
 20 21  1  0
 20 42  1  0
 20 43  1  0
 21 26  1  0
 21 22  1  0
 21 44  1  6
 22 23  1  0
 22 45  1  0
 22 52  1  0
 23 24  1  0
 23 46  1  0
 23 47  1  0
 24 25  1  0
 24 26  1  0
 24 48  1  1
 25 49  1  0
 25 50  1  0
 26 27  1  6
 27 51  1  0
M  CHG  1  22   1
M  END
>  <i_m_ct_stereo_status>  (166) 
1

>  <s_m_source_file>  (166) 
/var/tmp/pbs.5076255.sched01/tmpxnahmhzs/434e81vi2s.sdf

>  <i_m_source_file_index>  (166) 
26

>  <i_lp_mmshare_version>  (166) 
48012

>  <i_f3d_flags>  (166) 
0

>  <s_epik_input>  (166) 
W09IXVtDSDJdW0NAQEhdKFtPSF0pW0NIMl1PL049QyhcW0NIM10pW0NAQEhdMU9jKGMyW0NAQF0xMzQpYyhbT0hdKVtjSF1bY0hdYzJbQ0gyXVtDQEBIXTVbQ0BdNChbT0hdKVtDQEBIXShbQ0gyXTMpW05IXVtDSDJdNQ==

>  <s_epik_cmdline>  (166) 
J2VwaWtfcHl0aG9uJywgJy1waHQnLCAnMi4wJywgJy1waCcsICc3LjAnLCAnLXRuJywgJzgnLCAnLW1hJywgJzIwMCcsICctaW1hZScsICc8aW5maWxlLm1hZT4nLCAnLW9tYWUnLCAnPG91dGZpbGUubWFlPic=

>  <r_lp_tautomer_probability>  (166) 
1

>  <r_epik_Ionization_Penalty>  (166) 
0.0124512

>  <r_epik_Ionization_Penalty_Charging>  (166) 
0.00882486

>  <r_epik_Ionization_Penalty_Neutral>  (166) 
0.0036263

>  <r_epik_State_Penalty>  (166) 
0.00667057

>  <r_epik_Charging_Adjusted_Penalty>  (166) 
0.0154954

>  <i_epik_Tot_Q>  (166) 
1

>  <i_epik_Tot_abs_Q>  (166) 
1

>  <s_epik_Chemistry_Notes>  (166) 
This compound has an imine and may undergo hydrolysis.

>  <s_lp_Force_Field>  (166) 
OPLS3e

>  <r_lp_Energy>  (166) 
71.8625

>  <b_lp_Chiralities_Consistent>  (166) 
1

>  <s_lp_Variant>  (166) 
53:0-1

>  <s_i_glide_gridfile>  (166) 
pfpi4k_grid

>  <i_i_glide_lignum>  (166) 
26

>  <i_i_glide_rotatable_bonds>  (166) 
9

>  <r_i_docking_score>  (166) 
-4.24452

>  <r_i_glide_ligand_efficiency>  (166) 
-0.157205

>  <r_i_glide_ligand_efficiency_sa>  (166) 
-0.471614

>  <r_i_glide_ligand_efficiency_ln>  (166) 
-0.988055

>  <r_i_glide_gscore>  (166) 
-4.24452

>  <r_i_glide_lipo>  (166) 
-0.168064

>  <r_i_glide_hbond>  (166) 
-0.337086

>  <r_i_glide_metal>  (166) 
-0

>  <r_i_glide_rewards>  (166) 
-0.928884

>  <r_i_glide_evdw>  (166) 
-18.0998

>  <r_i_glide_ecoul>  (166) 
-17.1318

>  <r_i_glide_erotb>  (166) 
0.679873

>  <r_i_glide_esite>  (166) 
-0.0156012

>  <r_i_glide_emodel>  (166) 
-45.6303

>  <r_i_glide_energy>  (166) 
-35.2316

>  <r_i_glide_einternal>  (166) 
7.57708

>  <r_i_glide_intrahb_reward>  (166) 
-0

>  <i_i_glide_confnum>  (166) 
4

>  <i_i_glide_posenum>  (166) 
13

>  <r_i_glide_eff_state_penalty>  (166) 
0

>  <ligand_id>  (166) 
53

>  <original_smiles>  (166) 
CC(=NOCC(O)CO)C1Oc2c(O)ccc3c2C12CC1NCC(C3)C12O

>  <smiles>  (166) 
[H]Oc1c([H])c([H])c2c3c1OC([H])(C(=NOC([H])([H])C([H])(O[H])C([H])([H])O[H])C([H])([H])[H])C31C([H])([H])C3([H])C1(O[H])C([H])(C2([H])[H])C([H])([H])[N+]3([H])[H]

$$$$
53:0:2
     RDKit          3D

 52 56  0  0  1  0  0  0  0  0999 V2000
    4.9811   -5.8451    0.2940 C   0  0  0  0  0  0  0  0  0  0  0  0
    3.7531   -5.6177    1.1687 C   0  0  0  0  0  0  0  0  0  0  0  0
    3.3522   -4.4909    1.5954 N   0  0  0  0  0  0  0  0  0  0  0  0
    4.2034   -3.4485    1.2278 O   0  0  0  0  0  0  0  0  0  0  0  0
    3.5038   -2.2286    1.3558 C   0  0  0  0  0  0  0  0  0  0  0  0
    4.4219   -1.1067    0.8481 C   0  0  2  0  0  0  0  0  0  0  0  0
    3.7988    0.1209    1.1515 O   0  0  0  0  0  0  0  0  0  0  0  0
    4.6752   -1.1702   -0.6713 C   0  0  0  0  0  0  0  0  0  0  0  0
    5.5195   -2.2510   -1.0102 O   0  0  0  0  0  0  0  0  0  0  0  0
    2.9435   -6.8741    1.4492 C   0  0  2  0  0  0  0  0  0  0  0  0
    1.6050   -6.5395    1.8894 O   0  0  0  0  0  0  0  0  0  0  0  0
    1.1348   -7.6321    2.5538 C   0  0  0  0  0  0  0  0  0  0  0  0
   -0.2027   -7.9742    2.8494 C   0  0  0  0  0  0  0  0  0  0  0  0
   -1.2114   -7.0785    2.6488 O   0  0  0  0  0  0  0  0  0  0  0  0
   -0.4981   -9.2653    3.3354 C   0  0  0  0  0  0  0  0  0  0  0  0
    0.5113  -10.2518    3.4605 C   0  0  0  0  0  0  0  0  0  0  0  0
    1.8509   -9.9304    3.1746 C   0  0  0  0  0  0  0  0  0  0  0  0
    2.1131   -8.5689    2.8378 C   0  0  0  0  0  0  0  0  0  0  0  0
    3.4526   -7.9178    2.4922 C   0  0  2  0  0  0  0  0  0  0  0  0
    4.4735   -7.4240    3.5943 C   0  0  0  0  0  0  0  0  0  0  0  0
    5.6221   -8.2270    2.8959 C   0  0  1  0  0  0  0  0  0  0  0  0
    6.3943   -9.2637    3.6458 N   0  0  0  0  0  0  0  0  0  0  0  0
    5.7459  -10.6020    3.4801 C   0  0  0  0  0  0  0  0  0  0  0  0
    4.3272  -10.1569    3.2175 C   0  0  2  0  0  0  0  0  0  0  0  0
    3.0299  -10.9156    3.0529 C   0  0  0  0  0  0  0  0  0  0  0  0
    4.4928   -9.0023    2.2566 C   0  0  1  0  0  0  0  0  0  0  0  0
    4.7050   -9.4495    0.9282 O   0  0  0  0  0  0  0  0  0  0  0  0
    4.7031   -6.2319   -0.6939 H   0  0  0  0  0  0  0  0  0  0  0  0
    5.6245   -6.5886    0.7407 H   0  0  0  0  0  0  0  0  0  0  0  0
    5.5983   -4.9529    0.1772 H   0  0  0  0  0  0  0  0  0  0  0  0
    2.5803   -2.2571    0.7749 H   0  0  0  0  0  0  0  0  0  0  0  0
    3.2363   -2.0719    2.4024 H   0  0  0  0  0  0  0  0  0  0  0  0
    5.3701   -1.1275    1.3874 H   0  0  0  0  0  0  0  0  0  0  0  0
    2.9406    0.1302    0.7538 H   0  0  0  0  0  0  0  0  0  0  0  0
    3.7363   -1.2614   -1.2211 H   0  0  0  0  0  0  0  0  0  0  0  0
    5.1674   -0.2594   -1.0079 H   0  0  0  0  0  0  0  0  0  0  0  0
    5.0864   -3.0479   -0.7370 H   0  0  0  0  0  0  0  0  0  0  0  0
    2.8442   -7.3622    0.4873 H   0  0  0  0  0  0  0  0  0  0  0  0
   -2.0499   -7.4787    2.8242 H   0  0  0  0  0  0  0  0  0  0  0  0
   -1.5139   -9.5211    3.5786 H   0  0  0  0  0  0  0  0  0  0  0  0
    0.2382  -11.2558    3.7517 H   0  0  0  0  0  0  0  0  0  0  0  0
    4.6586   -6.3507    3.5767 H   0  0  0  0  0  0  0  0  0  0  0  0
    4.2272   -7.7428    4.6088 H   0  0  0  0  0  0  0  0  0  0  0  0
    6.2949   -7.6572    2.2615 H   0  0  0  0  0  0  0  0  0  0  0  0
    7.3069   -9.3092    3.2089 H   0  0  0  0  0  0  0  0  0  0  0  0
    6.1575  -11.1096    2.6034 H   0  0  0  0  0  0  0  0  0  0  0  0
    5.8748  -11.2207    4.3687 H   0  0  0  0  0  0  0  0  0  0  0  0
    4.1058   -9.7962    4.2286 H   0  0  0  0  0  0  0  0  0  0  0  0
    2.9502  -11.6844    3.8304 H   0  0  0  0  0  0  0  0  0  0  0  0
    3.0109  -11.4196    2.0837 H   0  0  0  0  0  0  0  0  0  0  0  0
    4.3958  -10.3724    0.8825 H   0  0  0  0  0  0  0  0  0  0  0  0
    6.4816   -8.9952    4.6233 H   0  0  0  0  0  0  0  0  0  0  0  0
  1  2  1  0
  1 28  1  0
  1 29  1  0
  1 30  1  0
  2  3  2  3
  2 10  1  0
  3  4  1  0
  4  5  1  0
  5  6  1  0
  5 31  1  0
  5 32  1  0
  6  7  1  0
  6  8  1  0
  6 33  1  1
  7 34  1  0
  8  9  1  0
  8 35  1  0
  8 36  1  0
  9 37  1  0
 10 19  1  0
 10 11  1  0
 10 38  1  6
 11 12  1  0
 12 18  2  0
 12 13  1  0
 13 14  1  0
 13 15  2  0
 14 39  1  0
 15 16  1  0
 15 40  1  0
 16 17  2  0
 16 41  1  0
 17 25  1  0
 17 18  1  0
 18 19  1  0
 19 26  1  0
 19 20  1  1
 20 21  1  0
 20 42  1  0
 20 43  1  0
 21 26  1  0
 21 22  1  0
 21 44  1  6
 22 23  1  0
 22 45  1  0
 22 52  1  0
 23 24  1  0
 23 46  1  0
 23 47  1  0
 24 25  1  0
 24 26  1  0
 24 48  1  1
 25 49  1  0
 25 50  1  0
 26 27  1  6
 27 51  1  0
M  CHG  1  22   1
M  END
>  <i_m_ct_stereo_status>  (167) 
1

>  <s_m_source_file>  (167) 
/var/tmp/pbs.5076255.sched01/tmpxnahmhzs/434e81vi2s.sdf

>  <i_m_source_file_index>  (167) 
26

>  <i_lp_mmshare_version>  (167) 
48012

>  <i_f3d_flags>  (167) 
0

>  <s_epik_input>  (167) 
W09IXVtDSDJdW0NAQEhdKFtPSF0pW0NIMl1PL049QyhcW0NIM10pW0NAQEhdMU9jKGMyW0NAQF0xMzQpYyhbT0hdKVtjSF1bY0hdYzJbQ0gyXVtDQEBIXTVbQ0BdNChbT0hdKVtDQEBIXShbQ0gyXTMpW05IXVtDSDJdNQ==

>  <s_epik_cmdline>  (167) 
J2VwaWtfcHl0aG9uJywgJy1waHQnLCAnMi4wJywgJy1waCcsICc3LjAnLCAnLXRuJywgJzgnLCAnLW1hJywgJzIwMCcsICctaW1hZScsICc8aW5maWxlLm1hZT4nLCAnLW9tYWUnLCAnPG91dGZpbGUubWFlPic=

>  <r_lp_tautomer_probability>  (167) 
1

>  <r_epik_Ionization_Penalty>  (167) 
0.0124512

>  <r_epik_Ionization_Penalty_Charging>  (167) 
0.00882486

>  <r_epik_Ionization_Penalty_Neutral>  (167) 
0.0036263

>  <r_epik_State_Penalty>  (167) 
0.00667057

>  <r_epik_Charging_Adjusted_Penalty>  (167) 
0.0154954

>  <i_epik_Tot_Q>  (167) 
1

>  <i_epik_Tot_abs_Q>  (167) 
1

>  <s_epik_Chemistry_Notes>  (167) 
This compound has an imine and may undergo hydrolysis.

>  <s_lp_Force_Field>  (167) 
OPLS3e

>  <r_lp_Energy>  (167) 
71.8625

>  <b_lp_Chiralities_Consistent>  (167) 
1

>  <s_lp_Variant>  (167) 
53:0-1

>  <s_i_glide_gridfile>  (167) 
pfpi4k_grid

>  <i_i_glide_lignum>  (167) 
26

>  <i_i_glide_rotatable_bonds>  (167) 
9

>  <r_i_docking_score>  (167) 
-3.68469

>  <r_i_glide_ligand_efficiency>  (167) 
-0.13647

>  <r_i_glide_ligand_efficiency_sa>  (167) 
-0.40941

>  <r_i_glide_ligand_efficiency_ln>  (167) 
-0.857735

>  <r_i_glide_gscore>  (167) 
-3.68469

>  <r_i_glide_lipo>  (167) 
-0.220307

>  <r_i_glide_hbond>  (167) 
-0.16

>  <r_i_glide_metal>  (167) 
-0

>  <r_i_glide_rewards>  (167) 
-1.37151

>  <r_i_glide_evdw>  (167) 
-24.0496

>  <r_i_glide_ecoul>  (167) 
-9.40179

>  <r_i_glide_erotb>  (167) 
0.679873

>  <r_i_glide_esite>  (167) 
0

>  <r_i_glide_emodel>  (167) 
-50.0674

>  <r_i_glide_energy>  (167) 
-33.4514

>  <r_i_glide_einternal>  (167) 
2.00454

>  <r_i_glide_intrahb_reward>  (167) 
-0.5

>  <i_i_glide_confnum>  (167) 
1

>  <i_i_glide_posenum>  (167) 
28

>  <r_i_glide_eff_state_penalty>  (167) 
0

>  <ligand_id>  (167) 
53

>  <original_smiles>  (167) 
CC(=NOCC(O)CO)C1Oc2c(O)ccc3c2C12CC1NCC(C3)C12O

>  <smiles>  (167) 
[H]Oc1c([H])c([H])c2c3c1OC([H])(C(=NOC([H])([H])C([H])(O[H])C([H])([H])O[H])C([H])([H])[H])C31C([H])([H])C3([H])C1(O[H])C([H])(C2([H])[H])C([H])([H])[N+]3([H])[H]

$$$$
53:1:0
     RDKit          3D

 52 56  0  0  1  0  0  0  0  0999 V2000
    6.0400   -6.3772    4.3784 C   0  0  0  0  0  0  0  0  0  0  0  0
    4.7550   -6.3680    3.5401 C   0  0  0  0  0  0  0  0  0  0  0  0
    4.7971   -6.0212    2.3126 N   0  0  0  0  0  0  0  0  0  0  0  0
    3.5244   -5.8385    1.7365 O   0  0  0  0  0  0  0  0  0  0  0  0
    3.6703   -5.2567    0.4450 C   0  0  0  0  0  0  0  0  0  0  0  0
    2.3698   -4.5127    0.1099 C   0  0  2  0  0  0  0  0  0  0  0  0
    1.4349   -5.4695   -0.3154 O   0  0  0  0  0  0  0  0  0  0  0  0
    2.5464   -3.4856   -1.0228 C   0  0  0  0  0  0  0  0  0  0  0  0
    3.0580   -2.2707   -0.5121 O   0  0  0  0  0  0  0  0  0  0  0  0
    3.4623   -6.6879    4.3027 C   0  0  2  0  0  0  0  0  0  0  0  0
    3.5085   -6.0944    5.6171 O   0  0  0  0  0  0  0  0  0  0  0  0
    2.6642   -6.8108    6.3970 C   0  0  0  0  0  0  0  0  0  0  0  0
    2.0782   -6.4460    7.6435 C   0  0  0  0  0  0  0  0  0  0  0  0
    2.4741   -5.3118    8.2806 O   0  0  0  0  0  0  0  0  0  0  0  0
    1.0591   -7.2515    8.1955 C   0  0  0  0  0  0  0  0  0  0  0  0
    0.5579   -8.3720    7.4967 C   0  0  0  0  0  0  0  0  0  0  0  0
    1.1279   -8.7507    6.2642 C   0  0  0  0  0  0  0  0  0  0  0  0
    2.2630   -7.9962    5.8303 C   0  0  0  0  0  0  0  0  0  0  0  0
    3.1097   -8.1859    4.5686 C   0  0  2  0  0  0  0  0  0  0  0  0
    4.2301   -9.3028    4.4245 C   0  0  0  0  0  0  0  0  0  0  0  0
    3.5953   -9.7431    3.0796 C   0  0  1  0  0  0  0  0  0  0  0  0
    3.2200  -11.1878    2.8867 N   0  0  0  0  0  0  0  0  0  0  0  0
    1.8029  -11.3775    3.3574 C   0  0  0  0  0  0  0  0  0  0  0  0
    1.6594  -10.2236    4.3307 C   0  0  2  0  0  0  0  0  0  0  0  0
    0.5611   -9.7831    5.2706 C   0  0  0  0  0  0  0  0  0  0  0  0
    2.3494   -9.0876    3.6171 C   0  0  1  0  0  0  0  0  0  0  0  0
    1.5102   -8.4541    2.6650 O   0  0  0  0  0  0  0  0  0  0  0  0
    6.2697   -7.3515    4.8261 H   0  0  0  0  0  0  0  0  0  0  0  0
    5.9692   -5.6685    5.2081 H   0  0  0  0  0  0  0  0  0  0  0  0
    6.8893   -6.0952    3.7523 H   0  0  0  0  0  0  0  0  0  0  0  0
    4.4777   -4.5263    0.4415 H   0  0  0  0  0  0  0  0  0  0  0  0
    3.9370   -6.0130   -0.2978 H   0  0  0  0  0  0  0  0  0  0  0  0
    1.9789   -4.0268    1.0033 H   0  0  0  0  0  0  0  0  0  0  0  0
    1.7853   -5.8151   -1.1323 H   0  0  0  0  0  0  0  0  0  0  0  0
    3.2139   -3.8490   -1.8029 H   0  0  0  0  0  0  0  0  0  0  0  0
    1.5981   -3.2559   -1.5044 H   0  0  0  0  0  0  0  0  0  0  0  0
    2.3284   -1.6369   -0.5395 H   0  0  0  0  0  0  0  0  0  0  0  0
    2.6095   -6.1872    3.8276 H   0  0  0  0  0  0  0  0  0  0  0  0
    3.1793   -4.8588    7.8412 H   0  0  0  0  0  0  0  0  0  0  0  0
    0.6294   -6.9616    9.1431 H   0  0  0  0  0  0  0  0  0  0  0  0
   -0.2989   -8.9118    7.8932 H   0  0  0  0  0  0  0  0  0  0  0  0
    5.2565   -9.0407    4.1719 H   0  0  0  0  0  0  0  0  0  0  0  0
    4.2000  -10.0295    5.2395 H   0  0  0  0  0  0  0  0  0  0  0  0
    4.0256   -9.2330    2.2178 H   0  0  0  0  0  0  0  0  0  0  0  0
    3.3186  -11.4552    1.9005 H   0  0  0  0  0  0  0  0  0  0  0  0
    1.1057  -11.2534    2.5230 H   0  0  0  0  0  0  0  0  0  0  0  0
    1.6419  -12.3407    3.8480 H   0  0  0  0  0  0  0  0  0  0  0  0
    2.2837  -10.6464    5.1202 H   0  0  0  0  0  0  0  0  0  0  0  0
    0.1892  -10.6446    5.8272 H   0  0  0  0  0  0  0  0  0  0  0  0
   -0.2655   -9.3479    4.7079 H   0  0  0  0  0  0  0  0  0  0  0  0
    1.0824   -9.1369    2.1722 H   0  0  0  0  0  0  0  0  0  0  0  0
    3.8383  -11.7689    3.4429 H   0  0  0  0  0  0  0  0  0  0  0  0
  1  2  1  0
  1 28  1  0
  1 29  1  0
  1 30  1  0
  2  3  2  3
  2 10  1  0
  3  4  1  0
  4  5  1  0
  5  6  1  0
  5 31  1  0
  5 32  1  0
  6  7  1  0
  6  8  1  0
  6 33  1  1
  7 34  1  0
  8  9  1  0
  8 35  1  0
  8 36  1  0
  9 37  1  0
 10 19  1  0
 10 11  1  0
 10 38  1  6
 11 12  1  0
 12 18  2  0
 12 13  1  0
 13 14  1  0
 13 15  2  0
 14 39  1  0
 15 16  1  0
 15 40  1  0
 16 17  2  0
 16 41  1  0
 17 25  1  0
 17 18  1  0
 18 19  1  0
 19 26  1  0
 19 20  1  1
 20 21  1  0
 20 42  1  0
 20 43  1  0
 21 26  1  0
 21 22  1  0
 21 44  1  6
 22 23  1  0
 22 45  1  0
 22 52  1  0
 23 24  1  0
 23 46  1  0
 23 47  1  0
 24 25  1  0
 24 26  1  0
 24 48  1  1
 25 49  1  0
 25 50  1  0
 26 27  1  6
 27 51  1  0
M  CHG  1  22   1
M  END
>  <i_m_ct_stereo_status>  (168) 
1

>  <s_m_source_file>  (168) 
/var/tmp/pbs.5076255.sched01/tmpxnahmhzs/434e81vi2s.sdf

>  <i_m_source_file_index>  (168) 
27

>  <i_lp_mmshare_version>  (168) 
48012

>  <i_f3d_flags>  (168) 
0

>  <s_epik_input>  (168) 
W09IXVtDSDJdW0NAQEhdKFtPSF0pW0NIMl1PL049QyhcW0NIM10pW0NAQEhdMU9jKGMyW0NAQF0xMzQpYyhbT0hdKVtjSF1bY0hdYzJbQ0gyXVtDQEBIXTVbQ0BdNChbT0hdKVtDQEBIXShbQ0gyXTMpW05IXVtDSDJdNQ==

>  <s_epik_cmdline>  (168) 
J2VwaWtfcHl0aG9uJywgJy1waHQnLCAnMi4wJywgJy1waCcsICc3LjAnLCAnLXRuJywgJzgnLCAnLW1hJywgJzIwMCcsICctaW1hZScsICc8aW5maWxlLm1hZT4nLCAnLW9tYWUnLCAnPG91dGZpbGUubWFlPic=

>  <r_lp_tautomer_probability>  (168) 
1

>  <r_epik_Ionization_Penalty>  (168) 
0.0124512

>  <r_epik_Ionization_Penalty_Charging>  (168) 
0.00882486

>  <r_epik_Ionization_Penalty_Neutral>  (168) 
0.0036263

>  <r_epik_State_Penalty>  (168) 
0.00667057

>  <r_epik_Charging_Adjusted_Penalty>  (168) 
0.0154954

>  <i_epik_Tot_Q>  (168) 
1

>  <i_epik_Tot_abs_Q>  (168) 
1

>  <s_epik_Chemistry_Notes>  (168) 
This compound has an imine and may undergo hydrolysis.

>  <s_lp_Force_Field>  (168) 
OPLS3e

>  <r_lp_Energy>  (168) 
73.9107

>  <b_lp_Chiralities_Consistent>  (168) 
1

>  <s_lp_Variant>  (168) 
53:0-2

>  <s_i_glide_gridfile>  (168) 
pfpi4k_grid

>  <i_i_glide_lignum>  (168) 
27

>  <i_i_glide_rotatable_bonds>  (168) 
9

>  <r_i_docking_score>  (168) 
-4.01748

>  <r_i_glide_ligand_efficiency>  (168) 
-0.148795

>  <r_i_glide_ligand_efficiency_sa>  (168) 
-0.446386

>  <r_i_glide_ligand_efficiency_ln>  (168) 
-0.935203

>  <r_i_glide_gscore>  (168) 
-4.01748

>  <r_i_glide_lipo>  (168) 
-0.159529

>  <r_i_glide_hbond>  (168) 
-0.348148

>  <r_i_glide_metal>  (168) 
-0

>  <r_i_glide_rewards>  (168) 
-0.83583

>  <r_i_glide_evdw>  (168) 
-15.9131

>  <r_i_glide_ecoul>  (168) 
-16.605

>  <r_i_glide_erotb>  (168) 
0.679873

>  <r_i_glide_esite>  (168) 
-0.0674428

>  <r_i_glide_emodel>  (168) 
-40.7319

>  <r_i_glide_energy>  (168) 
-32.5181

>  <r_i_glide_einternal>  (168) 
7.41649

>  <r_i_glide_intrahb_reward>  (168) 
-0

>  <i_i_glide_confnum>  (168) 
5

>  <i_i_glide_posenum>  (168) 
12

>  <r_i_glide_eff_state_penalty>  (168) 
0

>  <ligand_id>  (168) 
53

>  <original_smiles>  (168) 
CC(=NOCC(O)CO)C1Oc2c(O)ccc3c2C12CC1NCC(C3)C12O

>  <smiles>  (168) 
[H]Oc1c([H])c([H])c2c3c1OC([H])(C(=NOC([H])([H])C([H])(O[H])C([H])([H])O[H])C([H])([H])[H])C31C([H])([H])C3([H])C1(O[H])C([H])(C2([H])[H])C([H])([H])[N+]3([H])[H]

$$$$
53:1:1
     RDKit          3D

 52 56  0  0  1  0  0  0  0  0999 V2000
    5.2797   -8.2934    5.1625 C   0  0  0  0  0  0  0  0  0  0  0  0
    4.5447   -7.7093    3.9688 C   0  0  0  0  0  0  0  0  0  0  0  0
    5.0238   -7.8247    2.7960 N   0  0  0  0  0  0  0  0  0  0  0  0
    4.2317   -7.2164    1.8086 O   0  0  0  0  0  0  0  0  0  0  0  0
    5.0245   -6.2374    1.1442 C   0  0  0  0  0  0  0  0  0  0  0  0
    4.2125   -5.6522   -0.0162 C   0  0  2  0  0  0  0  0  0  0  0  0
    5.0146   -4.7135   -0.7063 O   0  0  0  0  0  0  0  0  0  0  0  0
    2.9196   -4.9438    0.4485 C   0  0  0  0  0  0  0  0  0  0  0  0
    1.8170   -5.3795   -0.3209 O   0  0  0  0  0  0  0  0  0  0  0  0
    3.2721   -6.9342    4.3162 C   0  0  2  0  0  0  0  0  0  0  0  0
    3.4128   -6.3209    5.6118 O   0  0  0  0  0  0  0  0  0  0  0  0
    2.1541   -6.1470    6.1096 C   0  0  0  0  0  0  0  0  0  0  0  0
    1.7283   -5.2879    7.1409 C   0  0  0  0  0  0  0  0  0  0  0  0
    2.6397   -4.6422    7.9253 O   0  0  0  0  0  0  0  0  0  0  0  0
    0.3455   -5.0717    7.3420 C   0  0  0  0  0  0  0  0  0  0  0  0
   -0.6015   -5.6342    6.4578 C   0  0  0  0  0  0  0  0  0  0  0  0
   -0.2005   -6.5085    5.4286 C   0  0  0  0  0  0  0  0  0  0  0  0
    1.1886   -6.8159    5.3816 C   0  0  0  0  0  0  0  0  0  0  0  0
    1.9273   -7.7251    4.4016 C   0  0  2  0  0  0  0  0  0  0  0  0
    1.9785   -9.3068    4.5400 C   0  0  0  0  0  0  0  0  0  0  0  0
    1.5326   -9.4443    3.0518 C   0  0  1  0  0  0  0  0  0  0  0  0
    0.2995  -10.2393    2.7100 N   0  0  0  0  0  0  0  0  0  0  0  0
   -0.9003   -9.3394    2.7273 C   0  0  0  0  0  0  0  0  0  0  0  0
   -0.4180   -8.2720    3.6790 C   0  0  2  0  0  0  0  0  0  0  0  0
   -1.0698   -7.0404    4.2716 C   0  0  0  0  0  0  0  0  0  0  0  0
    1.0074   -8.0472    3.2374 C   0  0  1  0  0  0  0  0  0  0  0  0
    1.0617   -7.2100    2.1051 O   0  0  0  0  0  0  0  0  0  0  0  0
    4.6586   -8.9969    5.7129 H   0  0  0  0  0  0  0  0  0  0  0  0
    5.5698   -7.5079    5.8610 H   0  0  0  0  0  0  0  0  0  0  0  0
    6.1816   -8.8132    4.8436 H   0  0  0  0  0  0  0  0  0  0  0  0
    5.3092   -5.4524    1.8461 H   0  0  0  0  0  0  0  0  0  0  0  0
    5.9477   -6.6820    0.7647 H   0  0  0  0  0  0  0  0  0  0  0  0
    4.0014   -6.4749   -0.6985 H   0  0  0  0  0  0  0  0  0  0  0  0
    4.5771   -4.5039   -1.5212 H   0  0  0  0  0  0  0  0  0  0  0  0
    2.7081   -5.1719    1.4929 H   0  0  0  0  0  0  0  0  0  0  0  0
    3.0110   -3.8561    0.4046 H   0  0  0  0  0  0  0  0  0  0  0  0
    2.1099   -5.4465   -1.2311 H   0  0  0  0  0  0  0  0  0  0  0  0
    3.1561   -6.1002    3.6246 H   0  0  0  0  0  0  0  0  0  0  0  0
    2.2515   -4.1116    8.6036 H   0  0  0  0  0  0  0  0  0  0  0  0
    0.0098   -4.4228    8.1325 H   0  0  0  0  0  0  0  0  0  0  0  0
   -1.6437   -5.3817    6.5675 H   0  0  0  0  0  0  0  0  0  0  0  0
    2.9549   -9.7651    4.6898 H   0  0  0  0  0  0  0  0  0  0  0  0
    1.2872   -9.7138    5.2858 H   0  0  0  0  0  0  0  0  0  0  0  0
    2.3646   -9.5415    2.3498 H   0  0  0  0  0  0  0  0  0  0  0  0
    0.3862  -10.5991    1.7702 H   0  0  0  0  0  0  0  0  0  0  0  0
   -1.0752   -8.9216    1.7348 H   0  0  0  0  0  0  0  0  0  0  0  0
   -1.7985   -9.8517    3.0654 H   0  0  0  0  0  0  0  0  0  0  0  0
   -0.4550   -8.8653    4.5912 H   0  0  0  0  0  0  0  0  0  0  0  0
   -2.0593   -7.2840    4.6492 H   0  0  0  0  0  0  0  0  0  0  0  0
   -1.1789   -6.2610    3.5235 H   0  0  0  0  0  0  0  0  0  0  0  0
    1.9575   -7.2393    1.7888 H   0  0  0  0  0  0  0  0  0  0  0  0
    0.1746  -10.9965    3.3696 H   0  0  0  0  0  0  0  0  0  0  0  0
  1  2  1  0
  1 28  1  0
  1 29  1  0
  1 30  1  0
  2  3  2  3
  2 10  1  0
  3  4  1  0
  4  5  1  0
  5  6  1  0
  5 31  1  0
  5 32  1  0
  6  7  1  0
  6  8  1  0
  6 33  1  6
  7 34  1  0
  8  9  1  0
  8 35  1  0
  8 36  1  0
  9 37  1  0
 10 19  1  0
 10 11  1  0
 10 38  1  6
 11 12  1  0
 12 18  2  0
 12 13  1  0
 13 14  1  0
 13 15  2  0
 14 39  1  0
 15 16  1  0
 15 40  1  0
 16 17  2  0
 16 41  1  0
 17 25  1  0
 17 18  1  0
 18 19  1  0
 19 26  1  0
 19 20  1  1
 20 21  1  0
 20 42  1  0
 20 43  1  0
 21 26  1  0
 21 22  1  0
 21 44  1  6
 22 23  1  0
 22 45  1  0
 22 52  1  0
 23 24  1  0
 23 46  1  0
 23 47  1  0
 24 25  1  0
 24 26  1  0
 24 48  1  1
 25 49  1  0
 25 50  1  0
 26 27  1  6
 27 51  1  0
M  CHG  1  22   1
M  END
>  <i_m_ct_stereo_status>  (169) 
1

>  <s_m_source_file>  (169) 
/var/tmp/pbs.5076255.sched01/tmpxnahmhzs/434e81vi2s.sdf

>  <i_m_source_file_index>  (169) 
27

>  <i_lp_mmshare_version>  (169) 
48012

>  <i_f3d_flags>  (169) 
0

>  <s_epik_input>  (169) 
W09IXVtDSDJdW0NAQEhdKFtPSF0pW0NIMl1PL049QyhcW0NIM10pW0NAQEhdMU9jKGMyW0NAQF0xMzQpYyhbT0hdKVtjSF1bY0hdYzJbQ0gyXVtDQEBIXTVbQ0BdNChbT0hdKVtDQEBIXShbQ0gyXTMpW05IXVtDSDJdNQ==

>  <s_epik_cmdline>  (169) 
J2VwaWtfcHl0aG9uJywgJy1waHQnLCAnMi4wJywgJy1waCcsICc3LjAnLCAnLXRuJywgJzgnLCAnLW1hJywgJzIwMCcsICctaW1hZScsICc8aW5maWxlLm1hZT4nLCAnLW9tYWUnLCAnPG91dGZpbGUubWFlPic=

>  <r_lp_tautomer_probability>  (169) 
1

>  <r_epik_Ionization_Penalty>  (169) 
0.0124512

>  <r_epik_Ionization_Penalty_Charging>  (169) 
0.00882486

>  <r_epik_Ionization_Penalty_Neutral>  (169) 
0.0036263

>  <r_epik_State_Penalty>  (169) 
0.00667057

>  <r_epik_Charging_Adjusted_Penalty>  (169) 
0.0154954

>  <i_epik_Tot_Q>  (169) 
1

>  <i_epik_Tot_abs_Q>  (169) 
1

>  <s_epik_Chemistry_Notes>  (169) 
This compound has an imine and may undergo hydrolysis.

>  <s_lp_Force_Field>  (169) 
OPLS3e

>  <r_lp_Energy>  (169) 
73.9107

>  <b_lp_Chiralities_Consistent>  (169) 
1

>  <s_lp_Variant>  (169) 
53:0-2

>  <s_i_glide_gridfile>  (169) 
pfpi4k_grid

>  <i_i_glide_lignum>  (169) 
27

>  <i_i_glide_rotatable_bonds>  (169) 
9

>  <r_i_docking_score>  (169) 
-3.5043

>  <r_i_glide_ligand_efficiency>  (169) 
-0.129789

>  <r_i_glide_ligand_efficiency_sa>  (169) 
-0.389367

>  <r_i_glide_ligand_efficiency_ln>  (169) 
-0.815744

>  <r_i_glide_gscore>  (169) 
-3.5043

>  <r_i_glide_lipo>  (169) 
-0.238634

>  <r_i_glide_hbond>  (169) 
0

>  <r_i_glide_metal>  (169) 
-0

>  <r_i_glide_rewards>  (169) 
-1.33583

>  <r_i_glide_evdw>  (169) 
-17.5686

>  <r_i_glide_ecoul>  (169) 
-11.541

>  <r_i_glide_erotb>  (169) 
0.679873

>  <r_i_glide_esite>  (169) 
-0.000123891

>  <r_i_glide_emodel>  (169) 
-40.52

>  <r_i_glide_energy>  (169) 
-29.1096

>  <r_i_glide_einternal>  (169) 
8.65731

>  <r_i_glide_intrahb_reward>  (169) 
-0.5

>  <i_i_glide_confnum>  (169) 
4

>  <i_i_glide_posenum>  (169) 
17

>  <r_i_glide_eff_state_penalty>  (169) 
0

>  <ligand_id>  (169) 
53

>  <original_smiles>  (169) 
CC(=NOCC(O)CO)C1Oc2c(O)ccc3c2C12CC1NCC(C3)C12O

>  <smiles>  (169) 
[H]Oc1c([H])c([H])c2c3c1OC([H])(C(=NOC([H])([H])C([H])(O[H])C([H])([H])O[H])C([H])([H])[H])C31C([H])([H])C3([H])C1(O[H])C([H])(C2([H])[H])C([H])([H])[N+]3([H])[H]

$$$$
53:1:2
     RDKit          3D

 52 56  0  0  1  0  0  0  0  0999 V2000
    2.4005   -3.5516    2.9469 C   0  0  0  0  0  0  0  0  0  0  0  0
    2.9289   -4.3785    1.7815 C   0  0  0  0  0  0  0  0  0  0  0  0
    3.7440   -3.8674    0.9537 N   0  0  0  0  0  0  0  0  0  0  0  0
    4.0737   -4.7261   -0.1098 O   0  0  0  0  0  0  0  0  0  0  0  0
    4.8745   -4.0043   -1.0376 C   0  0  0  0  0  0  0  0  0  0  0  0
    4.0854   -2.8983   -1.7909 C   0  0  2  0  0  0  0  0  0  0  0  0
    3.6185   -3.4591   -3.0016 O   0  0  0  0  0  0  0  0  0  0  0  0
    4.9540   -1.6713   -2.1183 C   0  0  0  0  0  0  0  0  0  0  0  0
    5.4347   -1.0571   -0.9422 O   0  0  0  0  0  0  0  0  0  0  0  0
    2.3769   -5.8015    1.6831 C   0  0  2  0  0  0  0  0  0  0  0  0
    1.0363   -5.8445    2.2054 O   0  0  0  0  0  0  0  0  0  0  0  0
    0.8232   -7.1221    2.6414 C   0  0  0  0  0  0  0  0  0  0  0  0
   -0.3992   -7.7695    2.8939 C   0  0  0  0  0  0  0  0  0  0  0  0
   -1.5628   -7.0582    2.9053 O   0  0  0  0  0  0  0  0  0  0  0  0
   -0.4198   -9.1721    3.1057 C   0  0  0  0  0  0  0  0  0  0  0  0
    0.7646   -9.9388    2.9805 C   0  0  0  0  0  0  0  0  0  0  0  0
    2.0008   -9.3089    2.7432 C   0  0  0  0  0  0  0  0  0  0  0  0
    1.9783   -7.8798    2.6930 C   0  0  0  0  0  0  0  0  0  0  0  0
    3.1416   -6.9213    2.4607 C   0  0  2  0  0  0  0  0  0  0  0  0
    4.1665   -6.5040    3.6018 C   0  0  0  0  0  0  0  0  0  0  0  0
    5.3479   -6.8541    2.6586 C   0  0  1  0  0  0  0  0  0  0  0  0
    6.3851   -7.8464    3.1050 N   0  0  0  0  0  0  0  0  0  0  0  0
    5.9695   -9.2288    2.6997 C   0  0  0  0  0  0  0  0  0  0  0  0
    4.4776   -9.0405    2.6245 C   0  0  2  0  0  0  0  0  0  0  0  0
    3.3262   -9.9793    2.3404 C   0  0  0  0  0  0  0  0  0  0  0  0
    4.3390   -7.6990    1.9507 C   0  0  1  0  0  0  0  0  0  0  0  0
    4.5292   -7.7957    0.5587 O   0  0  0  0  0  0  0  0  0  0  0  0
    2.6603   -3.9892    3.9088 H   0  0  0  0  0  0  0  0  0  0  0  0
    1.3121   -3.4783    2.9217 H   0  0  0  0  0  0  0  0  0  0  0  0
    2.8140   -2.5433    2.9168 H   0  0  0  0  0  0  0  0  0  0  0  0
    5.7277   -3.5976   -0.4958 H   0  0  0  0  0  0  0  0  0  0  0  0
    5.3180   -4.6993   -1.7505 H   0  0  0  0  0  0  0  0  0  0  0  0
    3.2176   -2.5476   -1.2280 H   0  0  0  0  0  0  0  0  0  0  0  0
    3.2164   -4.3055   -2.7961 H   0  0  0  0  0  0  0  0  0  0  0  0
    5.8132   -1.9639   -2.7190 H   0  0  0  0  0  0  0  0  0  0  0  0
    4.3774   -0.9346   -2.6788 H   0  0  0  0  0  0  0  0  0  0  0  0
    4.6916   -0.7527   -0.4374 H   0  0  0  0  0  0  0  0  0  0  0  0
    2.2764   -6.0834    0.6314 H   0  0  0  0  0  0  0  0  0  0  0  0
   -2.3017   -7.6153    3.1131 H   0  0  0  0  0  0  0  0  0  0  0  0
   -1.3523   -9.6789    3.3008 H   0  0  0  0  0  0  0  0  0  0  0  0
    0.7058  -11.0217    3.0337 H   0  0  0  0  0  0  0  0  0  0  0  0
    4.2379   -5.4558    3.8732 H   0  0  0  0  0  0  0  0  0  0  0  0
    4.0815   -7.0991    4.5143 H   0  0  0  0  0  0  0  0  0  0  0  0
    5.7068   -6.0051    2.0755 H   0  0  0  0  0  0  0  0  0  0  0  0
    7.2594   -7.6389    2.6396 H   0  0  0  0  0  0  0  0  0  0  0  0
    6.3760   -9.4714    1.7190 H   0  0  0  0  0  0  0  0  0  0  0  0
    6.2813   -9.9851    3.4174 H   0  0  0  0  0  0  0  0  0  0  0  0
    4.2854   -8.9656    3.6953 H   0  0  0  0  0  0  0  0  0  0  0  0
    3.4387  -10.9029    2.9082 H   0  0  0  0  0  0  0  0  0  0  0  0
    3.2876  -10.2271    1.2803 H   0  0  0  0  0  0  0  0  0  0  0  0
    4.1728   -8.6302    0.2959 H   0  0  0  0  0  0  0  0  0  0  0  0
    6.5015   -7.7961    4.1110 H   0  0  0  0  0  0  0  0  0  0  0  0
  1  2  1  0
  1 28  1  0
  1 29  1  0
  1 30  1  0
  2  3  2  3
  2 10  1  0
  3  4  1  0
  4  5  1  0
  5  6  1  0
  5 31  1  0
  5 32  1  0
  6  7  1  0
  6  8  1  0
  6 33  1  1
  7 34  1  0
  8  9  1  0
  8 35  1  0
  8 36  1  0
  9 37  1  0
 10 19  1  0
 10 11  1  0
 10 38  1  6
 11 12  1  0
 12 18  2  0
 12 13  1  0
 13 14  1  0
 13 15  2  0
 14 39  1  0
 15 16  1  0
 15 40  1  0
 16 17  2  0
 16 41  1  0
 17 25  1  0
 17 18  1  0
 18 19  1  0
 19 26  1  0
 19 20  1  1
 20 21  1  0
 20 42  1  0
 20 43  1  0
 21 26  1  0
 21 22  1  0
 21 44  1  6
 22 23  1  0
 22 45  1  0
 22 52  1  0
 23 24  1  0
 23 46  1  0
 23 47  1  0
 24 25  1  0
 24 26  1  0
 24 48  1  1
 25 49  1  0
 25 50  1  0
 26 27  1  6
 27 51  1  0
M  CHG  1  22   1
M  END
>  <i_m_ct_stereo_status>  (170) 
1

>  <s_m_source_file>  (170) 
/var/tmp/pbs.5076255.sched01/tmpxnahmhzs/434e81vi2s.sdf

>  <i_m_source_file_index>  (170) 
27

>  <i_lp_mmshare_version>  (170) 
48012

>  <i_f3d_flags>  (170) 
0

>  <s_epik_input>  (170) 
W09IXVtDSDJdW0NAQEhdKFtPSF0pW0NIMl1PL049QyhcW0NIM10pW0NAQEhdMU9jKGMyW0NAQF0xMzQpYyhbT0hdKVtjSF1bY0hdYzJbQ0gyXVtDQEBIXTVbQ0BdNChbT0hdKVtDQEBIXShbQ0gyXTMpW05IXVtDSDJdNQ==

>  <s_epik_cmdline>  (170) 
J2VwaWtfcHl0aG9uJywgJy1waHQnLCAnMi4wJywgJy1waCcsICc3LjAnLCAnLXRuJywgJzgnLCAnLW1hJywgJzIwMCcsICctaW1hZScsICc8aW5maWxlLm1hZT4nLCAnLW9tYWUnLCAnPG91dGZpbGUubWFlPic=

>  <r_lp_tautomer_probability>  (170) 
1

>  <r_epik_Ionization_Penalty>  (170) 
0.0124512

>  <r_epik_Ionization_Penalty_Charging>  (170) 
0.00882486

>  <r_epik_Ionization_Penalty_Neutral>  (170) 
0.0036263

>  <r_epik_State_Penalty>  (170) 
0.00667057

>  <r_epik_Charging_Adjusted_Penalty>  (170) 
0.0154954

>  <i_epik_Tot_Q>  (170) 
1

>  <i_epik_Tot_abs_Q>  (170) 
1

>  <s_epik_Chemistry_Notes>  (170) 
This compound has an imine and may undergo hydrolysis.

>  <s_lp_Force_Field>  (170) 
OPLS3e

>  <r_lp_Energy>  (170) 
73.9107

>  <b_lp_Chiralities_Consistent>  (170) 
1

>  <s_lp_Variant>  (170) 
53:0-2

>  <s_i_glide_gridfile>  (170) 
pfpi4k_grid

>  <i_i_glide_lignum>  (170) 
27

>  <i_i_glide_rotatable_bonds>  (170) 
9

>  <r_i_docking_score>  (170) 
-3.01227

>  <r_i_glide_ligand_efficiency>  (170) 
-0.111565

>  <r_i_glide_ligand_efficiency_sa>  (170) 
-0.334696

>  <r_i_glide_ligand_efficiency_ln>  (170) 
-0.701206

>  <r_i_glide_gscore>  (170) 
-3.01227

>  <r_i_glide_lipo>  (170) 
-0.106316

>  <r_i_glide_hbond>  (170) 
-0.0612857

>  <r_i_glide_metal>  (170) 
-0

>  <r_i_glide_rewards>  (170) 
-0.83583

>  <r_i_glide_evdw>  (170) 
-26.196

>  <r_i_glide_ecoul>  (170) 
-9.04693

>  <r_i_glide_erotb>  (170) 
0.679873

>  <r_i_glide_esite>  (170) 
-0.0218676

>  <r_i_glide_emodel>  (170) 
-42.2972

>  <r_i_glide_energy>  (170) 
-35.2429

>  <r_i_glide_einternal>  (170) 
4.49263

>  <r_i_glide_intrahb_reward>  (170) 
-0

>  <i_i_glide_confnum>  (170) 
1

>  <i_i_glide_posenum>  (170) 
3

>  <r_i_glide_eff_state_penalty>  (170) 
0

>  <ligand_id>  (170) 
53

>  <original_smiles>  (170) 
CC(=NOCC(O)CO)C1Oc2c(O)ccc3c2C12CC1NCC(C3)C12O

>  <smiles>  (170) 
[H]Oc1c([H])c([H])c2c3c1OC([H])(C(=NOC([H])([H])C([H])(O[H])C([H])([H])O[H])C([H])([H])[H])C31C([H])([H])C3([H])C1(O[H])C([H])(C2([H])[H])C([H])([H])[N+]3([H])[H]

$$$$
53:2:0
     RDKit          3D

 51 55  0  0  1  0  0  0  0  0999 V2000
    4.5369   -6.1433   -0.0670 C   0  0  0  0  0  0  0  0  0  0  0  0
    3.3605   -5.7703    0.8192 C   0  0  0  0  0  0  0  0  0  0  0  0
    2.8518   -4.6040    0.8904 N   0  0  0  0  0  0  0  0  0  0  0  0
    3.5558   -3.6292    0.1693 O   0  0  0  0  0  0  0  0  0  0  0  0
    2.8171   -3.3319   -1.0003 C   0  0  0  0  0  0  0  0  0  0  0  0
    3.6619   -2.3798   -1.8633 C   0  0  2  0  0  0  0  0  0  0  0  0
    3.4169   -1.0725   -1.4114 O   0  0  0  0  0  0  0  0  0  0  0  0
    3.3083   -2.4653   -3.3580 C   0  0  0  0  0  0  0  0  0  0  0  0
    3.8126   -3.6587   -3.9294 O   0  0  0  0  0  0  0  0  0  0  0  0
    2.7175   -6.9301    1.5861 C   0  0  2  0  0  0  0  0  0  0  0  0
    1.4268   -6.5420    2.1307 O   0  0  0  0  0  0  0  0  0  0  0  0
    1.1839   -7.3993    3.1708 C   0  0  0  0  0  0  0  0  0  0  0  0
   -0.0561   -7.7235    3.7639 C   0  0  0  0  0  0  0  0  0  0  0  0
   -1.1842   -7.0357    3.4283 O   0  0  0  0  0  0  0  0  0  0  0  0
   -0.1391   -8.8018    4.6814 C   0  0  0  0  0  0  0  0  0  0  0  0
    0.9819   -9.6298    4.9280 C   0  0  0  0  0  0  0  0  0  0  0  0
    2.2309   -9.3354    4.3376 C   0  0  0  0  0  0  0  0  0  0  0  0
    2.2928   -8.1281    3.5645 C   0  0  0  0  0  0  0  0  0  0  0  0
    3.4922   -7.5416    2.8087 C   0  0  2  0  0  0  0  0  0  0  0  0
    4.6080   -6.6664    3.4979 C   0  0  0  0  0  0  0  0  0  0  0  0
    5.7285   -7.6178    2.9786 C   0  0  1  0  0  0  0  0  0  0  0  0
    6.7315   -8.2923    3.8254 N   0  0  0  0  0  0  0  0  0  0  0  0
    6.1913   -9.6309    4.2000 C   0  0  0  0  0  0  0  0  0  0  0  0
    4.6995   -9.3850    4.0250 C   0  0  2  0  0  0  0  0  0  0  0  0
    3.4849  -10.2354    4.3205 C   0  0  0  0  0  0  0  0  0  0  0  0
    4.5983   -8.5758    2.7554 C   0  0  1  0  0  0  0  0  0  0  0  0
    4.6503   -9.3612    1.5787 O   0  0  0  0  0  0  0  0  0  0  0  0
    4.2201   -6.8629   -0.8253 H   0  0  0  0  0  0  0  0  0  0  0  0
    5.3177   -6.5881    0.5112 H   0  0  0  0  0  0  0  0  0  0  0  0
    4.9727   -5.2866   -0.5858 H   0  0  0  0  0  0  0  0  0  0  0  0
    2.6377   -4.2535   -1.5356 H   0  0  0  0  0  0  0  0  0  0  0  0
    1.8285   -2.9413   -0.7533 H   0  0  0  0  0  0  0  0  0  0  0  0
    4.7282   -2.5911   -1.7523 H   0  0  0  0  0  0  0  0  0  0  0  0
    2.4805   -1.0148   -1.2199 H   0  0  0  0  0  0  0  0  0  0  0  0
    2.2290   -2.3848   -3.5095 H   0  0  0  0  0  0  0  0  0  0  0  0
    3.7703   -1.6363   -3.8890 H   0  0  0  0  0  0  0  0  0  0  0  0
    3.4317   -4.3972   -3.4718 H   0  0  0  0  0  0  0  0  0  0  0  0
    2.5046   -7.7230    0.8904 H   0  0  0  0  0  0  0  0  0  0  0  0
   -1.9356   -7.3991    3.8621 H   0  0  0  0  0  0  0  0  0  0  0  0
   -1.0779   -9.0582    5.1301 H   0  0  0  0  0  0  0  0  0  0  0  0
    0.8613  -10.5239    5.5333 H   0  0  0  0  0  0  0  0  0  0  0  0
    4.6905   -5.6671    3.0849 H   0  0  0  0  0  0  0  0  0  0  0  0
    4.5085   -6.6260    4.5885 H   0  0  0  0  0  0  0  0  0  0  0  0
    6.2021   -7.2758    2.0672 H   0  0  0  0  0  0  0  0  0  0  0  0
    7.5602   -8.4498    3.2612 H   0  0  0  0  0  0  0  0  0  0  0  0
    6.5364  -10.3821    3.4800 H   0  0  0  0  0  0  0  0  0  0  0  0
    6.4864   -9.9155    5.2163 H   0  0  0  0  0  0  0  0  0  0  0  0
    4.5708   -8.7316    4.8917 H   0  0  0  0  0  0  0  0  0  0  0  0
    3.5986  -10.7052    5.2958 H   0  0  0  0  0  0  0  0  0  0  0  0
    3.3647  -11.0207    3.5737 H   0  0  0  0  0  0  0  0  0  0  0  0
    4.2333  -10.1877    1.7788 H   0  0  0  0  0  0  0  0  0  0  0  0
  1  2  1  0
  1 28  1  0
  1 29  1  0
  1 30  1  0
  2  3  2  3
  2 10  1  0
  3  4  1  0
  4  5  1  0
  5  6  1  0
  5 31  1  0
  5 32  1  0
  6  7  1  0
  6  8  1  0
  6 33  1  6
  7 34  1  0
  8  9  1  0
  8 35  1  0
  8 36  1  0
  9 37  1  0
 10 19  1  0
 10 11  1  0
 10 38  1  6
 11 12  1  0
 12 18  2  0
 12 13  1  0
 13 14  1  0
 13 15  2  0
 14 39  1  0
 15 16  1  0
 15 40  1  0
 16 17  2  0
 16 41  1  0
 17 25  1  0
 17 18  1  0
 18 19  1  0
 19 26  1  0
 19 20  1  1
 20 21  1  0
 20 42  1  0
 20 43  1  0
 21 26  1  0
 21 22  1  0
 21 44  1  6
 22 23  1  0
 22 45  1  0
 23 24  1  0
 23 46  1  0
 23 47  1  0
 24 25  1  0
 24 26  1  0
 24 48  1  1
 25 49  1  0
 25 50  1  0
 26 27  1  6
 27 51  1  0
M  END
>  <i_m_ct_stereo_status>  (171) 
1

>  <s_m_source_file>  (171) 
/var/tmp/pbs.5076255.sched01/tmpxnahmhzs/434e81vi2s.sdf

>  <i_m_source_file_index>  (171) 
28

>  <i_lp_mmshare_version>  (171) 
48012

>  <i_f3d_flags>  (171) 
0

>  <s_epik_input>  (171) 
W09IXVtDSDJdW0NAQEhdKFtPSF0pW0NIMl1PL049QyhcW0NIM10pW0NAQEhdMU9jKGMyW0NAQF0xMzQpYyhbT0hdKVtjSF1bY0hdYzJbQ0gyXVtDQEBIXTVbQ0BdNChbT0hdKVtDQEBIXShbQ0gyXTMpW05IXVtDSDJdNQ==

>  <s_epik_cmdline>  (171) 
J2VwaWtfcHl0aG9uJywgJy1waHQnLCAnMi4wJywgJy1waCcsICc3LjAnLCAnLXRuJywgJzgnLCAnLW1hJywgJzIwMCcsICctaW1hZScsICc8aW5maWxlLm1hZT4nLCAnLW9tYWUnLCAnPG91dGZpbGUubWFlPic=

>  <r_lp_tautomer_probability>  (171) 
1

>  <r_epik_Ionization_Penalty>  (171) 
2.49769

>  <r_epik_Ionization_Penalty_Charging>  (171) 
0

>  <r_epik_Ionization_Penalty_Neutral>  (171) 
2.49769

>  <r_epik_State_Penalty>  (171) 
2.66159

>  <r_epik_Charging_Adjusted_Penalty>  (171) 
2.66159

>  <i_epik_Tot_Q>  (171) 
0

>  <i_epik_Tot_abs_Q>  (171) 
0

>  <s_epik_Chemistry_Notes>  (171) 
This compound has an imine and may undergo hydrolysis.

>  <s_lp_Force_Field>  (171) 
OPLS3e

>  <r_lp_Energy>  (171) 
72.5641

>  <b_lp_Chiralities_Consistent>  (171) 
1

>  <s_lp_Variant>  (171) 
53:0-3

>  <s_i_glide_gridfile>  (171) 
pfpi4k_grid

>  <i_i_glide_lignum>  (171) 
28

>  <i_i_glide_rotatable_bonds>  (171) 
9

>  <r_i_docking_score>  (171) 
-3.76795

>  <r_i_glide_ligand_efficiency>  (171) 
-0.139554

>  <r_i_glide_ligand_efficiency_sa>  (171) 
-0.418661

>  <r_i_glide_ligand_efficiency_ln>  (171) 
-0.877116

>  <r_i_glide_gscore>  (171) 
-3.76795

>  <r_i_glide_lipo>  (171) 
-0.234038

>  <r_i_glide_hbond>  (171) 
-0.305045

>  <r_i_glide_metal>  (171) 
-0

>  <r_i_glide_rewards>  (171) 
-0.842702

>  <r_i_glide_evdw>  (171) 
-23.5773

>  <r_i_glide_ecoul>  (171) 
-12.4502

>  <r_i_glide_erotb>  (171) 
0.683136

>  <r_i_glide_esite>  (171) 
-0.0229036

>  <r_i_glide_emodel>  (171) 
-42.6836

>  <r_i_glide_energy>  (171) 
-36.0275

>  <r_i_glide_einternal>  (171) 
6.90587

>  <r_i_glide_intrahb_reward>  (171) 
-0

>  <i_i_glide_confnum>  (171) 
4

>  <i_i_glide_posenum>  (171) 
18

>  <r_i_glide_eff_state_penalty>  (171) 
0

>  <ligand_id>  (171) 
53

>  <original_smiles>  (171) 
CC(=NOCC(O)CO)C1Oc2c(O)ccc3c2C12CC1NCC(C3)C12O

>  <smiles>  (171) 
[H]Oc1c([H])c([H])c2c3c1OC([H])(C(=NOC([H])([H])C([H])(O[H])C([H])([H])O[H])C([H])([H])[H])C31C([H])([H])C3([H])N([H])C([H])([H])C([H])(C2([H])[H])C31O[H]

$$$$
53:2:1
     RDKit          3D

 51 55  0  0  1  0  0  0  0  0999 V2000
    4.9395   -6.2131    0.4210 C   0  0  0  0  0  0  0  0  0  0  0  0
    3.4930   -5.8574    0.7357 C   0  0  0  0  0  0  0  0  0  0  0  0
    2.8217   -4.9225    0.1952 N   0  0  0  0  0  0  0  0  0  0  0  0
    3.5666   -4.1781   -0.7253 O   0  0  0  0  0  0  0  0  0  0  0  0
    2.7045   -3.2201   -1.3106 C   0  0  0  0  0  0  0  0  0  0  0  0
    3.5030   -2.4017   -2.3411 C   0  0  2  0  0  0  0  0  0  0  0  0
    3.0154   -1.0804   -2.3488 O   0  0  0  0  0  0  0  0  0  0  0  0
    3.4155   -2.9656   -3.7724 C   0  0  0  0  0  0  0  0  0  0  0  0
    4.2245   -4.1129   -3.9210 O   0  0  0  0  0  0  0  0  0  0  0  0
    2.8539   -6.7710    1.7719 C   0  0  2  0  0  0  0  0  0  0  0  0
    1.4694   -7.0154    1.4432 O   0  0  0  0  0  0  0  0  0  0  0  0
    0.8628   -7.3597    2.6185 C   0  0  0  0  0  0  0  0  0  0  0  0
   -0.3454   -8.0580    2.8197 C   0  0  0  0  0  0  0  0  0  0  0  0
   -1.1561   -8.3420    1.7630 O   0  0  0  0  0  0  0  0  0  0  0  0
   -0.6928   -8.5048    4.1155 C   0  0  0  0  0  0  0  0  0  0  0  0
    0.1999   -8.3555    5.2040 C   0  0  0  0  0  0  0  0  0  0  0  0
    1.4134   -7.6550    5.0319 C   0  0  0  0  0  0  0  0  0  0  0  0
    1.6220   -7.0830    3.7378 C   0  0  0  0  0  0  0  0  0  0  0  0
    2.8130   -6.2666    3.2470 C   0  0  2  0  0  0  0  0  0  0  0  0
    2.9808   -4.7239    3.5119 C   0  0  0  0  0  0  0  0  0  0  0  0
    4.4015   -4.9742    4.1022 C   0  0  1  0  0  0  0  0  0  0  0  0
    4.8337   -4.5175    5.4503 N   0  0  0  0  0  0  0  0  0  0  0  0
    4.5048   -5.5950    6.4305 C   0  0  0  0  0  0  0  0  0  0  0  0
    3.4301   -6.3636    5.6846 C   0  0  2  0  0  0  0  0  0  0  0  0
    2.5769   -7.5603    6.0448 C   0  0  0  0  0  0  0  0  0  0  0  0
    3.9260   -6.3876    4.2625 C   0  0  1  0  0  0  0  0  0  0  0  0
    4.8820   -7.3986    4.0213 O   0  0  0  0  0  0  0  0  0  0  0  0
    4.9838   -7.2220    0.0096 H   0  0  0  0  0  0  0  0  0  0  0  0
    5.5352   -6.1941    1.3333 H   0  0  0  0  0  0  0  0  0  0  0  0
    5.4017   -5.5387   -0.3004 H   0  0  0  0  0  0  0  0  0  0  0  0
    1.8347   -3.6880   -1.7798 H   0  0  0  0  0  0  0  0  0  0  0  0
    2.3280   -2.5851   -0.5071 H   0  0  0  0  0  0  0  0  0  0  0  0
    4.5468   -2.3281   -2.0293 H   0  0  0  0  0  0  0  0  0  0  0  0
    2.1544   -1.0614   -1.9250 H   0  0  0  0  0  0  0  0  0  0  0  0
    2.3873   -3.2131   -4.0399 H   0  0  0  0  0  0  0  0  0  0  0  0
    3.7634   -2.2240   -4.4907 H   0  0  0  0  0  0  0  0  0  0  0  0
    3.8883   -4.7984   -3.3472 H   0  0  0  0  0  0  0  0  0  0  0  0
    3.3610   -7.7371    1.7304 H   0  0  0  0  0  0  0  0  0  0  0  0
   -0.6912   -8.7383    1.0317 H   0  0  0  0  0  0  0  0  0  0  0  0
   -1.6116   -9.0518    4.2566 H   0  0  0  0  0  0  0  0  0  0  0  0
   -0.0314   -8.8209    6.1520 H   0  0  0  0  0  0  0  0  0  0  0  0
    3.0031   -4.0734    2.6406 H   0  0  0  0  0  0  0  0  0  0  0  0
    2.2723   -4.3124    4.2316 H   0  0  0  0  0  0  0  0  0  0  0  0
    5.1804   -4.8871    3.3465 H   0  0  0  0  0  0  0  0  0  0  0  0
    5.8361   -4.3479    5.4594 H   0  0  0  0  0  0  0  0  0  0  0  0
    5.3717   -6.2344    6.6068 H   0  0  0  0  0  0  0  0  0  0  0  0
    4.1593   -5.1877    7.3831 H   0  0  0  0  0  0  0  0  0  0  0  0
    2.6347   -5.6260    5.8007 H   0  0  0  0  0  0  0  0  0  0  0  0
    2.1663   -7.4518    7.0481 H   0  0  0  0  0  0  0  0  0  0  0  0
    3.1616   -8.4804    6.0282 H   0  0  0  0  0  0  0  0  0  0  0  0
    4.5025   -8.2047    4.3394 H   0  0  0  0  0  0  0  0  0  0  0  0
  1  2  1  0
  1 28  1  0
  1 29  1  0
  1 30  1  0
  2  3  2  3
  2 10  1  0
  3  4  1  0
  4  5  1  0
  5  6  1  0
  5 31  1  0
  5 32  1  0
  6  7  1  0
  6  8  1  0
  6 33  1  1
  7 34  1  0
  8  9  1  0
  8 35  1  0
  8 36  1  0
  9 37  1  0
 10 19  1  0
 10 11  1  0
 10 38  1  1
 11 12  1  0
 12 18  2  0
 12 13  1  0
 13 14  1  0
 13 15  2  0
 14 39  1  0
 15 16  1  0
 15 40  1  0
 16 17  2  0
 16 41  1  0
 17 25  1  0
 17 18  1  0
 18 19  1  0
 19 26  1  0
 19 20  1  6
 20 21  1  0
 20 42  1  0
 20 43  1  0
 21 26  1  0
 21 22  1  0
 21 44  1  6
 22 23  1  0
 22 45  1  0
 23 24  1  0
 23 46  1  0
 23 47  1  0
 24 25  1  0
 24 26  1  0
 24 48  1  6
 25 49  1  0
 25 50  1  0
 26 27  1  6
 27 51  1  0
M  END
>  <i_m_ct_stereo_status>  (172) 
1

>  <s_m_source_file>  (172) 
/var/tmp/pbs.5076255.sched01/tmpxnahmhzs/434e81vi2s.sdf

>  <i_m_source_file_index>  (172) 
28

>  <i_lp_mmshare_version>  (172) 
48012

>  <i_f3d_flags>  (172) 
0

>  <s_epik_input>  (172) 
W09IXVtDSDJdW0NAQEhdKFtPSF0pW0NIMl1PL049QyhcW0NIM10pW0NAQEhdMU9jKGMyW0NAQF0xMzQpYyhbT0hdKVtjSF1bY0hdYzJbQ0gyXVtDQEBIXTVbQ0BdNChbT0hdKVtDQEBIXShbQ0gyXTMpW05IXVtDSDJdNQ==

>  <s_epik_cmdline>  (172) 
J2VwaWtfcHl0aG9uJywgJy1waHQnLCAnMi4wJywgJy1waCcsICc3LjAnLCAnLXRuJywgJzgnLCAnLW1hJywgJzIwMCcsICctaW1hZScsICc8aW5maWxlLm1hZT4nLCAnLW9tYWUnLCAnPG91dGZpbGUubWFlPic=

>  <r_lp_tautomer_probability>  (172) 
1

>  <r_epik_Ionization_Penalty>  (172) 
2.49769

>  <r_epik_Ionization_Penalty_Charging>  (172) 
0

>  <r_epik_Ionization_Penalty_Neutral>  (172) 
2.49769

>  <r_epik_State_Penalty>  (172) 
2.66159

>  <r_epik_Charging_Adjusted_Penalty>  (172) 
2.66159

>  <i_epik_Tot_Q>  (172) 
0

>  <i_epik_Tot_abs_Q>  (172) 
0

>  <s_epik_Chemistry_Notes>  (172) 
This compound has an imine and may undergo hydrolysis.

>  <s_lp_Force_Field>  (172) 
OPLS3e

>  <r_lp_Energy>  (172) 
72.5641

>  <b_lp_Chiralities_Consistent>  (172) 
1

>  <s_lp_Variant>  (172) 
53:0-3

>  <s_i_glide_gridfile>  (172) 
pfpi4k_grid

>  <i_i_glide_lignum>  (172) 
28

>  <i_i_glide_rotatable_bonds>  (172) 
9

>  <r_i_docking_score>  (172) 
-3.75815

>  <r_i_glide_ligand_efficiency>  (172) 
-0.139191

>  <r_i_glide_ligand_efficiency_sa>  (172) 
-0.417572

>  <r_i_glide_ligand_efficiency_ln>  (172) 
-0.874834

>  <r_i_glide_gscore>  (172) 
-3.75815

>  <r_i_glide_lipo>  (172) 
-0.359339

>  <r_i_glide_hbond>  (172) 
-0.144

>  <r_i_glide_metal>  (172) 
-0

>  <r_i_glide_rewards>  (172) 
-0.851027

>  <r_i_glide_evdw>  (172) 
-22.9247

>  <r_i_glide_ecoul>  (172) 
-12.4601

>  <r_i_glide_erotb>  (172) 
0.683136

>  <r_i_glide_esite>  (172) 
-0.0716647

>  <r_i_glide_emodel>  (172) 
-41.942

>  <r_i_glide_energy>  (172) 
-35.3848

>  <r_i_glide_einternal>  (172) 
6.06593

>  <r_i_glide_intrahb_reward>  (172) 
-0

>  <i_i_glide_confnum>  (172) 
4

>  <i_i_glide_posenum>  (172) 
28

>  <r_i_glide_eff_state_penalty>  (172) 
0

>  <ligand_id>  (172) 
53

>  <original_smiles>  (172) 
CC(=NOCC(O)CO)C1Oc2c(O)ccc3c2C12CC1NCC(C3)C12O

>  <smiles>  (172) 
[H]Oc1c([H])c([H])c2c3c1OC([H])(C(=NOC([H])([H])C([H])(O[H])C([H])([H])O[H])C([H])([H])[H])C31C([H])([H])C3([H])N([H])C([H])([H])C([H])(C2([H])[H])C31O[H]

$$$$
53:2:2
     RDKit          3D

 51 55  0  0  1  0  0  0  0  0999 V2000
    2.0418   -5.0338    3.6329 C   0  0  0  0  0  0  0  0  0  0  0  0
    2.0710   -5.2612    2.1256 C   0  0  0  0  0  0  0  0  0  0  0  0
    1.2955   -6.0328    1.4732 N   0  0  0  0  0  0  0  0  0  0  0  0
    0.3676   -6.6890    2.2876 O   0  0  0  0  0  0  0  0  0  0  0  0
    0.0454   -7.9342    1.6810 C   0  0  0  0  0  0  0  0  0  0  0  0
   -0.6513   -8.8306    2.7192 C   0  0  2  0  0  0  0  0  0  0  0  0
   -1.9690   -8.3586    2.9127 O   0  0  0  0  0  0  0  0  0  0  0  0
    0.0882   -8.8934    4.0697 C   0  0  0  0  0  0  0  0  0  0  0  0
    1.3638   -9.4873    3.9251 O   0  0  0  0  0  0  0  0  0  0  0  0
    3.1188   -4.4261    1.4020 C   0  0  2  0  0  0  0  0  0  0  0  0
    2.5841   -3.9045    0.1675 O   0  0  0  0  0  0  0  0  0  0  0  0
    3.6585   -3.6515   -0.6340 C   0  0  0  0  0  0  0  0  0  0  0  0
    3.7450   -2.8037   -1.7576 C   0  0  0  0  0  0  0  0  0  0  0  0
    2.6198   -2.2388   -2.2936 O   0  0  0  0  0  0  0  0  0  0  0  0
    5.0144   -2.5061   -2.3094 C   0  0  0  0  0  0  0  0  0  0  0  0
    6.2069   -2.9712   -1.6973 C   0  0  0  0  0  0  0  0  0  0  0  0
    6.1424   -3.8182   -0.5716 C   0  0  0  0  0  0  0  0  0  0  0  0
    4.8341   -4.2165   -0.1705 C   0  0  0  0  0  0  0  0  0  0  0  0
    4.4369   -5.1378    0.9774 C   0  0  2  0  0  0  0  0  0  0  0  0
    4.4369   -6.7127    0.8860 C   0  0  0  0  0  0  0  0  0  0  0  0
    5.3181   -6.7927    2.1727 C   0  0  1  0  0  0  0  0  0  0  0  0
    6.6149   -7.5154    2.2354 N   0  0  0  0  0  0  0  0  0  0  0  0
    7.6974   -6.5625    1.8459 C   0  0  0  0  0  0  0  0  0  0  0  0
    6.9177   -5.5216    1.0636 C   0  0  2  0  0  0  0  0  0  0  0  0
    7.3221   -4.2660    0.3216 C   0  0  0  0  0  0  0  0  0  0  0  0
    5.6485   -5.3620    1.8549 C   0  0  1  0  0  0  0  0  0  0  0  0
    5.8124   -4.4830    2.9473 O   0  0  0  0  0  0  0  0  0  0  0  0
    1.7945   -3.9920    3.8466 H   0  0  0  0  0  0  0  0  0  0  0  0
    3.0220   -5.2481    4.0587 H   0  0  0  0  0  0  0  0  0  0  0  0
    1.3149   -5.6590    4.1498 H   0  0  0  0  0  0  0  0  0  0  0  0
   -0.5790   -7.7902    0.8000 H   0  0  0  0  0  0  0  0  0  0  0  0
    0.9574   -8.4394    1.3520 H   0  0  0  0  0  0  0  0  0  0  0  0
   -0.7428   -9.8384    2.3105 H   0  0  0  0  0  0  0  0  0  0  0  0
   -2.3938   -8.9470    3.5211 H   0  0  0  0  0  0  0  0  0  0  0  0
    0.2108   -7.8943    4.4866 H   0  0  0  0  0  0  0  0  0  0  0  0
   -0.4846   -9.4621    4.8011 H   0  0  0  0  0  0  0  0  0  0  0  0
    1.2560  -10.4108    3.7481 H   0  0  0  0  0  0  0  0  0  0  0  0
    3.3551   -3.5609    2.0248 H   0  0  0  0  0  0  0  0  0  0  0  0
    1.9640   -1.9711   -1.6493 H   0  0  0  0  0  0  0  0  0  0  0  0
    5.0719   -1.8543   -3.1635 H   0  0  0  0  0  0  0  0  0  0  0  0
    7.1689   -2.6548   -2.0775 H   0  0  0  0  0  0  0  0  0  0  0  0
    3.4833   -7.2255    1.0028 H   0  0  0  0  0  0  0  0  0  0  0  0
    4.9175   -7.1061   -0.0106 H   0  0  0  0  0  0  0  0  0  0  0  0
    4.7175   -6.9025    3.0784 H   0  0  0  0  0  0  0  0  0  0  0  0
    6.7889   -7.8555    3.1773 H   0  0  0  0  0  0  0  0  0  0  0  0
    8.1547   -6.1084    2.7259 H   0  0  0  0  0  0  0  0  0  0  0  0
    8.4747   -7.0469    1.2551 H   0  0  0  0  0  0  0  0  0  0  0  0
    6.7386   -6.1252    0.1758 H   0  0  0  0  0  0  0  0  0  0  0  0
    8.1912   -4.4599   -0.3041 H   0  0  0  0  0  0  0  0  0  0  0  0
    7.5846   -3.4687    1.0163 H   0  0  0  0  0  0  0  0  0  0  0  0
    5.0198   -4.5253    3.4598 H   0  0  0  0  0  0  0  0  0  0  0  0
  1  2  1  0
  1 28  1  0
  1 29  1  0
  1 30  1  0
  2  3  2  3
  2 10  1  0
  3  4  1  0
  4  5  1  0
  5  6  1  0
  5 31  1  0
  5 32  1  0
  6  7  1  0
  6  8  1  0
  6 33  1  6
  7 34  1  0
  8  9  1  0
  8 35  1  0
  8 36  1  0
  9 37  1  0
 10 19  1  0
 10 11  1  0
 10 38  1  1
 11 12  1  0
 12 18  2  0
 12 13  1  0
 13 14  1  0
 13 15  2  0
 14 39  1  0
 15 16  1  0
 15 40  1  0
 16 17  2  0
 16 41  1  0
 17 25  1  0
 17 18  1  0
 18 19  1  0
 19 26  1  0
 19 20  1  6
 20 21  1  0
 20 42  1  0
 20 43  1  0
 21 26  1  0
 21 22  1  0
 21 44  1  1
 22 23  1  0
 22 45  1  0
 23 24  1  0
 23 46  1  0
 23 47  1  0
 24 25  1  0
 24 26  1  0
 24 48  1  6
 25 49  1  0
 25 50  1  0
 26 27  1  1
 27 51  1  0
M  END
>  <i_m_ct_stereo_status>  (173) 
1

>  <s_m_source_file>  (173) 
/var/tmp/pbs.5076255.sched01/tmpxnahmhzs/434e81vi2s.sdf

>  <i_m_source_file_index>  (173) 
28

>  <i_lp_mmshare_version>  (173) 
48012

>  <i_f3d_flags>  (173) 
0

>  <s_epik_input>  (173) 
W09IXVtDSDJdW0NAQEhdKFtPSF0pW0NIMl1PL049QyhcW0NIM10pW0NAQEhdMU9jKGMyW0NAQF0xMzQpYyhbT0hdKVtjSF1bY0hdYzJbQ0gyXVtDQEBIXTVbQ0BdNChbT0hdKVtDQEBIXShbQ0gyXTMpW05IXVtDSDJdNQ==

>  <s_epik_cmdline>  (173) 
J2VwaWtfcHl0aG9uJywgJy1waHQnLCAnMi4wJywgJy1waCcsICc3LjAnLCAnLXRuJywgJzgnLCAnLW1hJywgJzIwMCcsICctaW1hZScsICc8aW5maWxlLm1hZT4nLCAnLW9tYWUnLCAnPG91dGZpbGUubWFlPic=

>  <r_lp_tautomer_probability>  (173) 
1

>  <r_epik_Ionization_Penalty>  (173) 
2.49769

>  <r_epik_Ionization_Penalty_Charging>  (173) 
0

>  <r_epik_Ionization_Penalty_Neutral>  (173) 
2.49769

>  <r_epik_State_Penalty>  (173) 
2.66159

>  <r_epik_Charging_Adjusted_Penalty>  (173) 
2.66159

>  <i_epik_Tot_Q>  (173) 
0

>  <i_epik_Tot_abs_Q>  (173) 
0

>  <s_epik_Chemistry_Notes>  (173) 
This compound has an imine and may undergo hydrolysis.

>  <s_lp_Force_Field>  (173) 
OPLS3e

>  <r_lp_Energy>  (173) 
72.5641

>  <b_lp_Chiralities_Consistent>  (173) 
1

>  <s_lp_Variant>  (173) 
53:0-3

>  <s_i_glide_gridfile>  (173) 
pfpi4k_grid

>  <i_i_glide_lignum>  (173) 
28

>  <i_i_glide_rotatable_bonds>  (173) 
9

>  <r_i_docking_score>  (173) 
-3.62319

>  <r_i_glide_ligand_efficiency>  (173) 
-0.134192

>  <r_i_glide_ligand_efficiency_sa>  (173) 
-0.402577

>  <r_i_glide_ligand_efficiency_ln>  (173) 
-0.84342

>  <r_i_glide_gscore>  (173) 
-3.62319

>  <r_i_glide_lipo>  (173) 
-0.707844

>  <r_i_glide_hbond>  (173) 
0

>  <r_i_glide_metal>  (173) 
-0

>  <r_i_glide_rewards>  (173) 
-0.842702

>  <r_i_glide_evdw>  (173) 
-27.0107

>  <r_i_glide_ecoul>  (173) 
-8.05289

>  <r_i_glide_erotb>  (173) 
0.683136

>  <r_i_glide_esite>  (173) 
-0.197316

>  <r_i_glide_emodel>  (173) 
-42.0964

>  <r_i_glide_energy>  (173) 
-35.0636

>  <r_i_glide_einternal>  (173) 
5.46918

>  <r_i_glide_intrahb_reward>  (173) 
-0

>  <i_i_glide_confnum>  (173) 
5

>  <i_i_glide_posenum>  (173) 
9

>  <r_i_glide_eff_state_penalty>  (173) 
0

>  <ligand_id>  (173) 
53

>  <original_smiles>  (173) 
CC(=NOCC(O)CO)C1Oc2c(O)ccc3c2C12CC1NCC(C3)C12O

>  <smiles>  (173) 
[H]Oc1c([H])c([H])c2c3c1OC([H])(C(=NOC([H])([H])C([H])(O[H])C([H])([H])O[H])C([H])([H])[H])C31C([H])([H])C3([H])N([H])C([H])([H])C([H])(C2([H])[H])C31O[H]

$$$$
53:3:0
     RDKit          3D

 51 55  0  0  1  0  0  0  0  0999 V2000
    2.3811   -2.6968    3.3738 C   0  0  0  0  0  0  0  0  0  0  0  0
    2.9157   -3.0275    1.9891 C   0  0  0  0  0  0  0  0  0  0  0  0
    3.4155   -2.1149    1.2511 N   0  0  0  0  0  0  0  0  0  0  0  0
    3.8105   -2.5684   -0.0181 O   0  0  0  0  0  0  0  0  0  0  0  0
    3.9009   -1.4463   -0.8905 C   0  0  0  0  0  0  0  0  0  0  0  0
    4.0827   -1.9452   -2.3350 C   0  0  2  0  0  0  0  0  0  0  0  0
    4.2071   -0.8124   -3.1802 O   0  0  0  0  0  0  0  0  0  0  0  0
    2.8916   -2.7995   -2.8135 C   0  0  0  0  0  0  0  0  0  0  0  0
    3.2789   -3.5922   -3.9197 O   0  0  0  0  0  0  0  0  0  0  0  0
    2.7427   -4.4949    1.5657 C   0  0  2  0  0  0  0  0  0  0  0  0
    1.5424   -5.0467    2.1541 O   0  0  0  0  0  0  0  0  0  0  0  0
    1.7142   -6.3708    2.2320 C   0  0  0  0  0  0  0  0  0  0  0  0
    0.7321   -7.3944    2.3704 C   0  0  0  0  0  0  0  0  0  0  0  0
   -0.5711   -7.0548    2.5988 O   0  0  0  0  0  0  0  0  0  0  0  0
    1.1042   -8.7497    2.2405 C   0  0  0  0  0  0  0  0  0  0  0  0
    2.4267   -9.1067    1.8567 C   0  0  0  0  0  0  0  0  0  0  0  0
    3.4222   -8.1256    1.7038 C   0  0  0  0  0  0  0  0  0  0  0  0
    3.0281   -6.7947    2.0245 C   0  0  0  0  0  0  0  0  0  0  0  0
    3.8537   -5.4978    1.9762 C   0  0  2  0  0  0  0  0  0  0  0  0
    4.8726   -5.0742    3.1108 C   0  0  0  0  0  0  0  0  0  0  0  0
    5.9984   -4.9217    2.0438 C   0  0  1  0  0  0  0  0  0  0  0  0
    7.3141   -5.5834    2.1586 N   0  0  0  0  0  0  0  0  0  0  0  0
    7.2034   -6.9282    1.5055 C   0  0  0  0  0  0  0  0  0  0  0  0
    5.7009   -7.1580    1.5214 C   0  0  2  0  0  0  0  0  0  0  0  0
    4.8215   -8.2951    1.0921 C   0  0  0  0  0  0  0  0  0  0  0  0
    5.1229   -5.8150    1.2177 C   0  0  1  0  0  0  0  0  0  0  0  0
    5.0772   -5.5340   -0.1799 O   0  0  0  0  0  0  0  0  0  0  0  0
    2.8727   -3.2658    4.1564 H   0  0  0  0  0  0  0  0  0  0  0  0
    1.3185   -2.9293    3.4451 H   0  0  0  0  0  0  0  0  0  0  0  0
    2.5112   -1.6385    3.5966 H   0  0  0  0  0  0  0  0  0  0  0  0
    3.0104   -0.8249   -0.8259 H   0  0  0  0  0  0  0  0  0  0  0  0
    4.7433   -0.8242   -0.5955 H   0  0  0  0  0  0  0  0  0  0  0  0
    5.0023   -2.5280   -2.3787 H   0  0  0  0  0  0  0  0  0  0  0  0
    3.4117   -0.3195   -3.1405 H   0  0  0  0  0  0  0  0  0  0  0  0
    2.5879   -3.4930   -2.0305 H   0  0  0  0  0  0  0  0  0  0  0  0
    2.0123   -2.2040   -3.0512 H   0  0  0  0  0  0  0  0  0  0  0  0
    3.1414   -4.4913   -3.6547 H   0  0  0  0  0  0  0  0  0  0  0  0
    2.5847   -4.5396    0.4839 H   0  0  0  0  0  0  0  0  0  0  0  0
   -1.0896   -7.8177    2.7712 H   0  0  0  0  0  0  0  0  0  0  0  0
    0.3613   -9.5198    2.3339 H   0  0  0  0  0  0  0  0  0  0  0  0
    2.6518  -10.1392    1.6372 H   0  0  0  0  0  0  0  0  0  0  0  0
    4.7424   -4.1155    3.6122 H   0  0  0  0  0  0  0  0  0  0  0  0
    5.0516   -5.8509    3.8621 H   0  0  0  0  0  0  0  0  0  0  0  0
    6.0468   -3.8942    1.6686 H   0  0  0  0  0  0  0  0  0  0  0  0
    8.0363   -5.0404    1.6967 H   0  0  0  0  0  0  0  0  0  0  0  0
    7.5657   -6.8669    0.4812 H   0  0  0  0  0  0  0  0  0  0  0  0
    7.7621   -7.6850    2.0375 H   0  0  0  0  0  0  0  0  0  0  0  0
    5.6229   -7.3683    2.5947 H   0  0  0  0  0  0  0  0  0  0  0  0
    5.2375   -9.2488    1.4296 H   0  0  0  0  0  0  0  0  0  0  0  0
    4.7329   -8.3340    0.0074 H   0  0  0  0  0  0  0  0  0  0  0  0
    4.7170   -4.6734   -0.2637 H   0  0  0  0  0  0  0  0  0  0  0  0
  1  2  1  0
  1 28  1  0
  1 29  1  0
  1 30  1  0
  2  3  2  3
  2 10  1  0
  3  4  1  0
  4  5  1  0
  5  6  1  0
  5 31  1  0
  5 32  1  0
  6  7  1  0
  6  8  1  0
  6 33  1  1
  7 34  1  0
  8  9  1  0
  8 35  1  0
  8 36  1  0
  9 37  1  0
 10 19  1  0
 10 11  1  0
 10 38  1  6
 11 12  1  0
 12 18  2  0
 12 13  1  0
 13 14  1  0
 13 15  2  0
 14 39  1  0
 15 16  1  0
 15 40  1  0
 16 17  2  0
 16 41  1  0
 17 25  1  0
 17 18  1  0
 18 19  1  0
 19 26  1  0
 19 20  1  1
 20 21  1  0
 20 42  1  0
 20 43  1  0
 21 26  1  0
 21 22  1  0
 21 44  1  6
 22 23  1  0
 22 45  1  0
 23 24  1  0
 23 46  1  0
 23 47  1  0
 24 25  1  0
 24 26  1  0
 24 48  1  1
 25 49  1  0
 25 50  1  0
 26 27  1  6
 27 51  1  0
M  END
>  <i_m_ct_stereo_status>  (174) 
1

>  <s_m_source_file>  (174) 
/var/tmp/pbs.5076255.sched01/tmpxnahmhzs/434e81vi2s.sdf

>  <i_m_source_file_index>  (174) 
29

>  <i_lp_mmshare_version>  (174) 
48012

>  <i_f3d_flags>  (174) 
0

>  <s_epik_input>  (174) 
W09IXVtDSDJdW0NAQEhdKFtPSF0pW0NIMl1PL049QyhcW0NIM10pW0NAQEhdMU9jKGMyW0NAQF0xMzQpYyhbT0hdKVtjSF1bY0hdYzJbQ0gyXVtDQEBIXTVbQ0BdNChbT0hdKVtDQEBIXShbQ0gyXTMpW05IXVtDSDJdNQ==

>  <s_epik_cmdline>  (174) 
J2VwaWtfcHl0aG9uJywgJy1waHQnLCAnMi4wJywgJy1waCcsICc3LjAnLCAnLXRuJywgJzgnLCAnLW1hJywgJzIwMCcsICctaW1hZScsICc8aW5maWxlLm1hZT4nLCAnLW9tYWUnLCAnPG91dGZpbGUubWFlPic=

>  <r_lp_tautomer_probability>  (174) 
1

>  <r_epik_Ionization_Penalty>  (174) 
2.49769

>  <r_epik_Ionization_Penalty_Charging>  (174) 
0

>  <r_epik_Ionization_Penalty_Neutral>  (174) 
2.49769

>  <r_epik_State_Penalty>  (174) 
2.66159

>  <r_epik_Charging_Adjusted_Penalty>  (174) 
2.66159

>  <i_epik_Tot_Q>  (174) 
0

>  <i_epik_Tot_abs_Q>  (174) 
0

>  <s_epik_Chemistry_Notes>  (174) 
This compound has an imine and may undergo hydrolysis.

>  <s_lp_Force_Field>  (174) 
OPLS3e

>  <r_lp_Energy>  (174) 
73.7416

>  <b_lp_Chiralities_Consistent>  (174) 
1

>  <s_lp_Variant>  (174) 
53:0-4

>  <s_i_glide_gridfile>  (174) 
pfpi4k_grid

>  <i_i_glide_lignum>  (174) 
29

>  <i_i_glide_rotatable_bonds>  (174) 
9

>  <r_i_docking_score>  (174) 
-3.74819

>  <r_i_glide_ligand_efficiency>  (174) 
-0.138822

>  <r_i_glide_ligand_efficiency_sa>  (174) 
-0.416465

>  <r_i_glide_ligand_efficiency_ln>  (174) 
-0.872516

>  <r_i_glide_gscore>  (174) 
-3.74819

>  <r_i_glide_lipo>  (174) 
-0.315994

>  <r_i_glide_hbond>  (174) 
-0.0301116

>  <r_i_glide_metal>  (174) 
-0

>  <r_i_glide_rewards>  (174) 
-1.3427

>  <r_i_glide_evdw>  (174) 
-27.2197

>  <r_i_glide_ecoul>  (174) 
-8.9144

>  <r_i_glide_erotb>  (174) 
0.683136

>  <r_i_glide_esite>  (174) 
-0.0443732

>  <r_i_glide_emodel>  (174) 
-47.6916

>  <r_i_glide_energy>  (174) 
-36.134

>  <r_i_glide_einternal>  (174) 
6.45411

>  <r_i_glide_intrahb_reward>  (174) 
-0.5

>  <i_i_glide_confnum>  (174) 
4

>  <i_i_glide_posenum>  (174) 
10

>  <r_i_glide_eff_state_penalty>  (174) 
0

>  <ligand_id>  (174) 
53

>  <original_smiles>  (174) 
CC(=NOCC(O)CO)C1Oc2c(O)ccc3c2C12CC1NCC(C3)C12O

>  <smiles>  (174) 
[H]Oc1c([H])c([H])c2c3c1OC([H])(C(=NOC([H])([H])C([H])(O[H])C([H])([H])O[H])C([H])([H])[H])C31C([H])([H])C3([H])N([H])C([H])([H])C([H])(C2([H])[H])C31O[H]

$$$$
53:3:1
     RDKit          3D

 51 55  0  0  1  0  0  0  0  0999 V2000
    2.1782   -3.4805    3.0013 C   0  0  0  0  0  0  0  0  0  0  0  0
    2.9442   -4.2814    1.9604 C   0  0  0  0  0  0  0  0  0  0  0  0
    3.9440   -3.7834    1.3853 N   0  0  0  0  0  0  0  0  0  0  0  0
    4.4799   -4.5934    0.3692 O   0  0  0  0  0  0  0  0  0  0  0  0
    5.5437   -3.8805   -0.2512 C   0  0  0  0  0  0  0  0  0  0  0  0
    5.1058   -2.9139   -1.3812 C   0  0  2  0  0  0  0  0  0  0  0  0
    6.2921   -2.3344   -1.9071 O   0  0  0  0  0  0  0  0  0  0  0  0
    4.1668   -1.7726   -0.9150 C   0  0  0  0  0  0  0  0  0  0  0  0
    3.4239   -1.2224   -1.9798 O   0  0  0  0  0  0  0  0  0  0  0  0
    2.4295   -5.7043    1.7387 C   0  0  2  0  0  0  0  0  0  0  0  0
    1.0798   -5.8448    2.2318 O   0  0  0  0  0  0  0  0  0  0  0  0
    0.9332   -7.1330    2.6163 C   0  0  0  0  0  0  0  0  0  0  0  0
   -0.2604   -7.8590    2.8363 C   0  0  0  0  0  0  0  0  0  0  0  0
   -1.4468   -7.1855    2.8765 O   0  0  0  0  0  0  0  0  0  0  0  0
   -0.2134   -9.2603    2.9779 C   0  0  0  0  0  0  0  0  0  0  0  0
    1.0084   -9.9664    2.8284 C   0  0  0  0  0  0  0  0  0  0  0  0
    2.2137   -9.2666    2.6275 C   0  0  0  0  0  0  0  0  0  0  0  0
    2.1203   -7.8512    2.6477 C   0  0  0  0  0  0  0  0  0  0  0  0
    3.2340   -6.8231    2.4680 C   0  0  2  0  0  0  0  0  0  0  0  0
    4.2275   -6.3867    3.6204 C   0  0  0  0  0  0  0  0  0  0  0  0
    5.4502   -6.6982    2.6985 C   0  0  1  0  0  0  0  0  0  0  0  0
    6.5621   -7.6132    3.0741 N   0  0  0  0  0  0  0  0  0  0  0  0
    6.1818   -8.9936    2.6510 C   0  0  0  0  0  0  0  0  0  0  0  0
    4.6731   -8.8800    2.5517 C   0  0  2  0  0  0  0  0  0  0  0  0
    3.5802   -9.8688    2.2215 C   0  0  0  0  0  0  0  0  0  0  0  0
    4.4612   -7.5288    1.9296 C   0  0  1  0  0  0  0  0  0  0  0  0
    4.6143   -7.5479    0.5229 O   0  0  0  0  0  0  0  0  0  0  0  0
    2.2932   -3.9271    3.9859 H   0  0  0  0  0  0  0  0  0  0  0  0
    1.1141   -3.4368    2.7756 H   0  0  0  0  0  0  0  0  0  0  0  0
    2.5413   -2.4565    3.0373 H   0  0  0  0  0  0  0  0  0  0  0  0
    6.1396   -3.3670    0.5047 H   0  0  0  0  0  0  0  0  0  0  0  0
    6.1990   -4.6405   -0.6727 H   0  0  0  0  0  0  0  0  0  0  0  0
    4.6252   -3.4977   -2.1649 H   0  0  0  0  0  0  0  0  0  0  0  0
    6.8024   -3.0008   -2.3476 H   0  0  0  0  0  0  0  0  0  0  0  0
    3.3797   -2.1461   -0.2764 H   0  0  0  0  0  0  0  0  0  0  0  0
    4.7028   -1.0014   -0.3545 H   0  0  0  0  0  0  0  0  0  0  0  0
    2.5490   -1.0506   -1.6367 H   0  0  0  0  0  0  0  0  0  0  0  0
    2.3826   -5.9073    0.6665 H   0  0  0  0  0  0  0  0  0  0  0  0
   -2.1638   -7.7828    3.0409 H   0  0  0  0  0  0  0  0  0  0  0  0
   -1.1234   -9.8197    3.1359 H   0  0  0  0  0  0  0  0  0  0  0  0
    1.0062  -11.0455    2.8263 H   0  0  0  0  0  0  0  0  0  0  0  0
    4.2076   -5.3451    3.9410 H   0  0  0  0  0  0  0  0  0  0  0  0
    4.1812   -7.0048    4.5183 H   0  0  0  0  0  0  0  0  0  0  0  0
    5.7894   -5.8179    2.1524 H   0  0  0  0  0  0  0  0  0  0  0  0
    7.4228   -7.3428    2.6031 H   0  0  0  0  0  0  0  0  0  0  0  0
    6.6048   -9.2325    1.6745 H   0  0  0  0  0  0  0  0  0  0  0  0
    6.5032   -9.7443    3.3729 H   0  0  0  0  0  0  0  0  0  0  0  0
    4.4690   -8.8461    3.6207 H   0  0  0  0  0  0  0  0  0  0  0  0
    3.7284  -10.8013    2.7581 H   0  0  0  0  0  0  0  0  0  0  0  0
    3.5718  -10.0907    1.1584 H   0  0  0  0  0  0  0  0  0  0  0  0
    4.5112   -6.6549    0.2282 H   0  0  0  0  0  0  0  0  0  0  0  0
  1  2  1  0
  1 28  1  0
  1 29  1  0
  1 30  1  0
  2  3  2  3
  2 10  1  0
  3  4  1  0
  4  5  1  0
  5  6  1  0
  5 31  1  0
  5 32  1  0
  6  7  1  0
  6  8  1  0
  6 33  1  6
  7 34  1  0
  8  9  1  0
  8 35  1  0
  8 36  1  0
  9 37  1  0
 10 19  1  0
 10 11  1  0
 10 38  1  6
 11 12  1  0
 12 18  2  0
 12 13  1  0
 13 14  1  0
 13 15  2  0
 14 39  1  0
 15 16  1  0
 15 40  1  0
 16 17  2  0
 16 41  1  0
 17 25  1  0
 17 18  1  0
 18 19  1  0
 19 26  1  0
 19 20  1  1
 20 21  1  0
 20 42  1  0
 20 43  1  0
 21 26  1  0
 21 22  1  0
 21 44  1  6
 22 23  1  0
 22 45  1  0
 23 24  1  0
 23 46  1  0
 23 47  1  0
 24 25  1  0
 24 26  1  0
 24 48  1  1
 25 49  1  0
 25 50  1  0
 26 27  1  6
 27 51  1  0
M  END
>  <i_m_ct_stereo_status>  (175) 
1

>  <s_m_source_file>  (175) 
/var/tmp/pbs.5076255.sched01/tmpxnahmhzs/434e81vi2s.sdf

>  <i_m_source_file_index>  (175) 
29

>  <i_lp_mmshare_version>  (175) 
48012

>  <i_f3d_flags>  (175) 
0

>  <s_epik_input>  (175) 
W09IXVtDSDJdW0NAQEhdKFtPSF0pW0NIMl1PL049QyhcW0NIM10pW0NAQEhdMU9jKGMyW0NAQF0xMzQpYyhbT0hdKVtjSF1bY0hdYzJbQ0gyXVtDQEBIXTVbQ0BdNChbT0hdKVtDQEBIXShbQ0gyXTMpW05IXVtDSDJdNQ==

>  <s_epik_cmdline>  (175) 
J2VwaWtfcHl0aG9uJywgJy1waHQnLCAnMi4wJywgJy1waCcsICc3LjAnLCAnLXRuJywgJzgnLCAnLW1hJywgJzIwMCcsICctaW1hZScsICc8aW5maWxlLm1hZT4nLCAnLW9tYWUnLCAnPG91dGZpbGUubWFlPic=

>  <r_lp_tautomer_probability>  (175) 
1

>  <r_epik_Ionization_Penalty>  (175) 
2.49769

>  <r_epik_Ionization_Penalty_Charging>  (175) 
0

>  <r_epik_Ionization_Penalty_Neutral>  (175) 
2.49769

>  <r_epik_State_Penalty>  (175) 
2.66159

>  <r_epik_Charging_Adjusted_Penalty>  (175) 
2.66159

>  <i_epik_Tot_Q>  (175) 
0

>  <i_epik_Tot_abs_Q>  (175) 
0

>  <s_epik_Chemistry_Notes>  (175) 
This compound has an imine and may undergo hydrolysis.

>  <s_lp_Force_Field>  (175) 
OPLS3e

>  <r_lp_Energy>  (175) 
73.7416

>  <b_lp_Chiralities_Consistent>  (175) 
1

>  <s_lp_Variant>  (175) 
53:0-4

>  <s_i_glide_gridfile>  (175) 
pfpi4k_grid

>  <i_i_glide_lignum>  (175) 
29

>  <i_i_glide_rotatable_bonds>  (175) 
9

>  <r_i_docking_score>  (175) 
-3.5652

>  <r_i_glide_ligand_efficiency>  (175) 
-0.132044

>  <r_i_glide_ligand_efficiency_sa>  (175) 
-0.396133

>  <r_i_glide_ligand_efficiency_ln>  (175) 
-0.82992

>  <r_i_glide_gscore>  (175) 
-3.5652

>  <r_i_glide_lipo>  (175) 
-0.247837

>  <r_i_glide_hbond>  (175) 
-0.0504007

>  <r_i_glide_metal>  (175) 
-0

>  <r_i_glide_rewards>  (175) 
-1.3427

>  <r_i_glide_evdw>  (175) 
-25.8135

>  <r_i_glide_ecoul>  (175) 
-8.75544

>  <r_i_glide_erotb>  (175) 
0.683136

>  <r_i_glide_esite>  (175) 
-0.00340373

>  <r_i_glide_emodel>  (175) 
-45.0656

>  <r_i_glide_energy>  (175) 
-34.569

>  <r_i_glide_einternal>  (175) 
7.07741

>  <r_i_glide_intrahb_reward>  (175) 
-0.5

>  <i_i_glide_confnum>  (175) 
4

>  <i_i_glide_posenum>  (175) 
31

>  <r_i_glide_eff_state_penalty>  (175) 
0

>  <ligand_id>  (175) 
53

>  <original_smiles>  (175) 
CC(=NOCC(O)CO)C1Oc2c(O)ccc3c2C12CC1NCC(C3)C12O

>  <smiles>  (175) 
[H]Oc1c([H])c([H])c2c3c1OC([H])(C(=NOC([H])([H])C([H])(O[H])C([H])([H])O[H])C([H])([H])[H])C31C([H])([H])C3([H])N([H])C([H])([H])C([H])(C2([H])[H])C31O[H]

$$$$
53:3:2
     RDKit          3D

 51 55  0  0  1  0  0  0  0  0999 V2000
    2.2701   -2.8847    3.6218 C   0  0  0  0  0  0  0  0  0  0  0  0
    2.7976   -3.1269    2.2161 C   0  0  0  0  0  0  0  0  0  0  0  0
    3.2631   -2.1636    1.5253 N   0  0  0  0  0  0  0  0  0  0  0  0
    3.6785   -2.5553    0.2419 O   0  0  0  0  0  0  0  0  0  0  0  0
    3.8874   -1.3854   -0.5361 C   0  0  0  0  0  0  0  0  0  0  0  0
    4.2163   -1.8046   -1.9787 C   0  0  2  0  0  0  0  0  0  0  0  0
    4.6090   -0.6530   -2.6978 O   0  0  0  0  0  0  0  0  0  0  0  0
    3.0143   -2.4618   -2.6816 C   0  0  0  0  0  0  0  0  0  0  0  0
    3.4068   -3.0561   -3.9033 O   0  0  0  0  0  0  0  0  0  0  0  0
    2.6782   -4.5780    1.7304 C   0  0  2  0  0  0  0  0  0  0  0  0
    1.5205   -5.2047    2.3234 O   0  0  0  0  0  0  0  0  0  0  0  0
    1.7725   -6.5434    2.3614 C   0  0  0  0  0  0  0  0  0  0  0  0
    0.8545   -7.6041    2.5025 C   0  0  0  0  0  0  0  0  0  0  0  0
   -0.4505   -7.3381    2.8065 O   0  0  0  0  0  0  0  0  0  0  0  0
    1.2876   -8.9339    2.2913 C   0  0  0  0  0  0  0  0  0  0  0  0
    2.6030   -9.2066    1.8373 C   0  0  0  0  0  0  0  0  0  0  0  0
    3.5362   -8.1635    1.6910 C   0  0  0  0  0  0  0  0  0  0  0  0
    3.0887   -6.8672    2.0836 C   0  0  0  0  0  0  0  0  0  0  0  0
    3.8570   -5.5507    2.0621 C   0  0  2  0  0  0  0  0  0  0  0  0
    4.8932   -5.1133    3.1724 C   0  0  0  0  0  0  0  0  0  0  0  0
    5.9677   -4.8535    2.0736 C   0  0  1  0  0  0  0  0  0  0  0  0
    7.3212   -5.4617    2.0963 N   0  0  0  0  0  0  0  0  0  0  0  0
    7.2485   -6.7690    1.3813 C   0  0  0  0  0  0  0  0  0  0  0  0
    5.7640   -7.0839    1.4655 C   0  0  2  0  0  0  0  0  0  0  0  0
    4.9181   -8.2516    1.0105 C   0  0  0  0  0  0  0  0  0  0  0  0
    5.1085   -5.7490    1.2314 C   0  0  1  0  0  0  0  0  0  0  0  0
    5.0116   -5.4299   -0.1404 O   0  0  0  0  0  0  0  0  0  0  0  0
    2.8085   -3.4748    4.3615 H   0  0  0  0  0  0  0  0  0  0  0  0
    1.2200   -3.1674    3.6985 H   0  0  0  0  0  0  0  0  0  0  0  0
    2.3583   -1.8348    3.8999 H   0  0  0  0  0  0  0  0  0  0  0  0
    3.0142   -0.7358   -0.5172 H   0  0  0  0  0  0  0  0  0  0  0  0
    4.7155   -0.8153   -0.1135 H   0  0  0  0  0  0  0  0  0  0  0  0
    5.0595   -2.4971   -1.9577 H   0  0  0  0  0  0  0  0  0  0  0  0
    3.8728   -0.0557   -2.7317 H   0  0  0  0  0  0  0  0  0  0  0  0
    2.6012   -3.2493   -2.0513 H   0  0  0  0  0  0  0  0  0  0  0  0
    2.2150   -1.7458   -2.8593 H   0  0  0  0  0  0  0  0  0  0  0  0
    2.6920   -3.6047   -4.1921 H   0  0  0  0  0  0  0  0  0  0  0  0
    2.4907   -4.5798    0.6536 H   0  0  0  0  0  0  0  0  0  0  0  0
   -0.9376   -8.1339    2.9677 H   0  0  0  0  0  0  0  0  0  0  0  0
    0.5889   -9.7486    2.3819 H   0  0  0  0  0  0  0  0  0  0  0  0
    2.8728  -10.2173    1.5590 H   0  0  0  0  0  0  0  0  0  0  0  0
    4.7012   -4.1993    3.7326 H   0  0  0  0  0  0  0  0  0  0  0  0
    5.1480   -5.9063    3.8805 H   0  0  0  0  0  0  0  0  0  0  0  0
    5.9574   -3.8146    1.7374 H   0  0  0  0  0  0  0  0  0  0  0  0
    7.9920   -4.8599    1.6285 H   0  0  0  0  0  0  0  0  0  0  0  0
    7.5555   -6.6479    0.3436 H   0  0  0  0  0  0  0  0  0  0  0  0
    7.8704   -7.5280    1.8511 H   0  0  0  0  0  0  0  0  0  0  0  0
    5.7414   -7.3433    2.5242 H   0  0  0  0  0  0  0  0  0  0  0  0
    5.3930   -9.1913    1.2837 H   0  0  0  0  0  0  0  0  0  0  0  0
    4.7838   -8.2421   -0.0690 H   0  0  0  0  0  0  0  0  0  0  0  0
    4.5898   -4.5832   -0.1894 H   0  0  0  0  0  0  0  0  0  0  0  0
  1  2  1  0
  1 28  1  0
  1 29  1  0
  1 30  1  0
  2  3  2  3
  2 10  1  0
  3  4  1  0
  4  5  1  0
  5  6  1  0
  5 31  1  0
  5 32  1  0
  6  7  1  0
  6  8  1  0
  6 33  1  1
  7 34  1  0
  8  9  1  0
  8 35  1  0
  8 36  1  0
  9 37  1  0
 10 19  1  0
 10 11  1  0
 10 38  1  6
 11 12  1  0
 12 18  2  0
 12 13  1  0
 13 14  1  0
 13 15  2  0
 14 39  1  0
 15 16  1  0
 15 40  1  0
 16 17  2  0
 16 41  1  0
 17 25  1  0
 17 18  1  0
 18 19  1  0
 19 26  1  0
 19 20  1  1
 20 21  1  0
 20 42  1  0
 20 43  1  0
 21 26  1  0
 21 22  1  0
 21 44  1  6
 22 23  1  0
 22 45  1  0
 23 24  1  0
 23 46  1  0
 23 47  1  0
 24 25  1  0
 24 26  1  0
 24 48  1  1
 25 49  1  0
 25 50  1  0
 26 27  1  6
 27 51  1  0
M  END
>  <i_m_ct_stereo_status>  (176) 
1

>  <s_m_source_file>  (176) 
/var/tmp/pbs.5076255.sched01/tmpxnahmhzs/434e81vi2s.sdf

>  <i_m_source_file_index>  (176) 
29

>  <i_lp_mmshare_version>  (176) 
48012

>  <i_f3d_flags>  (176) 
0

>  <s_epik_input>  (176) 
W09IXVtDSDJdW0NAQEhdKFtPSF0pW0NIMl1PL049QyhcW0NIM10pW0NAQEhdMU9jKGMyW0NAQF0xMzQpYyhbT0hdKVtjSF1bY0hdYzJbQ0gyXVtDQEBIXTVbQ0BdNChbT0hdKVtDQEBIXShbQ0gyXTMpW05IXVtDSDJdNQ==

>  <s_epik_cmdline>  (176) 
J2VwaWtfcHl0aG9uJywgJy1waHQnLCAnMi4wJywgJy1waCcsICc3LjAnLCAnLXRuJywgJzgnLCAnLW1hJywgJzIwMCcsICctaW1hZScsICc8aW5maWxlLm1hZT4nLCAnLW9tYWUnLCAnPG91dGZpbGUubWFlPic=

>  <r_lp_tautomer_probability>  (176) 
1

>  <r_epik_Ionization_Penalty>  (176) 
2.49769

>  <r_epik_Ionization_Penalty_Charging>  (176) 
0

>  <r_epik_Ionization_Penalty_Neutral>  (176) 
2.49769

>  <r_epik_State_Penalty>  (176) 
2.66159

>  <r_epik_Charging_Adjusted_Penalty>  (176) 
2.66159

>  <i_epik_Tot_Q>  (176) 
0

>  <i_epik_Tot_abs_Q>  (176) 
0

>  <s_epik_Chemistry_Notes>  (176) 
This compound has an imine and may undergo hydrolysis.

>  <s_lp_Force_Field>  (176) 
OPLS3e

>  <r_lp_Energy>  (176) 
73.7416

>  <b_lp_Chiralities_Consistent>  (176) 
1

>  <s_lp_Variant>  (176) 
53:0-4

>  <s_i_glide_gridfile>  (176) 
pfpi4k_grid

>  <i_i_glide_lignum>  (176) 
29

>  <i_i_glide_rotatable_bonds>  (176) 
9

>  <r_i_docking_score>  (176) 
-3.31298

>  <r_i_glide_ligand_efficiency>  (176) 
-0.122703

>  <r_i_glide_ligand_efficiency_sa>  (176) 
-0.368109

>  <r_i_glide_ligand_efficiency_ln>  (176) 
-0.771207

>  <r_i_glide_gscore>  (176) 
-3.31298

>  <r_i_glide_lipo>  (176) 
-0.315486

>  <r_i_glide_hbond>  (176) 
-0.0169288

>  <r_i_glide_metal>  (176) 
-0

>  <r_i_glide_rewards>  (176) 
-1.3427

>  <r_i_glide_evdw>  (176) 
-28.0026

>  <r_i_glide_ecoul>  (176) 
-5.8654

>  <r_i_glide_erotb>  (176) 
0.683136

>  <r_i_glide_esite>  (176) 
-0.0410584

>  <r_i_glide_emodel>  (176) 
-45.0038

>  <r_i_glide_energy>  (176) 
-33.868

>  <r_i_glide_einternal>  (176) 
5.02271

>  <r_i_glide_intrahb_reward>  (176) 
-0.5

>  <i_i_glide_confnum>  (176) 
4

>  <i_i_glide_posenum>  (176) 
21

>  <r_i_glide_eff_state_penalty>  (176) 
0

>  <ligand_id>  (176) 
53

>  <original_smiles>  (176) 
CC(=NOCC(O)CO)C1Oc2c(O)ccc3c2C12CC1NCC(C3)C12O

>  <smiles>  (176) 
[H]Oc1c([H])c([H])c2c3c1OC([H])(C(=NOC([H])([H])C([H])(O[H])C([H])([H])O[H])C([H])([H])[H])C31C([H])([H])C3([H])N([H])C([H])([H])C([H])(C2([H])[H])C31O[H]

$$$$
55:0:0
     RDKit          3D

 65 70  0  0  1  0  0  0  0  0999 V2000
    2.9996    0.5383    5.1879 C   0  0  0  0  0  0  0  0  0  0  0  0
    3.2793   -0.1819    3.8818 C   0  0  0  0  0  0  0  0  0  0  0  0
    2.2008   -0.6258    3.0863 C   0  0  0  0  0  0  0  0  0  0  0  0
    2.4425   -1.3002    1.8748 C   0  0  0  0  0  0  0  0  0  0  0  0
    3.7633   -1.5334    1.4310 C   0  0  0  0  0  0  0  0  0  0  0  0
    3.9993   -2.1561    0.1818 N   0  0  0  0  0  0  0  0  0  0  0  0
    3.4308   -1.7703   -0.9805 N   0  0  0  0  0  0  0  0  0  0  0  0
    3.8416   -2.6002   -1.8879 N   0  0  0  0  0  0  0  0  0  0  0  0
    4.6910   -3.5507   -1.3467 N   0  0  0  0  0  0  0  0  0  0  0  0
    4.7622   -3.2381   -0.0516 C   0  0  0  0  0  0  0  0  0  0  0  0
    5.5104   -4.0657    0.9778 C   0  0  2  0  0  0  0  0  0  0  0  0
    6.7412   -4.7473    0.3683 C   0  0  0  0  0  0  0  0  0  0  0  0
    8.0684   -4.7963    1.0973 C   0  0  0  0  0  0  0  0  0  0  0  0
    7.9131   -3.9156   -0.1105 C   0  0  0  0  0  0  0  0  0  0  0  0
    4.6517   -5.0212    1.6930 N   0  0  0  0  0  0  0  0  0  0  0  0
    5.4341   -5.7289    2.7224 C   0  0  0  0  0  0  0  0  0  0  0  0
    4.5581   -6.6589    3.5616 C   0  0  0  0  0  0  0  0  0  0  0  0
    3.7896   -7.6812    2.6898 C   0  0  0  0  0  0  0  0  0  0  0  0
    3.0518   -6.8971    1.5630 C   0  0  0  0  0  0  0  0  0  0  0  0
    3.9822   -5.9663    0.7815 C   0  0  0  0  0  0  0  0  0  0  0  0
    4.7431   -8.7504    2.1123 C   0  0  0  0  0  0  0  0  0  0  0  0
    5.5991   -8.5667    1.2531 O   0  0  0  0  0  0  0  0  0  0  0  0
    4.4925   -9.9237    2.6746 N   0  0  0  0  0  0  0  0  0  0  0  0
    3.4055   -9.8731    3.6314 C   0  0  0  0  0  0  0  0  0  0  0  0
    2.9041   -8.4995    3.5242 N   0  0  0  0  0  0  0  0  0  0  0  0
    1.5322   -8.1863    3.6376 C   0  0  0  0  0  0  0  0  0  0  0  0
    0.5345   -9.0330    3.0998 C   0  0  0  0  0  0  0  0  0  0  0  0
   -0.8214   -8.6596    3.1581 C   0  0  0  0  0  0  0  0  0  0  0  0
   -1.2003   -7.4417    3.7474 C   0  0  0  0  0  0  0  0  0  0  0  0
   -0.2144   -6.5869    4.2738 C   0  0  0  0  0  0  0  0  0  0  0  0
    1.1366   -6.9662    4.2290 C   0  0  0  0  0  0  0  0  0  0  0  0
    4.8366   -1.0790    2.2219 C   0  0  0  0  0  0  0  0  0  0  0  0
    4.6013   -0.4184    3.4486 C   0  0  0  0  0  0  0  0  0  0  0  0
    5.7845    0.0584    4.2650 C   0  0  0  0  0  0  0  0  0  0  0  0
    1.9317    0.6451    5.3638 H   0  0  0  0  0  0  0  0  0  0  0  0
    3.4362    1.5353    5.1826 H   0  0  0  0  0  0  0  0  0  0  0  0
    3.4154   -0.0197    6.0243 H   0  0  0  0  0  0  0  0  0  0  0  0
    1.1802   -0.4307    3.3992 H   0  0  0  0  0  0  0  0  0  0  0  0
    1.5963   -1.6078    1.2806 H   0  0  0  0  0  0  0  0  0  0  0  0
    5.8906   -3.3853    1.7399 H   0  0  0  0  0  0  0  0  0  0  0  0
    6.5086   -5.6026   -0.2639 H   0  0  0  0  0  0  0  0  0  0  0  0
    8.1196   -4.3246    2.0755 H   0  0  0  0  0  0  0  0  0  0  0  0
    8.6449   -5.7134    0.9861 H   0  0  0  0  0  0  0  0  0  0  0  0
    8.4095   -4.2400   -1.0251 H   0  0  0  0  0  0  0  0  0  0  0  0
    7.8493   -2.8378    0.0384 H   0  0  0  0  0  0  0  0  0  0  0  0
    6.2268   -6.3283    2.2765 H   0  0  0  0  0  0  0  0  0  0  0  0
    5.9188   -5.0111    3.3884 H   0  0  0  0  0  0  0  0  0  0  0  0
    5.1730   -7.1838    4.2949 H   0  0  0  0  0  0  0  0  0  0  0  0
    3.8838   -6.0281    4.1353 H   0  0  0  0  0  0  0  0  0  0  0  0
    2.5747   -7.5980    0.8804 H   0  0  0  0  0  0  0  0  0  0  0  0
    2.2440   -6.2708    1.9493 H   0  0  0  0  0  0  0  0  0  0  0  0
    3.3680   -5.4406    0.0490 H   0  0  0  0  0  0  0  0  0  0  0  0
    4.6966   -6.5600    0.2183 H   0  0  0  0  0  0  0  0  0  0  0  0
    4.9542  -10.7801    2.3909 H   0  0  0  0  0  0  0  0  0  0  0  0
    2.6798  -10.6552    3.4175 H   0  0  0  0  0  0  0  0  0  0  0  0
    3.8006  -10.0443    4.6334 H   0  0  0  0  0  0  0  0  0  0  0  0
    0.7930   -9.9568    2.6091 H   0  0  0  0  0  0  0  0  0  0  0  0
   -1.5684   -9.3208    2.7456 H   0  0  0  0  0  0  0  0  0  0  0  0
   -2.2360   -7.1518    3.7858 H   0  0  0  0  0  0  0  0  0  0  0  0
   -0.4763   -5.6381    4.7120 H   0  0  0  0  0  0  0  0  0  0  0  0
    1.8612   -6.2873    4.6455 H   0  0  0  0  0  0  0  0  0  0  0  0
    5.8508   -1.2161    1.8783 H   0  0  0  0  0  0  0  0  0  0  0  0
    6.7139   -0.1917    3.7628 H   0  0  0  0  0  0  0  0  0  0  0  0
    5.7803   -0.4086    5.2470 H   0  0  0  0  0  0  0  0  0  0  0  0
    5.7545    1.1364    4.3969 H   0  0  0  0  0  0  0  0  0  0  0  0
  1  2  1  0
  1 35  1  0
  1 36  1  0
  1 37  1  0
  2 33  2  0
  2  3  1  0
  3  4  2  0
  3 38  1  0
  4  5  1  0
  4 39  1  0
  5  6  1  0
  5 32  2  0
  6 10  1  0
  6  7  1  0
  7  8  2  0
  8  9  1  0
  9 10  2  0
 10 11  1  0
 11 12  1  0
 11 15  1  0
 11 40  1  1
 12 14  1  0
 12 13  1  0
 12 41  1  0
 13 14  1  0
 13 42  1  0
 13 43  1  0
 14 44  1  0
 14 45  1  0
 15 20  1  0
 15 16  1  0
 16 17  1  0
 16 46  1  0
 16 47  1  0
 17 18  1  0
 17 48  1  0
 17 49  1  0
 18 25  1  0
 18 19  1  0
 18 21  1  0
 19 20  1  0
 19 50  1  0
 19 51  1  0
 20 52  1  0
 20 53  1  0
 21 22  2  0
 21 23  1  0
 23 24  1  0
 23 54  1  0
 24 25  1  0
 24 55  1  0
 24 56  1  0
 25 26  1  0
 26 31  1  0
 26 27  2  0
 27 28  1  0
 27 57  1  0
 28 29  2  0
 28 58  1  0
 29 30  1  0
 29 59  1  0
 30 31  2  0
 30 60  1  0
 31 61  1  0
 32 33  1  0
 32 62  1  0
 33 34  1  0
 34 63  1  0
 34 64  1  0
 34 65  1  0
M  END
>  <i_m_ct_stereo_status>  (177) 
1

>  <s_m_source_file>  (177) 
/var/tmp/pbs.5076255.sched01/tmpxnahmhzs/434e81vi2s.sdf

>  <i_m_source_file_index>  (177) 
31

>  <i_lp_mmshare_version>  (177) 
48012

>  <i_f3d_flags>  (177) 
0

>  <s_epik_input>  (177) 
W0NIM11jMVtjSF1bY0hdYyhbY0hdYzFbQ0gzXSktbjJubm5jMltDQEhdKFtDSF0zW0NIMl1bQ0gyXTMpTihbQ0gyXVtDSDJdNClbQ0gyXVtDSDJdQzQ1Qyg9TylbTkhdW0NIMl1ONWM2W2NIXVtjSF1bY0hdW2NIXVtjSF02

>  <s_epik_cmdline>  (177) 
J2VwaWtfcHl0aG9uJywgJy1waHQnLCAnMi4wJywgJy1waCcsICc3LjAnLCAnLXRuJywgJzgnLCAnLW1hJywgJzIwMCcsICctaW1hZScsICc8aW5maWxlLm1hZT4nLCAnLW9tYWUnLCAnPG91dGZpbGUubWFlPic=

>  <r_lp_tautomer_probability>  (177) 
1

>  <r_epik_Ionization_Penalty>  (177) 
0.128495

>  <r_epik_Ionization_Penalty_Charging>  (177) 
0

>  <r_epik_Ionization_Penalty_Neutral>  (177) 
0.128495

>  <r_epik_State_Penalty>  (177) 
0.117869

>  <r_epik_Charging_Adjusted_Penalty>  (177) 
0.117869

>  <i_epik_Tot_Q>  (177) 
0

>  <i_epik_Tot_abs_Q>  (177) 
0

>  <s_epik_Chemistry_Notes>  (177) 
This compound contains an acetal/aminal-like group ( X-CH(R)-Y where X, Y are N, S, or O) that may be acid/base labile, releasing an aldehyde.

>  <s_lp_Force_Field>  (177) 
OPLS3e

>  <r_lp_Energy>  (177) 
40.7139

>  <b_lp_Chiralities_Consistent>  (177) 
1

>  <s_lp_Variant>  (177) 
55:0-1

>  <s_i_glide_gridfile>  (177) 
pfpi4k_grid

>  <i_i_glide_lignum>  (177) 
31

>  <i_i_glide_rotatable_bonds>  (177) 
5

>  <r_i_docking_score>  (177) 
-2.61943

>  <r_i_glide_ligand_efficiency>  (177) 
-0.0770421

>  <r_i_glide_ligand_efficiency_sa>  (177) 
-0.249586

>  <r_i_glide_ligand_efficiency_ln>  (177) 
-0.578706

>  <r_i_glide_gscore>  (177) 
-2.61943

>  <r_i_glide_lipo>  (177) 
-0.84699

>  <r_i_glide_hbond>  (177) 
0

>  <r_i_glide_metal>  (177) 
-0

>  <r_i_glide_rewards>  (177) 
-0.33257

>  <r_i_glide_evdw>  (177) 
-32.7688

>  <r_i_glide_ecoul>  (177) 
-0.473699

>  <r_i_glide_erotb>  (177) 
0.480151

>  <r_i_glide_esite>  (177) 
-0.210525

>  <r_i_glide_emodel>  (177) 
-37.3077

>  <r_i_glide_energy>  (177) 
-33.2425

>  <r_i_glide_einternal>  (177) 
3.47508

>  <r_i_glide_intrahb_reward>  (177) 
-0

>  <i_i_glide_confnum>  (177) 
2

>  <i_i_glide_posenum>  (177) 
3

>  <r_i_glide_eff_state_penalty>  (177) 
0

>  <ligand_id>  (177) 
55

>  <original_smiles>  (177) 
Cc1ccc(-n2nnnc2C(C2CC2)N2CCC3(CC2)C(=O)NCN3c2ccccc2)cc1C

>  <smiles>  (177) 
[H]c1c([H])c([H])c(N2C([H])([H])N([H])C(=O)C23C([H])([H])C([H])([H])N(C([H])(c2nnnn2-c2c([H])c([H])c(C([H])([H])[H])c(C([H])([H])[H])c2[H])C2([H])C([H])([H])C2([H])[H])C([H])([H])C3([H])[H])c([H])c1[H]

$$$$
55:0:1
     RDKit          3D

 65 70  0  0  1  0  0  0  0  0999 V2000
    1.3049   -0.6130    4.3867 C   0  0  0  0  0  0  0  0  0  0  0  0
    2.0857   -0.8779    3.1187 C   0  0  0  0  0  0  0  0  0  0  0  0
    2.2383   -2.2041    2.6613 C   0  0  0  0  0  0  0  0  0  0  0  0
    2.9484   -2.4728    1.4739 C   0  0  0  0  0  0  0  0  0  0  0  0
    3.5642   -1.4286    0.7500 C   0  0  0  0  0  0  0  0  0  0  0  0
    4.2487   -1.6700   -0.4665 N   0  0  0  0  0  0  0  0  0  0  0  0
    3.9604   -1.0665   -1.6438 N   0  0  0  0  0  0  0  0  0  0  0  0
    4.7734   -1.5679   -2.5218 N   0  0  0  0  0  0  0  0  0  0  0  0
    5.6504   -2.4699   -1.9363 N   0  0  0  0  0  0  0  0  0  0  0  0
    5.3062   -2.4879   -0.6498 C   0  0  0  0  0  0  0  0  0  0  0  0
    5.9900   -3.3151    0.4166 C   0  0  2  0  0  0  0  0  0  0  0  0
    7.4327   -3.6853    0.0211 C   0  0  0  0  0  0  0  0  0  0  0  0
    8.4872   -4.1123    1.0246 C   0  0  0  0  0  0  0  0  0  0  0  0
    8.6046   -2.7856    0.3273 C   0  0  0  0  0  0  0  0  0  0  0  0
    5.2181   -4.5157    0.7747 N   0  0  0  0  0  0  0  0  0  0  0  0
    5.5154   -4.9433    2.1475 C   0  0  0  0  0  0  0  0  0  0  0  0
    4.6064   -6.0866    2.5885 C   0  0  0  0  0  0  0  0  0  0  0  0
    4.6980   -7.3061    1.6267 C   0  0  0  0  0  0  0  0  0  0  0  0
    4.4474   -6.7951    0.1865 C   0  0  0  0  0  0  0  0  0  0  0  0
    5.3543   -5.6196   -0.1874 C   0  0  0  0  0  0  0  0  0  0  0  0
    6.0523   -8.0436    1.7239 C   0  0  0  0  0  0  0  0  0  0  0  0
    7.1646   -7.5325    1.6046 O   0  0  0  0  0  0  0  0  0  0  0  0
    5.8492   -9.3310    1.9637 N   0  0  0  0  0  0  0  0  0  0  0  0
    4.4448   -9.6690    2.0870 C   0  0  0  0  0  0  0  0  0  0  0  0
    3.7593   -8.3814    1.9736 N   0  0  0  0  0  0  0  0  0  0  0  0
    2.5654   -8.1511    2.6776 C   0  0  0  0  0  0  0  0  0  0  0  0
    2.3883   -8.6123    4.0068 C   0  0  0  0  0  0  0  0  0  0  0  0
    1.1864   -8.3735    4.6938 C   0  0  0  0  0  0  0  0  0  0  0  0
    0.1480   -7.6492    4.0774 C   0  0  0  0  0  0  0  0  0  0  0  0
    0.3245   -7.1670    2.7654 C   0  0  0  0  0  0  0  0  0  0  0  0
    1.5232   -7.4084    2.0773 C   0  0  0  0  0  0  0  0  0  0  0  0
    3.4061   -0.1027    1.2101 C   0  0  0  0  0  0  0  0  0  0  0  0
    2.6663    0.1827    2.3808 C   0  0  0  0  0  0  0  0  0  0  0  0
    2.4901    1.6276    2.8250 C   0  0  0  0  0  0  0  0  0  0  0  0
    0.9294   -1.5386    4.8160 H   0  0  0  0  0  0  0  0  0  0  0  0
    0.4507    0.0358    4.1941 H   0  0  0  0  0  0  0  0  0  0  0  0
    1.9447   -0.1409    5.1312 H   0  0  0  0  0  0  0  0  0  0  0  0
    1.7845   -3.0251    3.2072 H   0  0  0  0  0  0  0  0  0  0  0  0
    2.9766   -3.4908    1.1163 H   0  0  0  0  0  0  0  0  0  0  0  0
    6.0407   -2.6705    1.2975 H   0  0  0  0  0  0  0  0  0  0  0  0
    7.5166   -4.1759   -0.9405 H   0  0  0  0  0  0  0  0  0  0  0  0
    8.2527   -4.1025    2.0824 H   0  0  0  0  0  0  0  0  0  0  0  0
    9.1388   -4.9285    0.7129 H   0  0  0  0  0  0  0  0  0  0  0  0
    9.3792   -2.6997   -0.4329 H   0  0  0  0  0  0  0  0  0  0  0  0
    8.3782   -1.8749    0.8786 H   0  0  0  0  0  0  0  0  0  0  0  0
    6.5381   -5.2815    2.2445 H   0  0  0  0  0  0  0  0  0  0  0  0
    5.3859   -4.1010    2.8264 H   0  0  0  0  0  0  0  0  0  0  0  0
    4.8823   -6.3814    3.6016 H   0  0  0  0  0  0  0  0  0  0  0  0
    3.5976   -5.6758    2.6470 H   0  0  0  0  0  0  0  0  0  0  0  0
    4.6091   -7.6041   -0.5245 H   0  0  0  0  0  0  0  0  0  0  0  0
    3.4163   -6.4786    0.0469 H   0  0  0  0  0  0  0  0  0  0  0  0
    5.1066   -5.2857   -1.1971 H   0  0  0  0  0  0  0  0  0  0  0  0
    6.3717   -5.9995   -0.2075 H   0  0  0  0  0  0  0  0  0  0  0  0
    6.5955  -10.0023    2.0781 H   0  0  0  0  0  0  0  0  0  0  0  0
    4.1251  -10.2547    1.2461 H   0  0  0  0  0  0  0  0  0  0  0  0
    4.2699  -10.2279    3.0102 H   0  0  0  0  0  0  0  0  0  0  0  0
    3.1822   -9.1263    4.5291 H   0  0  0  0  0  0  0  0  0  0  0  0
    1.0659   -8.7495    5.6999 H   0  0  0  0  0  0  0  0  0  0  0  0
   -0.7844   -7.4976    4.5934 H   0  0  0  0  0  0  0  0  0  0  0  0
   -0.4659   -6.6276    2.2707 H   0  0  0  0  0  0  0  0  0  0  0  0
    1.6360   -7.0201    1.0782 H   0  0  0  0  0  0  0  0  0  0  0  0
    3.8282    0.7077    0.6279 H   0  0  0  0  0  0  0  0  0  0  0  0
    2.9989    2.3145    2.1525 H   0  0  0  0  0  0  0  0  0  0  0  0
    2.9128    1.7647    3.8167 H   0  0  0  0  0  0  0  0  0  0  0  0
    1.4385    1.9104    2.8465 H   0  0  0  0  0  0  0  0  0  0  0  0
  1  2  1  0
  1 35  1  0
  1 36  1  0
  1 37  1  0
  2 33  2  0
  2  3  1  0
  3  4  2  0
  3 38  1  0
  4  5  1  0
  4 39  1  0
  5  6  1  0
  5 32  2  0
  6 10  1  0
  6  7  1  0
  7  8  2  0
  8  9  1  0
  9 10  2  0
 10 11  1  0
 11 12  1  0
 11 15  1  0
 11 40  1  1
 12 14  1  0
 12 13  1  0
 12 41  1  0
 13 14  1  0
 13 42  1  0
 13 43  1  0
 14 44  1  0
 14 45  1  0
 15 20  1  0
 15 16  1  0
 16 17  1  0
 16 46  1  0
 16 47  1  0
 17 18  1  0
 17 48  1  0
 17 49  1  0
 18 25  1  0
 18 19  1  0
 18 21  1  0
 19 20  1  0
 19 50  1  0
 19 51  1  0
 20 52  1  0
 20 53  1  0
 21 22  2  0
 21 23  1  0
 23 24  1  0
 23 54  1  0
 24 25  1  0
 24 55  1  0
 24 56  1  0
 25 26  1  0
 26 31  1  0
 26 27  2  0
 27 28  1  0
 27 57  1  0
 28 29  2  0
 28 58  1  0
 29 30  1  0
 29 59  1  0
 30 31  2  0
 30 60  1  0
 31 61  1  0
 32 33  1  0
 32 62  1  0
 33 34  1  0
 34 63  1  0
 34 64  1  0
 34 65  1  0
M  END
>  <i_m_ct_stereo_status>  (178) 
1

>  <s_m_source_file>  (178) 
/var/tmp/pbs.5076255.sched01/tmpxnahmhzs/434e81vi2s.sdf

>  <i_m_source_file_index>  (178) 
31

>  <i_lp_mmshare_version>  (178) 
48012

>  <i_f3d_flags>  (178) 
0

>  <s_epik_input>  (178) 
W0NIM11jMVtjSF1bY0hdYyhbY0hdYzFbQ0gzXSktbjJubm5jMltDQEhdKFtDSF0zW0NIMl1bQ0gyXTMpTihbQ0gyXVtDSDJdNClbQ0gyXVtDSDJdQzQ1Qyg9TylbTkhdW0NIMl1ONWM2W2NIXVtjSF1bY0hdW2NIXVtjSF02

>  <s_epik_cmdline>  (178) 
J2VwaWtfcHl0aG9uJywgJy1waHQnLCAnMi4wJywgJy1waCcsICc3LjAnLCAnLXRuJywgJzgnLCAnLW1hJywgJzIwMCcsICctaW1hZScsICc8aW5maWxlLm1hZT4nLCAnLW9tYWUnLCAnPG91dGZpbGUubWFlPic=

>  <r_lp_tautomer_probability>  (178) 
1

>  <r_epik_Ionization_Penalty>  (178) 
0.128495

>  <r_epik_Ionization_Penalty_Charging>  (178) 
0

>  <r_epik_Ionization_Penalty_Neutral>  (178) 
0.128495

>  <r_epik_State_Penalty>  (178) 
0.117869

>  <r_epik_Charging_Adjusted_Penalty>  (178) 
0.117869

>  <i_epik_Tot_Q>  (178) 
0

>  <i_epik_Tot_abs_Q>  (178) 
0

>  <s_epik_Chemistry_Notes>  (178) 
This compound contains an acetal/aminal-like group ( X-CH(R)-Y where X, Y are N, S, or O) that may be acid/base labile, releasing an aldehyde.

>  <s_lp_Force_Field>  (178) 
OPLS3e

>  <r_lp_Energy>  (178) 
40.7139

>  <b_lp_Chiralities_Consistent>  (178) 
1

>  <s_lp_Variant>  (178) 
55:0-1

>  <s_i_glide_gridfile>  (178) 
pfpi4k_grid

>  <i_i_glide_lignum>  (178) 
31

>  <i_i_glide_rotatable_bonds>  (178) 
5

>  <r_i_docking_score>  (178) 
-2.41098

>  <r_i_glide_ligand_efficiency>  (178) 
-0.0709112

>  <r_i_glide_ligand_efficiency_sa>  (178) 
-0.229725

>  <r_i_glide_ligand_efficiency_ln>  (178) 
-0.532653

>  <r_i_glide_gscore>  (178) 
-2.41098

>  <r_i_glide_lipo>  (178) 
-0.570426

>  <r_i_glide_hbond>  (178) 
0

>  <r_i_glide_metal>  (178) 
-0

>  <r_i_glide_rewards>  (178) 
-0.411491

>  <r_i_glide_evdw>  (178) 
-34.7292

>  <r_i_glide_ecoul>  (178) 
0.210743

>  <r_i_glide_erotb>  (178) 
0.480151

>  <r_i_glide_esite>  (178) 
-0.204365

>  <r_i_glide_emodel>  (178) 
-36.9199

>  <r_i_glide_energy>  (178) 
-34.5185

>  <r_i_glide_einternal>  (178) 
5.36399

>  <r_i_glide_intrahb_reward>  (178) 
-0

>  <i_i_glide_confnum>  (178) 
3

>  <i_i_glide_posenum>  (178) 
26

>  <r_i_glide_eff_state_penalty>  (178) 
0

>  <ligand_id>  (178) 
55

>  <original_smiles>  (178) 
Cc1ccc(-n2nnnc2C(C2CC2)N2CCC3(CC2)C(=O)NCN3c2ccccc2)cc1C

>  <smiles>  (178) 
[H]c1c([H])c([H])c(N2C([H])([H])N([H])C(=O)C23C([H])([H])C([H])([H])N(C([H])(c2nnnn2-c2c([H])c([H])c(C([H])([H])[H])c(C([H])([H])[H])c2[H])C2([H])C([H])([H])C2([H])[H])C([H])([H])C3([H])[H])c([H])c1[H]

$$$$
55:0:2
     RDKit          3D

 65 70  0  0  1  0  0  0  0  0999 V2000
   -3.2125    2.8378    2.6528 C   0  0  0  0  0  0  0  0  0  0  0  0
   -1.8058    2.5281    3.1241 C   0  0  0  0  0  0  0  0  0  0  0  0
   -0.9954    1.6574    2.3698 C   0  0  0  0  0  0  0  0  0  0  0  0
    0.3421    1.4139    2.7441 C   0  0  0  0  0  0  0  0  0  0  0  0
    0.8664    1.9732    3.9327 C   0  0  0  0  0  0  0  0  0  0  0  0
    2.2052    1.7526    4.3591 N   0  0  0  0  0  0  0  0  0  0  0  0
    2.9771    2.7012    4.9447 N   0  0  0  0  0  0  0  0  0  0  0  0
    4.0909    2.1283    5.2461 N   0  0  0  0  0  0  0  0  0  0  0  0
    4.0682    0.7976    4.8960 N   0  0  0  0  0  0  0  0  0  0  0  0
    2.8701    0.5939    4.3485 C   0  0  0  0  0  0  0  0  0  0  0  0
    2.4104   -0.7424    3.7865 C   0  0  2  0  0  0  0  0  0  0  0  0
    2.5127   -1.8732    4.8076 C   0  0  0  0  0  0  0  0  0  0  0  0
    1.3993   -2.8961    4.9543 C   0  0  0  0  0  0  0  0  0  0  0  0
    1.6277   -1.8726    6.0274 C   0  0  0  0  0  0  0  0  0  0  0  0
    3.0456   -1.0952    2.5026 N   0  0  0  0  0  0  0  0  0  0  0  0
    2.3180   -2.1925    1.8467 C   0  0  0  0  0  0  0  0  0  0  0  0
    2.9068   -2.5074    0.4661 C   0  0  0  0  0  0  0  0  0  0  0  0
    4.4326   -2.8094    0.5084 C   0  0  0  0  0  0  0  0  0  0  0  0
    5.1265   -1.6660    1.2775 C   0  0  0  0  0  0  0  0  0  0  0  0
    4.4808   -1.4101    2.6210 C   0  0  0  0  0  0  0  0  0  0  0  0
    4.7300   -4.1734    1.1745 C   0  0  0  0  0  0  0  0  0  0  0  0
    4.3234   -4.5521    2.2727 O   0  0  0  0  0  0  0  0  0  0  0  0
    5.4976   -4.8970    0.3764 N   0  0  0  0  0  0  0  0  0  0  0  0
    5.8024   -4.2319   -0.8703 C   0  0  0  0  0  0  0  0  0  0  0  0
    5.0598   -2.9814   -0.8042 N   0  0  0  0  0  0  0  0  0  0  0  0
    4.5442   -2.3836   -1.9880 C   0  0  0  0  0  0  0  0  0  0  0  0
    4.0551   -3.1608   -3.0586 C   0  0  0  0  0  0  0  0  0  0  0  0
    3.5119   -2.5543   -4.2024 C   0  0  0  0  0  0  0  0  0  0  0  0
    3.4410   -1.1503   -4.3065 C   0  0  0  0  0  0  0  0  0  0  0  0
    3.8886   -0.3665   -3.2324 C   0  0  0  0  0  0  0  0  0  0  0  0
    4.4268   -0.9762   -2.0833 C   0  0  0  0  0  0  0  0  0  0  0  0
    0.0429    2.8378    4.6946 C   0  0  0  0  0  0  0  0  0  0  0  0
   -1.2846    3.1095    4.3004 C   0  0  0  0  0  0  0  0  0  0  0  0
   -2.1244    4.0606    5.1179 C   0  0  0  0  0  0  0  0  0  0  0  0
   -3.4333    2.2905    1.7387 H   0  0  0  0  0  0  0  0  0  0  0  0
   -3.3566    3.8953    2.4534 H   0  0  0  0  0  0  0  0  0  0  0  0
   -3.9246    2.5382    3.4147 H   0  0  0  0  0  0  0  0  0  0  0  0
   -1.3745    1.2060    1.4582 H   0  0  0  0  0  0  0  0  0  0  0  0
    0.9422    0.8076    2.0815 H   0  0  0  0  0  0  0  0  0  0  0  0
    1.3416   -0.6844    3.6031 H   0  0  0  0  0  0  0  0  0  0  0  0
    3.5196   -2.2108    5.0475 H   0  0  0  0  0  0  0  0  0  0  0  0
    0.5176   -2.7899    4.3224 H   0  0  0  0  0  0  0  0  0  0  0  0
    1.7124   -3.9203    5.1496 H   0  0  0  0  0  0  0  0  0  0  0  0
    2.1113   -2.2024    6.9453 H   0  0  0  0  0  0  0  0  0  0  0  0
    0.9205   -1.0503    6.1248 H   0  0  0  0  0  0  0  0  0  0  0  0
    2.3380   -3.0838    2.4648 H   0  0  0  0  0  0  0  0  0  0  0  0
    1.2687   -1.9219    1.7206 H   0  0  0  0  0  0  0  0  0  0  0  0
    2.3663   -3.3356    0.0037 H   0  0  0  0  0  0  0  0  0  0  0  0
    2.6862   -1.6305   -0.1377 H   0  0  0  0  0  0  0  0  0  0  0  0
    6.1694   -1.9210    1.4681 H   0  0  0  0  0  0  0  0  0  0  0  0
    5.1487   -0.7254    0.7320 H   0  0  0  0  0  0  0  0  0  0  0  0
    5.0491   -0.5939    3.0535 H   0  0  0  0  0  0  0  0  0  0  0  0
    4.6643   -2.2919    3.2241 H   0  0  0  0  0  0  0  0  0  0  0  0
    5.7860   -5.8401    0.5973 H   0  0  0  0  0  0  0  0  0  0  0  0
    6.8656   -3.9946   -0.9266 H   0  0  0  0  0  0  0  0  0  0  0  0
    5.4862   -4.8837   -1.6769 H   0  0  0  0  0  0  0  0  0  0  0  0
    4.0291   -4.2471   -3.0275 H   0  0  0  0  0  0  0  0  0  0  0  0
    3.1372   -3.1839   -4.9919 H   0  0  0  0  0  0  0  0  0  0  0  0
    3.0454   -0.6844   -5.1942 H   0  0  0  0  0  0  0  0  0  0  0  0
    3.8128    0.7075   -3.2708 H   0  0  0  0  0  0  0  0  0  0  0  0
    4.7250   -0.3316   -1.2763 H   0  0  0  0  0  0  0  0  0  0  0  0
    0.4382    3.3187    5.5818 H   0  0  0  0  0  0  0  0  0  0  0  0
   -1.5796    4.4367    5.9804 H   0  0  0  0  0  0  0  0  0  0  0  0
   -3.0292    3.5708    5.4702 H   0  0  0  0  0  0  0  0  0  0  0  0
   -2.3792    4.8938    4.4734 H   0  0  0  0  0  0  0  0  0  0  0  0
  1  2  1  0
  1 35  1  0
  1 36  1  0
  1 37  1  0
  2 33  2  0
  2  3  1  0
  3  4  2  0
  3 38  1  0
  4  5  1  0
  4 39  1  0
  5  6  1  0
  5 32  2  0
  6 10  1  0
  6  7  1  0
  7  8  2  0
  8  9  1  0
  9 10  2  0
 10 11  1  0
 11 12  1  0
 11 15  1  0
 11 40  1  6
 12 14  1  0
 12 13  1  0
 12 41  1  0
 13 14  1  0
 13 42  1  0
 13 43  1  0
 14 44  1  0
 14 45  1  0
 15 20  1  0
 15 16  1  0
 16 17  1  0
 16 46  1  0
 16 47  1  0
 17 18  1  0
 17 48  1  0
 17 49  1  0
 18 25  1  0
 18 19  1  0
 18 21  1  0
 19 20  1  0
 19 50  1  0
 19 51  1  0
 20 52  1  0
 20 53  1  0
 21 22  2  0
 21 23  1  0
 23 24  1  0
 23 54  1  0
 24 25  1  0
 24 55  1  0
 24 56  1  0
 25 26  1  0
 26 31  1  0
 26 27  2  0
 27 28  1  0
 27 57  1  0
 28 29  2  0
 28 58  1  0
 29 30  1  0
 29 59  1  0
 30 31  2  0
 30 60  1  0
 31 61  1  0
 32 33  1  0
 32 62  1  0
 33 34  1  0
 34 63  1  0
 34 64  1  0
 34 65  1  0
M  END
>  <i_m_ct_stereo_status>  (179) 
1

>  <s_m_source_file>  (179) 
/var/tmp/pbs.5076255.sched01/tmpxnahmhzs/434e81vi2s.sdf

>  <i_m_source_file_index>  (179) 
31

>  <i_lp_mmshare_version>  (179) 
48012

>  <i_f3d_flags>  (179) 
0

>  <s_epik_input>  (179) 
W0NIM11jMVtjSF1bY0hdYyhbY0hdYzFbQ0gzXSktbjJubm5jMltDQEhdKFtDSF0zW0NIMl1bQ0gyXTMpTihbQ0gyXVtDSDJdNClbQ0gyXVtDSDJdQzQ1Qyg9TylbTkhdW0NIMl1ONWM2W2NIXVtjSF1bY0hdW2NIXVtjSF02

>  <s_epik_cmdline>  (179) 
J2VwaWtfcHl0aG9uJywgJy1waHQnLCAnMi4wJywgJy1waCcsICc3LjAnLCAnLXRuJywgJzgnLCAnLW1hJywgJzIwMCcsICctaW1hZScsICc8aW5maWxlLm1hZT4nLCAnLW9tYWUnLCAnPG91dGZpbGUubWFlPic=

>  <r_lp_tautomer_probability>  (179) 
1

>  <r_epik_Ionization_Penalty>  (179) 
0.128495

>  <r_epik_Ionization_Penalty_Charging>  (179) 
0

>  <r_epik_Ionization_Penalty_Neutral>  (179) 
0.128495

>  <r_epik_State_Penalty>  (179) 
0.117869

>  <r_epik_Charging_Adjusted_Penalty>  (179) 
0.117869

>  <i_epik_Tot_Q>  (179) 
0

>  <i_epik_Tot_abs_Q>  (179) 
0

>  <s_epik_Chemistry_Notes>  (179) 
This compound contains an acetal/aminal-like group ( X-CH(R)-Y where X, Y are N, S, or O) that may be acid/base labile, releasing an aldehyde.

>  <s_lp_Force_Field>  (179) 
OPLS3e

>  <r_lp_Energy>  (179) 
40.7139

>  <b_lp_Chiralities_Consistent>  (179) 
1

>  <s_lp_Variant>  (179) 
55:0-1

>  <s_i_glide_gridfile>  (179) 
pfpi4k_grid

>  <i_i_glide_lignum>  (179) 
31

>  <i_i_glide_rotatable_bonds>  (179) 
5

>  <r_i_docking_score>  (179) 
-2.1231

>  <r_i_glide_ligand_efficiency>  (179) 
-0.0624442

>  <r_i_glide_ligand_efficiency_sa>  (179) 
-0.202295

>  <r_i_glide_ligand_efficiency_ln>  (179) 
-0.469053

>  <r_i_glide_gscore>  (179) 
-2.1231

>  <r_i_glide_lipo>  (179) 
-0.388755

>  <r_i_glide_hbond>  (179) 
0

>  <r_i_glide_metal>  (179) 
-0

>  <r_i_glide_rewards>  (179) 
-0.380181

>  <r_i_glide_evdw>  (179) 
-32.7614

>  <r_i_glide_ecoul>  (179) 
-1.24646

>  <r_i_glide_erotb>  (179) 
0.480151

>  <r_i_glide_esite>  (179) 
-0.0092792

>  <r_i_glide_emodel>  (179) 
-38.2967

>  <r_i_glide_energy>  (179) 
-34.0078

>  <r_i_glide_einternal>  (179) 
0.562248

>  <r_i_glide_intrahb_reward>  (179) 
-0

>  <i_i_glide_confnum>  (179) 
3

>  <i_i_glide_posenum>  (179) 
4

>  <r_i_glide_eff_state_penalty>  (179) 
0

>  <ligand_id>  (179) 
55

>  <original_smiles>  (179) 
Cc1ccc(-n2nnnc2C(C2CC2)N2CCC3(CC2)C(=O)NCN3c2ccccc2)cc1C

>  <smiles>  (179) 
[H]c1c([H])c([H])c(N2C([H])([H])N([H])C(=O)C23C([H])([H])C([H])([H])N(C([H])(c2nnnn2-c2c([H])c([H])c(C([H])([H])[H])c(C([H])([H])[H])c2[H])C2([H])C([H])([H])C2([H])[H])C([H])([H])C3([H])[H])c([H])c1[H]

$$$$
55:1:0
     RDKit          3D

 66 71  0  0  1  0  0  0  0  0999 V2000
    6.1529   -1.0860    7.8815 C   0  0  0  0  0  0  0  0  0  0  0  0
    5.7586   -1.2456    6.4390 C   0  0  0  0  0  0  0  0  0  0  0  0
    5.7642   -0.1206    5.5766 C   0  0  0  0  0  0  0  0  0  0  0  0
    5.3956   -0.2588    4.2190 C   0  0  0  0  0  0  0  0  0  0  0  0
    5.0050   -1.5260    3.6917 C   0  0  0  0  0  0  0  0  0  0  0  0
    4.6262   -1.6420    2.3253 N   0  0  0  0  0  0  0  0  0  0  0  0
    4.0336   -0.6465    1.6170 N   0  0  0  0  0  0  0  0  0  0  0  0
    3.8328   -1.0900    0.4487 N   0  0  0  0  0  0  0  0  0  0  0  0
    4.2784   -2.3836    0.2940 N   0  0  0  0  0  0  0  0  0  0  0  0
    4.8138   -2.6775    1.4890 C   0  0  0  0  0  0  0  0  0  0  0  0
    5.5570   -3.9680    1.7329 C   0  0  2  0  0  0  0  0  0  0  0  0
    6.3582   -4.4671    0.5367 C   0  0  0  0  0  0  0  0  0  0  0  0
    7.6941   -5.1637    0.7356 C   0  0  0  0  0  0  0  0  0  0  0  0
    7.6258   -3.7821    0.1061 C   0  0  0  0  0  0  0  0  0  0  0  0
    4.5281   -4.9678    2.1800 N   0  0  1  0  0  0  0  0  0  0  0  0
    3.7112   -5.5661    1.0639 C   0  0  0  0  0  0  0  0  0  0  0  0
    2.6449   -6.5308    1.5879 C   0  0  0  0  0  0  0  0  0  0  0  0
    3.2621   -7.6721    2.4650 C   0  0  2  0  0  0  0  0  0  0  0  0
    4.1005   -7.0216    3.5960 C   0  0  0  0  0  0  0  0  0  0  0  0
    5.1443   -6.0322    3.0597 C   0  0  0  0  0  0  0  0  0  0  0  0
    4.1512   -8.6638    1.6648 C   0  0  0  0  0  0  0  0  0  0  0  0
    5.0757   -8.3652    0.9046 O   0  0  0  0  0  0  0  0  0  0  0  0
    3.7599   -9.9110    1.9184 N   0  0  0  0  0  0  0  0  0  0  0  0
    2.6357   -9.9909    2.8236 C   0  0  0  0  0  0  0  0  0  0  0  0
    2.2660   -8.5782    3.0263 N   0  0  0  0  0  0  0  0  0  0  0  0
    0.9209   -8.2079    3.2634 C   0  0  0  0  0  0  0  0  0  0  0  0
    0.6074   -7.1163    4.1168 C   0  0  0  0  0  0  0  0  0  0  0  0
   -0.7273   -6.7473    4.3535 C   0  0  0  0  0  0  0  0  0  0  0  0
   -1.7809   -7.4563    3.7331 C   0  0  0  0  0  0  0  0  0  0  0  0
   -1.4783   -8.5348    2.8831 C   0  0  0  0  0  0  0  0  0  0  0  0
   -0.1491   -8.8956    2.6398 C   0  0  0  0  0  0  0  0  0  0  0  0
    4.9614   -2.6215    4.5871 C   0  0  0  0  0  0  0  0  0  0  0  0
    5.3651   -2.5049    5.9307 C   0  0  0  0  0  0  0  0  0  0  0  0
    5.3471   -3.7430    6.8051 C   0  0  0  0  0  0  0  0  0  0  0  0
    6.4072   -0.0521    8.1104 H   0  0  0  0  0  0  0  0  0  0  0  0
    7.0204   -1.7054    8.1063 H   0  0  0  0  0  0  0  0  0  0  0  0
    5.3333   -1.3838    8.5357 H   0  0  0  0  0  0  0  0  0  0  0  0
    6.0385    0.8568    5.9525 H   0  0  0  0  0  0  0  0  0  0  0  0
    5.4046    0.6138    3.5793 H   0  0  0  0  0  0  0  0  0  0  0  0
    6.2701   -3.7539    2.5319 H   0  0  0  0  0  0  0  0  0  0  0  0
    5.7255   -4.7461   -0.3183 H   0  0  0  0  0  0  0  0  0  0  0  0
    8.0922   -5.2469    1.7500 H   0  0  0  0  0  0  0  0  0  0  0  0
    7.8732   -6.0291    0.0987 H   0  0  0  0  0  0  0  0  0  0  0  0
    7.7012   -3.6890   -0.9742 H   0  0  0  0  0  0  0  0  0  0  0  0
    7.9003   -2.8898    0.6763 H   0  0  0  0  0  0  0  0  0  0  0  0
    3.2068   -4.8043    0.4598 H   0  0  0  0  0  0  0  0  0  0  0  0
    4.3521   -6.0942    0.3481 H   0  0  0  0  0  0  0  0  0  0  0  0
    1.8740   -5.9621    2.1161 H   0  0  0  0  0  0  0  0  0  0  0  0
    2.1320   -6.9707    0.7379 H   0  0  0  0  0  0  0  0  0  0  0  0
    3.4751   -6.4877    4.3054 H   0  0  0  0  0  0  0  0  0  0  0  0
    4.6053   -7.7883    4.1919 H   0  0  0  0  0  0  0  0  0  0  0  0
    5.9199   -6.5674    2.5026 H   0  0  0  0  0  0  0  0  0  0  0  0
    5.6523   -5.5845    3.9222 H   0  0  0  0  0  0  0  0  0  0  0  0
    4.1088  -10.7322    1.4066 H   0  0  0  0  0  0  0  0  0  0  0  0
    1.8814  -10.6318    2.3624 H   0  0  0  0  0  0  0  0  0  0  0  0
    2.9653  -10.4304    3.7687 H   0  0  0  0  0  0  0  0  0  0  0  0
    1.3789   -6.5361    4.5971 H   0  0  0  0  0  0  0  0  0  0  0  0
   -0.9431   -5.9186    5.0095 H   0  0  0  0  0  0  0  0  0  0  0  0
   -2.7960   -7.1988    3.9440 H   0  0  0  0  0  0  0  0  0  0  0  0
   -2.2620   -9.0947    2.4042 H   0  0  0  0  0  0  0  0  0  0  0  0
    0.0289   -9.6942    1.9439 H   0  0  0  0  0  0  0  0  0  0  0  0
    4.6051   -3.5844    4.2804 H   0  0  0  0  0  0  0  0  0  0  0  0
    5.0452   -4.6218    6.2400 H   0  0  0  0  0  0  0  0  0  0  0  0
    4.6432   -3.6265    7.6231 H   0  0  0  0  0  0  0  0  0  0  0  0
    6.3360   -3.9452    7.2057 H   0  0  0  0  0  0  0  0  0  0  0  0
    3.8730   -4.4749    2.7796 H   0  0  0  0  0  0  0  0  0  0  0  0
  1  2  1  0
  1 35  1  0
  1 36  1  0
  1 37  1  0
  2 33  2  0
  2  3  1  0
  3  4  2  0
  3 38  1  0
  4  5  1  0
  4 39  1  0
  5  6  1  0
  5 32  2  0
  6 10  1  0
  6  7  1  0
  7  8  2  0
  8  9  1  0
  9 10  2  0
 10 11  1  0
 11 12  1  0
 11 15  1  0
 11 40  1  1
 12 14  1  0
 12 13  1  0
 12 41  1  0
 13 14  1  0
 13 42  1  0
 13 43  1  0
 14 44  1  0
 14 45  1  0
 15 20  1  0
 15 16  1  0
 15 66  1  1
 16 17  1  0
 16 46  1  0
 16 47  1  0
 17 18  1  0
 17 48  1  0
 17 49  1  0
 18 25  1  1
 18 19  1  0
 18 21  1  0
 19 20  1  0
 19 50  1  0
 19 51  1  0
 20 52  1  0
 20 53  1  0
 21 22  2  0
 21 23  1  0
 23 24  1  0
 23 54  1  0
 24 25  1  0
 24 55  1  0
 24 56  1  0
 25 26  1  0
 26 31  1  0
 26 27  2  0
 27 28  1  0
 27 57  1  0
 28 29  2  0
 28 58  1  0
 29 30  1  0
 29 59  1  0
 30 31  2  0
 30 60  1  0
 31 61  1  0
 32 33  1  0
 32 62  1  0
 33 34  1  0
 34 63  1  0
 34 64  1  0
 34 65  1  0
M  CHG  1  15   1
M  END
>  <i_m_ct_stereo_status>  (180) 
1

>  <s_m_source_file>  (180) 
/var/tmp/pbs.5076255.sched01/tmpxnahmhzs/434e81vi2s.sdf

>  <i_m_source_file_index>  (180) 
32

>  <i_lp_mmshare_version>  (180) 
48012

>  <i_f3d_flags>  (180) 
0

>  <s_epik_input>  (180) 
W0NIM11jMVtjSF1bY0hdYyhbY0hdYzFbQ0gzXSktbjJubm5jMltDQEhdKFtDSF0zW0NIMl1bQ0gyXTMpTihbQ0gyXVtDSDJdNClbQ0gyXVtDSDJdQzQ1Qyg9TylbTkhdW0NIMl1ONWM2W2NIXVtjSF1bY0hdW2NIXVtjSF02

>  <s_epik_cmdline>  (180) 
J2VwaWtfcHl0aG9uJywgJy1waHQnLCAnMi4wJywgJy1waCcsICc3LjAnLCAnLXRuJywgJzgnLCAnLW1hJywgJzIwMCcsICctaW1hZScsICc8aW5maWxlLm1hZT4nLCAnLW9tYWUnLCAnPG91dGZpbGUubWFlPic=

>  <r_lp_tautomer_probability>  (180) 
1

>  <r_epik_Ionization_Penalty>  (180) 
0.968876

>  <r_epik_Ionization_Penalty_Charging>  (180) 
0.968876

>  <r_epik_Ionization_Penalty_Neutral>  (180) 
6.02797e-07

>  <r_epik_State_Penalty>  (180) 
1.01468

>  <r_epik_Charging_Adjusted_Penalty>  (180) 
1.98355

>  <i_epik_Tot_Q>  (180) 
1

>  <i_epik_Tot_abs_Q>  (180) 
1

>  <s_epik_Chemistry_Notes>  (180) 
This compound contains an acetal/aminal-like group ( X-CH(R)-Y where X, Y are N, S, or O) that may be acid/base labile, releasing an aldehyde.

>  <s_lp_Force_Field>  (180) 
OPLS3e

>  <r_lp_Energy>  (180) 
46.0055

>  <b_lp_Chiralities_Consistent>  (180) 
1

>  <s_lp_Variant>  (180) 
55:0-2

>  <s_i_glide_gridfile>  (180) 
pfpi4k_grid

>  <i_i_glide_lignum>  (180) 
32

>  <i_i_glide_rotatable_bonds>  (180) 
5

>  <r_i_docking_score>  (180) 
-3.11536

>  <r_i_glide_ligand_efficiency>  (180) 
-0.0916281

>  <r_i_glide_ligand_efficiency_sa>  (180) 
-0.29684

>  <r_i_glide_ligand_efficiency_ln>  (180) 
-0.68827

>  <r_i_glide_gscore>  (180) 
-3.11536

>  <r_i_glide_lipo>  (180) 
-0.75425

>  <r_i_glide_hbond>  (180) 
-0.16

>  <r_i_glide_metal>  (180) 
-0

>  <r_i_glide_rewards>  (180) 
-0.386791

>  <r_i_glide_evdw>  (180) 
-30.072

>  <r_i_glide_ecoul>  (180) 
-4.14784

>  <r_i_glide_erotb>  (180) 
0.478231

>  <r_i_glide_esite>  (180) 
-0.166773

>  <r_i_glide_emodel>  (180) 
-33.703

>  <r_i_glide_energy>  (180) 
-34.2198

>  <r_i_glide_einternal>  (180) 
12.9195

>  <r_i_glide_intrahb_reward>  (180) 
-0

>  <i_i_glide_confnum>  (180) 
4

>  <i_i_glide_posenum>  (180) 
34

>  <r_i_glide_eff_state_penalty>  (180) 
0

>  <ligand_id>  (180) 
55

>  <original_smiles>  (180) 
Cc1ccc(-n2nnnc2C(C2CC2)N2CCC3(CC2)C(=O)NCN3c2ccccc2)cc1C

>  <smiles>  (180) 
[H]c1c([H])c([H])c(N2C([H])([H])N([H])C(=O)C23C([H])([H])C([H])([H])[N+]([H])(C([H])(c2nnnn2-c2c([H])c([H])c(C([H])([H])[H])c(C([H])([H])[H])c2[H])C2([H])C([H])([H])C2([H])[H])C([H])([H])C3([H])[H])c([H])c1[H]

$$$$
55:1:1
     RDKit          3D

 66 71  0  0  1  0  0  0  0  0999 V2000
    5.0561   -0.2011    5.9545 C   0  0  0  0  0  0  0  0  0  0  0  0
    5.0171   -1.0503    4.7101 C   0  0  0  0  0  0  0  0  0  0  0  0
    5.3749   -0.4956    3.4612 C   0  0  0  0  0  0  0  0  0  0  0  0
    5.3562   -1.2705    2.2901 C   0  0  0  0  0  0  0  0  0  0  0  0
    4.9759   -2.6338    2.3402 C   0  0  0  0  0  0  0  0  0  0  0  0
    4.9352   -3.4093    1.1391 N   0  0  0  0  0  0  0  0  0  0  0  0
    4.5961   -2.8877   -0.0554 N   0  0  0  0  0  0  0  0  0  0  0  0
    4.6452   -3.8710   -0.9125 N   0  0  0  0  0  0  0  0  0  0  0  0
    5.0095   -5.0537   -0.2979 N   0  0  0  0  0  0  0  0  0  0  0  0
    5.2441   -4.7039    0.9675 C   0  0  0  0  0  0  0  0  0  0  0  0
    5.8185   -5.6552    1.9939 C   0  0  2  0  0  0  0  0  0  0  0  0
    6.8728   -6.5879    1.4326 C   0  0  0  0  0  0  0  0  0  0  0  0
    8.1288   -6.9245    2.2070 C   0  0  0  0  0  0  0  0  0  0  0  0
    8.1971   -6.0715    0.9425 C   0  0  0  0  0  0  0  0  0  0  0  0
    4.6526   -6.4170    2.5537 N   0  0  1  0  0  0  0  0  0  0  0  0
    4.1922   -7.5548    1.6871 C   0  0  0  0  0  0  0  0  0  0  0  0
    2.9764   -8.2752    2.2969 C   0  0  0  0  0  0  0  0  0  0  0  0
    3.2303   -8.7744    3.7563 C   0  0  2  0  0  0  0  0  0  0  0  0
    3.7195   -7.5706    4.5927 C   0  0  0  0  0  0  0  0  0  0  0  0
    4.9280   -6.8554    3.9575 C   0  0  0  0  0  0  0  0  0  0  0  0
    4.2318   -9.9494    3.8444 C   0  0  0  0  0  0  0  0  0  0  0  0
    5.3738   -9.9381    3.3887 O   0  0  0  0  0  0  0  0  0  0  0  0
    3.6944  -10.9669    4.5058 N   0  0  0  0  0  0  0  0  0  0  0  0
    2.3481  -10.6821    4.9694 C   0  0  0  0  0  0  0  0  0  0  0  0
    2.0571   -9.3585    4.4060 N   0  0  0  0  0  0  0  0  0  0  0  0
    0.7698   -9.0361    3.9439 C   0  0  0  0  0  0  0  0  0  0  0  0
    0.1065   -9.8530    3.0078 C   0  0  0  0  0  0  0  0  0  0  0  0
   -1.1426   -9.4513    2.4832 C   0  0  0  0  0  0  0  0  0  0  0  0
   -1.7176   -8.2394    2.8793 C   0  0  0  0  0  0  0  0  0  0  0  0
   -1.0461   -7.4072    3.7937 C   0  0  0  0  0  0  0  0  0  0  0  0
    0.1887   -7.8104    4.3144 C   0  0  0  0  0  0  0  0  0  0  0  0
    4.5908   -3.1698    3.5834 C   0  0  0  0  0  0  0  0  0  0  0  0
    4.6414   -2.4140    4.7685 C   0  0  0  0  0  0  0  0  0  0  0  0
    4.2624   -3.0688    6.0842 C   0  0  0  0  0  0  0  0  0  0  0  0
    5.3565    0.8215    5.7287 H   0  0  0  0  0  0  0  0  0  0  0  0
    5.7673   -0.6078    6.6723 H   0  0  0  0  0  0  0  0  0  0  0  0
    4.0738   -0.1650    6.4218 H   0  0  0  0  0  0  0  0  0  0  0  0
    5.6466    0.5577    3.3983 H   0  0  0  0  0  0  0  0  0  0  0  0
    5.6140   -0.8074    1.3420 H   0  0  0  0  0  0  0  0  0  0  0  0
    6.3184   -5.0365    2.7452 H   0  0  0  0  0  0  0  0  0  0  0  0
    6.4600   -7.3677    0.8266 H   0  0  0  0  0  0  0  0  0  0  0  0
    8.2909   -6.4430    3.1741 H   0  0  0  0  0  0  0  0  0  0  0  0
    8.4669   -7.9584    2.1523 H   0  0  0  0  0  0  0  0  0  0  0  0
    8.5523   -6.5326    0.0248 H   0  0  0  0  0  0  0  0  0  0  0  0
    8.3554   -4.9928    1.0109 H   0  0  0  0  0  0  0  0  0  0  0  0
    3.8963   -7.2440    0.6790 H   0  0  0  0  0  0  0  0  0  0  0  0
    4.9792   -8.2922    1.5220 H   0  0  0  0  0  0  0  0  0  0  0  0
    2.1002   -7.6165    2.2396 H   0  0  0  0  0  0  0  0  0  0  0  0
    2.7074   -9.1203    1.6638 H   0  0  0  0  0  0  0  0  0  0  0  0
    2.9173   -6.8440    4.7178 H   0  0  0  0  0  0  0  0  0  0  0  0
    3.9747   -7.8828    5.6116 H   0  0  0  0  0  0  0  0  0  0  0  0
    5.7998   -7.5129    3.9863 H   0  0  0  0  0  0  0  0  0  0  0  0
    5.1729   -6.0032    4.6012 H   0  0  0  0  0  0  0  0  0  0  0  0
    4.1747  -11.8452    4.6867 H   0  0  0  0  0  0  0  0  0  0  0  0
    1.6536  -11.4659    4.6597 H   0  0  0  0  0  0  0  0  0  0  0  0
    2.3472  -10.6307    6.0599 H   0  0  0  0  0  0  0  0  0  0  0  0
    0.5433  -10.7777    2.6744 H   0  0  0  0  0  0  0  0  0  0  0  0
   -1.6378  -10.0805    1.7711 H   0  0  0  0  0  0  0  0  0  0  0  0
   -2.6586   -7.9326    2.4694 H   0  0  0  0  0  0  0  0  0  0  0  0
   -1.4788   -6.4735    4.1027 H   0  0  0  0  0  0  0  0  0  0  0  0
    0.7044   -7.1646    5.0057 H   0  0  0  0  0  0  0  0  0  0  0  0
    4.2134   -4.1738    3.6724 H   0  0  0  0  0  0  0  0  0  0  0  0
    4.0180   -4.1181    5.9423 H   0  0  0  0  0  0  0  0  0  0  0  0
    3.3938   -2.5863    6.5237 H   0  0  0  0  0  0  0  0  0  0  0  0
    5.0909   -3.0223    6.7849 H   0  0  0  0  0  0  0  0  0  0  0  0
    3.8792   -5.7701    2.6112 H   0  0  0  0  0  0  0  0  0  0  0  0
  1  2  1  0
  1 35  1  0
  1 36  1  0
  1 37  1  0
  2 33  2  0
  2  3  1  0
  3  4  2  0
  3 38  1  0
  4  5  1  0
  4 39  1  0
  5  6  1  0
  5 32  2  0
  6 10  1  0
  6  7  1  0
  7  8  2  0
  8  9  1  0
  9 10  2  0
 10 11  1  0
 11 12  1  0
 11 15  1  0
 11 40  1  1
 12 14  1  0
 12 13  1  0
 12 41  1  0
 13 14  1  0
 13 42  1  0
 13 43  1  0
 14 44  1  0
 14 45  1  0
 15 20  1  0
 15 16  1  0
 15 66  1  1
 16 17  1  0
 16 46  1  0
 16 47  1  0
 17 18  1  0
 17 48  1  0
 17 49  1  0
 18 25  1  1
 18 19  1  0
 18 21  1  0
 19 20  1  0
 19 50  1  0
 19 51  1  0
 20 52  1  0
 20 53  1  0
 21 22  2  0
 21 23  1  0
 23 24  1  0
 23 54  1  0
 24 25  1  0
 24 55  1  0
 24 56  1  0
 25 26  1  0
 26 31  1  0
 26 27  2  0
 27 28  1  0
 27 57  1  0
 28 29  2  0
 28 58  1  0
 29 30  1  0
 29 59  1  0
 30 31  2  0
 30 60  1  0
 31 61  1  0
 32 33  1  0
 32 62  1  0
 33 34  1  0
 34 63  1  0
 34 64  1  0
 34 65  1  0
M  CHG  1  15   1
M  END
>  <i_m_ct_stereo_status>  (181) 
1

>  <s_m_source_file>  (181) 
/var/tmp/pbs.5076255.sched01/tmpxnahmhzs/434e81vi2s.sdf

>  <i_m_source_file_index>  (181) 
32

>  <i_lp_mmshare_version>  (181) 
48012

>  <i_f3d_flags>  (181) 
0

>  <s_epik_input>  (181) 
W0NIM11jMVtjSF1bY0hdYyhbY0hdYzFbQ0gzXSktbjJubm5jMltDQEhdKFtDSF0zW0NIMl1bQ0gyXTMpTihbQ0gyXVtDSDJdNClbQ0gyXVtDSDJdQzQ1Qyg9TylbTkhdW0NIMl1ONWM2W2NIXVtjSF1bY0hdW2NIXVtjSF02

>  <s_epik_cmdline>  (181) 
J2VwaWtfcHl0aG9uJywgJy1waHQnLCAnMi4wJywgJy1waCcsICc3LjAnLCAnLXRuJywgJzgnLCAnLW1hJywgJzIwMCcsICctaW1hZScsICc8aW5maWxlLm1hZT4nLCAnLW9tYWUnLCAnPG91dGZpbGUubWFlPic=

>  <r_lp_tautomer_probability>  (181) 
1

>  <r_epik_Ionization_Penalty>  (181) 
0.968876

>  <r_epik_Ionization_Penalty_Charging>  (181) 
0.968876

>  <r_epik_Ionization_Penalty_Neutral>  (181) 
6.02797e-07

>  <r_epik_State_Penalty>  (181) 
1.01468

>  <r_epik_Charging_Adjusted_Penalty>  (181) 
1.98355

>  <i_epik_Tot_Q>  (181) 
1

>  <i_epik_Tot_abs_Q>  (181) 
1

>  <s_epik_Chemistry_Notes>  (181) 
This compound contains an acetal/aminal-like group ( X-CH(R)-Y where X, Y are N, S, or O) that may be acid/base labile, releasing an aldehyde.

>  <s_lp_Force_Field>  (181) 
OPLS3e

>  <r_lp_Energy>  (181) 
46.0055

>  <b_lp_Chiralities_Consistent>  (181) 
1

>  <s_lp_Variant>  (181) 
55:0-2

>  <s_i_glide_gridfile>  (181) 
pfpi4k_grid

>  <i_i_glide_lignum>  (181) 
32

>  <i_i_glide_rotatable_bonds>  (181) 
5

>  <r_i_docking_score>  (181) 
-2.45415

>  <r_i_glide_ligand_efficiency>  (181) 
-0.0721808

>  <r_i_glide_ligand_efficiency_sa>  (181) 
-0.233838

>  <r_i_glide_ligand_efficiency_ln>  (181) 
-0.54219

>  <r_i_glide_gscore>  (181) 
-2.45415

>  <r_i_glide_lipo>  (181) 
-0.790375

>  <r_i_glide_hbond>  (181) 
0

>  <r_i_glide_metal>  (181) 
-0

>  <r_i_glide_rewards>  (181) 
-0.401801

>  <r_i_glide_evdw>  (181) 
-31.8433

>  <r_i_glide_ecoul>  (181) 
-0.341008

>  <r_i_glide_erotb>  (181) 
0.478231

>  <r_i_glide_esite>  (181) 
-0.096889

>  <r_i_glide_emodel>  (181) 
-29.9451

>  <r_i_glide_energy>  (181) 
-32.1843

>  <r_i_glide_einternal>  (181) 
12.7841

>  <r_i_glide_intrahb_reward>  (181) 
-0

>  <i_i_glide_confnum>  (181) 
4

>  <i_i_glide_posenum>  (181) 
1

>  <r_i_glide_eff_state_penalty>  (181) 
0

>  <ligand_id>  (181) 
55

>  <original_smiles>  (181) 
Cc1ccc(-n2nnnc2C(C2CC2)N2CCC3(CC2)C(=O)NCN3c2ccccc2)cc1C

>  <smiles>  (181) 
[H]c1c([H])c([H])c(N2C([H])([H])N([H])C(=O)C23C([H])([H])C([H])([H])[N+]([H])(C([H])(c2nnnn2-c2c([H])c([H])c(C([H])([H])[H])c(C([H])([H])[H])c2[H])C2([H])C([H])([H])C2([H])[H])C([H])([H])C3([H])[H])c([H])c1[H]

$$$$
55:1:2
     RDKit          3D

 66 71  0  0  1  0  0  0  0  0999 V2000
   -0.1109    3.0586    3.3999 C   0  0  0  0  0  0  0  0  0  0  0  0
    0.5682    1.7451    3.0881 C   0  0  0  0  0  0  0  0  0  0  0  0
    1.6946    1.7160    2.2344 C   0  0  0  0  0  0  0  0  0  0  0  0
    2.3315    0.5033    1.9346 C   0  0  0  0  0  0  0  0  0  0  0  0
    1.8308   -0.7261    2.4470 C   0  0  0  0  0  0  0  0  0  0  0  0
    2.4794   -1.9593    2.1110 N   0  0  0  0  0  0  0  0  0  0  0  0
    3.0367   -2.2074    0.9081 N   0  0  0  0  0  0  0  0  0  0  0  0
    3.5263   -3.3993    0.9665 N   0  0  0  0  0  0  0  0  0  0  0  0
    3.3206   -3.9721    2.2095 N   0  0  0  0  0  0  0  0  0  0  0  0
    2.7158   -3.0103    2.9159 C   0  0  0  0  0  0  0  0  0  0  0  0
    2.4424   -3.0873    4.4111 C   0  0  2  0  0  0  0  0  0  0  0  0
    3.6665   -2.7680    5.2624 C   0  0  0  0  0  0  0  0  0  0  0  0
    3.4473   -1.9939    6.5522 C   0  0  0  0  0  0  0  0  0  0  0  0
    4.1545   -1.3463    5.3791 C   0  0  0  0  0  0  0  0  0  0  0  0
    1.8950   -4.4695    4.6478 N   0  0  1  0  0  0  0  0  0  0  0  0
    2.9435   -5.4691    5.0603 C   0  0  0  0  0  0  0  0  0  0  0  0
    2.3715   -6.8561    5.2880 C   0  0  0  0  0  0  0  0  0  0  0  0
    1.1838   -6.8679    6.3085 C   0  0  2  0  0  0  0  0  0  0  0  0
    0.1347   -5.8243    5.8524 C   0  0  0  0  0  0  0  0  0  0  0  0
    0.7448   -4.4366    5.6029 C   0  0  0  0  0  0  0  0  0  0  0  0
    1.6303   -6.5851    7.7662 C   0  0  0  0  0  0  0  0  0  0  0  0
    2.2844   -5.6117    8.1376 O   0  0  0  0  0  0  0  0  0  0  0  0
    1.1969   -7.5428    8.5725 N   0  0  0  0  0  0  0  0  0  0  0  0
    0.4576   -8.5732    7.8615 C   0  0  0  0  0  0  0  0  0  0  0  0
    0.5457   -8.1742    6.4560 N   0  0  0  0  0  0  0  0  0  0  0  0
    0.6689   -9.1201    5.4276 C   0  0  0  0  0  0  0  0  0  0  0  0
    1.5049  -10.2541    5.5785 C   0  0  0  0  0  0  0  0  0  0  0  0
    1.6726  -11.1522    4.5364 C   0  0  0  0  0  0  0  0  0  0  0  0
    1.0285  -10.9316    3.3112 C   0  0  0  0  0  0  0  0  0  0  0  0
    0.2439   -9.7770    3.1091 C   0  0  0  0  0  0  0  0  0  0  0  0
    0.0539   -8.8950    4.1726 C   0  0  0  0  0  0  0  0  0  0  0  0
    0.6612   -0.6925    3.2391 C   0  0  0  0  0  0  0  0  0  0  0  0
    0.0665    0.5265    3.6109 C   0  0  0  0  0  0  0  0  0  0  0  0
   -1.1292    0.5061    4.5431 C   0  0  0  0  0  0  0  0  0  0  0  0
    0.3795    3.8871    2.8882 H   0  0  0  0  0  0  0  0  0  0  0  0
   -0.0789    3.2544    4.4697 H   0  0  0  0  0  0  0  0  0  0  0  0
   -1.1508    3.0377    3.0756 H   0  0  0  0  0  0  0  0  0  0  0  0
    2.0396    2.6448    1.7739 H   0  0  0  0  0  0  0  0  0  0  0  0
    3.1811    0.5068    1.2606 H   0  0  0  0  0  0  0  0  0  0  0  0
    1.6927   -2.3491    4.6714 H   0  0  0  0  0  0  0  0  0  0  0  0
    4.4889   -3.5061    5.1924 H   0  0  0  0  0  0  0  0  0  0  0  0
    2.4338   -1.6445    6.7874 H   0  0  0  0  0  0  0  0  0  0  0  0
    4.0241   -2.3290    7.4102 H   0  0  0  0  0  0  0  0  0  0  0  0
    5.2369   -1.2672    5.3882 H   0  0  0  0  0  0  0  0  0  0  0  0
    3.6415   -0.5922    4.7669 H   0  0  0  0  0  0  0  0  0  0  0  0
    3.7576   -5.5515    4.3271 H   0  0  0  0  0  0  0  0  0  0  0  0
    3.4339   -5.1366    5.9873 H   0  0  0  0  0  0  0  0  0  0  0  0
    2.0972   -7.2725    4.3078 H   0  0  0  0  0  0  0  0  0  0  0  0
    3.1723   -7.5096    5.6503 H   0  0  0  0  0  0  0  0  0  0  0  0
   -0.3451   -6.1339    4.9268 H   0  0  0  0  0  0  0  0  0  0  0  0
   -0.6746   -5.7511    6.5839 H   0  0  0  0  0  0  0  0  0  0  0  0
    1.0758   -4.0010    6.5506 H   0  0  0  0  0  0  0  0  0  0  0  0
   -0.0571   -3.7911    5.2261 H   0  0  0  0  0  0  0  0  0  0  0  0
    1.4049   -7.5702    9.5679 H   0  0  0  0  0  0  0  0  0  0  0  0
    0.8527   -9.5606    8.0989 H   0  0  0  0  0  0  0  0  0  0  0  0
   -0.5874   -8.5377    8.1820 H   0  0  0  0  0  0  0  0  0  0  0  0
    2.0284  -10.4631    6.4980 H   0  0  0  0  0  0  0  0  0  0  0  0
    2.2743  -12.0459    4.6490 H   0  0  0  0  0  0  0  0  0  0  0  0
    1.1599  -11.6905    2.5828 H   0  0  0  0  0  0  0  0  0  0  0  0
   -0.2297   -9.5914    2.1528 H   0  0  0  0  0  0  0  0  0  0  0  0
   -0.5752   -8.0348    4.0141 H   0  0  0  0  0  0  0  0  0  0  0  0
    0.1973   -1.6096    3.5734 H   0  0  0  0  0  0  0  0  0  0  0  0
   -1.3369   -0.5079    4.8736 H   0  0  0  0  0  0  0  0  0  0  0  0
   -2.0194    0.8818    4.0461 H   0  0  0  0  0  0  0  0  0  0  0  0
   -0.9353    1.1005    5.4320 H   0  0  0  0  0  0  0  0  0  0  0  0
    1.5251   -4.7955    3.7587 H   0  0  0  0  0  0  0  0  0  0  0  0
  1  2  1  0
  1 35  1  0
  1 36  1  0
  1 37  1  0
  2 33  2  0
  2  3  1  0
  3  4  2  0
  3 38  1  0
  4  5  1  0
  4 39  1  0
  5  6  1  0
  5 32  2  0
  6 10  1  0
  6  7  1  0
  7  8  2  0
  8  9  1  0
  9 10  2  0
 10 11  1  0
 11 12  1  0
 11 15  1  0
 11 40  1  1
 12 14  1  0
 12 13  1  0
 12 41  1  0
 13 14  1  0
 13 42  1  0
 13 43  1  0
 14 44  1  0
 14 45  1  0
 15 20  1  0
 15 16  1  0
 15 66  1  6
 16 17  1  0
 16 46  1  0
 16 47  1  0
 17 18  1  0
 17 48  1  0
 17 49  1  0
 18 25  1  1
 18 19  1  0
 18 21  1  0
 19 20  1  0
 19 50  1  0
 19 51  1  0
 20 52  1  0
 20 53  1  0
 21 22  2  0
 21 23  1  0
 23 24  1  0
 23 54  1  0
 24 25  1  0
 24 55  1  0
 24 56  1  0
 25 26  1  0
 26 31  1  0
 26 27  2  0
 27 28  1  0
 27 57  1  0
 28 29  2  0
 28 58  1  0
 29 30  1  0
 29 59  1  0
 30 31  2  0
 30 60  1  0
 31 61  1  0
 32 33  1  0
 32 62  1  0
 33 34  1  0
 34 63  1  0
 34 64  1  0
 34 65  1  0
M  CHG  1  15   1
M  END
>  <i_m_ct_stereo_status>  (182) 
1

>  <s_m_source_file>  (182) 
/var/tmp/pbs.5076255.sched01/tmpxnahmhzs/434e81vi2s.sdf

>  <i_m_source_file_index>  (182) 
32

>  <i_lp_mmshare_version>  (182) 
48012

>  <i_f3d_flags>  (182) 
0

>  <s_epik_input>  (182) 
W0NIM11jMVtjSF1bY0hdYyhbY0hdYzFbQ0gzXSktbjJubm5jMltDQEhdKFtDSF0zW0NIMl1bQ0gyXTMpTihbQ0gyXVtDSDJdNClbQ0gyXVtDSDJdQzQ1Qyg9TylbTkhdW0NIMl1ONWM2W2NIXVtjSF1bY0hdW2NIXVtjSF02

>  <s_epik_cmdline>  (182) 
J2VwaWtfcHl0aG9uJywgJy1waHQnLCAnMi4wJywgJy1waCcsICc3LjAnLCAnLXRuJywgJzgnLCAnLW1hJywgJzIwMCcsICctaW1hZScsICc8aW5maWxlLm1hZT4nLCAnLW9tYWUnLCAnPG91dGZpbGUubWFlPic=

>  <r_lp_tautomer_probability>  (182) 
1

>  <r_epik_Ionization_Penalty>  (182) 
0.968876

>  <r_epik_Ionization_Penalty_Charging>  (182) 
0.968876

>  <r_epik_Ionization_Penalty_Neutral>  (182) 
6.02797e-07

>  <r_epik_State_Penalty>  (182) 
1.01468

>  <r_epik_Charging_Adjusted_Penalty>  (182) 
1.98355

>  <i_epik_Tot_Q>  (182) 
1

>  <i_epik_Tot_abs_Q>  (182) 
1

>  <s_epik_Chemistry_Notes>  (182) 
This compound contains an acetal/aminal-like group ( X-CH(R)-Y where X, Y are N, S, or O) that may be acid/base labile, releasing an aldehyde.

>  <s_lp_Force_Field>  (182) 
OPLS3e

>  <r_lp_Energy>  (182) 
46.0055

>  <b_lp_Chiralities_Consistent>  (182) 
1

>  <s_lp_Variant>  (182) 
55:0-2

>  <s_i_glide_gridfile>  (182) 
pfpi4k_grid

>  <i_i_glide_lignum>  (182) 
32

>  <i_i_glide_rotatable_bonds>  (182) 
5

>  <r_i_docking_score>  (182) 
-1.99847

>  <r_i_glide_ligand_efficiency>  (182) 
-0.0587786

>  <r_i_glide_ligand_efficiency_sa>  (182) 
-0.19042

>  <r_i_glide_ligand_efficiency_ln>  (182) 
-0.441518

>  <r_i_glide_gscore>  (182) 
-1.99847

>  <r_i_glide_lipo>  (182) 
-0.189228

>  <r_i_glide_hbond>  (182) 
0

>  <r_i_glide_metal>  (182) 
-0

>  <r_i_glide_rewards>  (182) 
-0.282419

>  <r_i_glide_evdw>  (182) 
-28.8719

>  <r_i_glide_ecoul>  (182) 
-2.73728

>  <r_i_glide_erotb>  (182) 
0.478231

>  <r_i_glide_esite>  (182) 
-0.150869

>  <r_i_glide_emodel>  (182) 
-29.7499

>  <r_i_glide_energy>  (182) 
-31.6092

>  <r_i_glide_einternal>  (182) 
9.82328

>  <r_i_glide_intrahb_reward>  (182) 
-0

>  <i_i_glide_confnum>  (182) 
4

>  <i_i_glide_posenum>  (182) 
4

>  <r_i_glide_eff_state_penalty>  (182) 
0

>  <ligand_id>  (182) 
55

>  <original_smiles>  (182) 
Cc1ccc(-n2nnnc2C(C2CC2)N2CCC3(CC2)C(=O)NCN3c2ccccc2)cc1C

>  <smiles>  (182) 
[H]c1c([H])c([H])c(N2C([H])([H])N([H])C(=O)C23C([H])([H])C([H])([H])[N+]([H])(C([H])(c2nnnn2-c2c([H])c([H])c(C([H])([H])[H])c(C([H])([H])[H])c2[H])C2([H])C([H])([H])C2([H])[H])C([H])([H])C3([H])[H])c([H])c1[H]

$$$$
56:0:0
     RDKit          3D

 74 79  0  0  1  0  0  0  0  0999 V2000
    4.4553   -2.2952   -1.7271 C   0  0  0  0  0  0  0  0  0  0  0  0
    4.7820   -2.7071   -0.2768 C   0  0  2  0  0  0  0  0  0  0  0  0
    4.3882   -4.1746   -0.0602 C   0  0  0  0  0  0  0  0  0  0  0  0
    4.7813   -4.6452    1.3463 C   0  0  0  0  0  0  0  0  0  0  0  0
    4.1280   -3.8097    2.4702 C   0  0  2  0  0  0  0  0  0  0  0  0
    4.7772   -4.2734    3.7997 C   0  0  0  0  0  0  0  0  0  0  0  0
    2.5976   -4.0892    2.5276 C   0  0  0  0  0  0  0  0  0  0  0  0
    1.7131   -2.8751    2.8768 C   0  0  0  0  0  0  0  0  0  0  0  0
    2.3745   -1.8813    3.8105 C   0  0  2  0  0  0  0  0  0  0  0  0
    2.1233   -2.1137    5.2905 C   0  0  0  0  0  0  0  0  0  0  0  0
    1.5686   -0.8658    4.6470 C   0  0  2  0  0  0  0  0  0  0  0  0
    0.0426   -0.7986    4.5953 C   0  0  0  0  0  0  0  0  0  0  0  0
   -0.5102    0.3967    3.8105 C   0  0  0  0  0  0  0  0  0  0  0  0
    0.0131    1.7480    4.3503 C   0  0  2  0  0  0  0  0  0  0  0  0
   -0.4754    1.8972    5.8283 C   0  0  0  0  0  0  0  0  0  0  0  0
   -0.6014    2.9403    3.5260 C   0  0  1  0  0  0  0  0  0  0  0  0
   -2.1449    3.0654    3.5781 C   0  0  0  0  0  0  0  0  0  0  0  0
    0.0616    4.2876    3.8886 C   0  0  0  0  0  0  0  0  0  0  0  0
   -0.5866    5.3111    4.1007 O   0  0  0  0  0  0  0  0  0  0  0  0
    1.5832    4.3054    3.9667 C   0  0  0  0  0  0  0  0  0  0  0  0
    2.1309    3.0954    4.7450 C   0  0  0  0  0  0  0  0  0  0  0  0
    1.5987    1.7251    4.2198 C   0  0  2  0  0  0  0  0  0  0  0  0
    2.0701    1.5909    2.7422 C   0  0  0  0  0  0  0  0  0  0  0  0
    2.1995    0.4999    5.0302 C   0  0  2  0  0  0  0  0  0  0  0  0
    3.7602    0.4219    5.0508 C   0  0  0  0  0  0  0  0  0  0  0  0
    4.3683   -0.4298    3.9519 C   0  0  0  0  0  0  0  0  0  0  0  0
    3.7417   -1.4589    3.3536 C   0  0  0  0  0  0  0  0  0  0  0  0
    4.4266   -2.2950    2.2557 C   0  0  2  0  0  0  0  0  0  0  0  0
    4.1352   -1.7879    0.8007 C   0  0  1  0  0  0  0  0  0  0  0  0
    4.6122   -0.3347    0.6053 C   0  0  0  0  0  0  0  0  0  0  0  0
    3.3789   -2.2307   -1.8922 H   0  0  0  0  0  0  0  0  0  0  0  0
    4.8549   -3.0209   -2.4363 H   0  0  0  0  0  0  0  0  0  0  0  0
    4.8953   -1.3335   -1.9866 H   0  0  0  0  0  0  0  0  0  0  0  0
    5.8655   -2.6499   -0.1636 H   0  0  0  0  0  0  0  0  0  0  0  0
    3.3215   -4.3017   -0.2424 H   0  0  0  0  0  0  0  0  0  0  0  0
    4.8854   -4.8093   -0.7945 H   0  0  0  0  0  0  0  0  0  0  0  0
    4.5265   -5.6999    1.4647 H   0  0  0  0  0  0  0  0  0  0  0  0
    5.8676   -4.5833    1.4324 H   0  0  0  0  0  0  0  0  0  0  0  0
    4.3532   -3.7822    4.6733 H   0  0  0  0  0  0  0  0  0  0  0  0
    5.8421   -4.0604    3.8095 H   0  0  0  0  0  0  0  0  0  0  0  0
    4.6693   -5.3476    3.9525 H   0  0  0  0  0  0  0  0  0  0  0  0
    2.2298   -4.4982    1.5865 H   0  0  0  0  0  0  0  0  0  0  0  0
    2.4105   -4.8852    3.2514 H   0  0  0  0  0  0  0  0  0  0  0  0
    1.4307   -2.3376    1.9695 H   0  0  0  0  0  0  0  0  0  0  0  0
    0.7929   -3.2580    3.3051 H   0  0  0  0  0  0  0  0  0  0  0  0
    1.4107   -2.8862    5.5606 H   0  0  0  0  0  0  0  0  0  0  0  0
    2.9583   -2.0263    5.9832 H   0  0  0  0  0  0  0  0  0  0  0  0
   -0.3612   -1.7015    4.1489 H   0  0  0  0  0  0  0  0  0  0  0  0
   -0.3400   -0.7921    5.6141 H   0  0  0  0  0  0  0  0  0  0  0  0
   -0.2734    0.2868    2.7518 H   0  0  0  0  0  0  0  0  0  0  0  0
   -1.5966    0.3500    3.8616 H   0  0  0  0  0  0  0  0  0  0  0  0
   -0.2893    2.8873    6.2422 H   0  0  0  0  0  0  0  0  0  0  0  0
   -0.0193    1.1917    6.5180 H   0  0  0  0  0  0  0  0  0  0  0  0
   -1.5489    1.7213    5.9054 H   0  0  0  0  0  0  0  0  0  0  0  0
   -0.3712    2.7787    2.4774 H   0  0  0  0  0  0  0  0  0  0  0  0
   -2.4873    3.8308    2.8814 H   0  0  0  0  0  0  0  0  0  0  0  0
   -2.5068    3.3425    4.5678 H   0  0  0  0  0  0  0  0  0  0  0  0
   -2.6455    2.1468    3.2816 H   0  0  0  0  0  0  0  0  0  0  0  0
    1.9740    4.3161    2.9509 H   0  0  0  0  0  0  0  0  0  0  0  0
    1.9090    5.2343    4.4340 H   0  0  0  0  0  0  0  0  0  0  0  0
    3.2140    3.1589    4.6810 H   0  0  0  0  0  0  0  0  0  0  0  0
    1.9021    3.2115    5.8044 H   0  0  0  0  0  0  0  0  0  0  0  0
    3.1345    1.8051    2.6658 H   0  0  0  0  0  0  0  0  0  0  0  0
    1.5857    2.2870    2.0594 H   0  0  0  0  0  0  0  0  0  0  0  0
    1.9124    0.5929    2.3345 H   0  0  0  0  0  0  0  0  0  0  0  0
    1.9550    0.6653    6.0777 H   0  0  0  0  0  0  0  0  0  0  0  0
    4.2297    1.3985    5.0070 H   0  0  0  0  0  0  0  0  0  0  0  0
    4.0895   -0.0108    5.9966 H   0  0  0  0  0  0  0  0  0  0  0  0
    5.3761   -0.1758    3.6634 H   0  0  0  0  0  0  0  0  0  0  0  0
    5.4986   -2.1629    2.3997 H   0  0  0  0  0  0  0  0  0  0  0  0
    3.0590   -1.7935    0.6322 H   0  0  0  0  0  0  0  0  0  0  0  0
    5.6988   -0.2548    0.6478 H   0  0  0  0  0  0  0  0  0  0  0  0
    4.1998    0.3413    1.3469 H   0  0  0  0  0  0  0  0  0  0  0  0
    4.2871    0.0578   -0.3554 H   0  0  0  0  0  0  0  0  0  0  0  0
  1  2  1  0
  1 31  1  0
  1 32  1  0
  1 33  1  0
  2 29  1  0
  2  3  1  0
  2 34  1  6
  3  4  1  0
  3 35  1  0
  3 36  1  0
  4  5  1  0
  4 37  1  0
  4 38  1  0
  5 28  1  0
  5  6  1  1
  5  7  1  0
  6 39  1  0
  6 40  1  0
  6 41  1  0
  7  8  1  0
  7 42  1  0
  7 43  1  0
  9  8  1  6
  8 44  1  0
  8 45  1  0
  9 11  1  0
  9 27  1  0
  9 10  1  0
 11 10  1  1
 10 46  1  0
 10 47  1  0
 11 24  1  0
 11 12  1  0
 12 13  1  0
 12 48  1  0
 12 49  1  0
 13 14  1  0
 13 50  1  0
 13 51  1  0
 14 22  1  0
 14 15  1  1
 14 16  1  0
 15 52  1  0
 15 53  1  0
 15 54  1  0
 16 17  1  0
 16 18  1  0
 16 55  1  6
 17 56  1  0
 17 57  1  0
 17 58  1  0
 18 19  2  0
 18 20  1  0
 20 21  1  0
 20 59  1  0
 20 60  1  0
 21 22  1  0
 21 61  1  0
 21 62  1  0
 22 23  1  6
 22 24  1  0
 23 63  1  0
 23 64  1  0
 23 65  1  0
 24 25  1  0
 24 66  1  1
 25 26  1  0
 25 67  1  0
 25 68  1  0
 26 27  2  0
 26 69  1  0
 27 28  1  0
 28 29  1  0
 28 70  1  1
 29 30  1  0
 29 71  1  6
 30 72  1  0
 30 73  1  0
 30 74  1  0
M  END
>  <i_m_ct_stereo_status>  (183) 
1

>  <s_m_source_file>  (183) 
/var/tmp/pbs.5076255.sched01/tmpxnahmhzs/434e81vi2s.sdf

>  <i_m_source_file_index>  (183) 
33

>  <i_lp_mmshare_version>  (183) 
48012

>  <i_f3d_flags>  (183) 
0

>  <s_epik_input>  (183) 
W0NIM11bQ0BIXTFbQ0BIXShbQ0gzXSlbQ0gyXVtDSDJdW0NAXShbQ0gzXSkoW0NIMl1bQ0gyXTIpW0NAQEhdMUMzPVtDSF1bQ0gyXVtDQEhdKFtDQEBdNChbQ0BAXTIzNSlbQ0gyXTUpW0NAQF02KFtDSDNdKVtDQF0oW0NIM10pKFtDSDJdW0NIMl00KVtDQEBIXShbQ0gzXSlDKD1PKVtDSDJdW0NIMl02

>  <s_epik_cmdline>  (183) 
J2VwaWtfcHl0aG9uJywgJy1waHQnLCAnMi4wJywgJy1waCcsICc3LjAnLCAnLXRuJywgJzgnLCAnLW1hJywgJzIwMCcsICctaW1hZScsICc8aW5maWxlLm1hZT4nLCAnLW9tYWUnLCAnPG91dGZpbGUubWFlPic=

>  <r_lp_tautomer_probability>  (183) 
1

>  <r_epik_Ionization_Penalty>  (183) 
8.55129e-14

>  <r_epik_Ionization_Penalty_Charging>  (183) 
0

>  <r_epik_Ionization_Penalty_Neutral>  (183) 
8.55129e-14

>  <r_epik_State_Penalty>  (183) 
-0

>  <r_epik_Charging_Adjusted_Penalty>  (183) 
0

>  <i_epik_Tot_Q>  (183) 
0

>  <i_epik_Tot_abs_Q>  (183) 
0

>  <s_lp_Force_Field>  (183) 
OPLS3e

>  <r_lp_Energy>  (183) 
73.6452

>  <b_lp_Chiralities_Consistent>  (183) 
1

>  <s_lp_Variant>  (183) 
56:0-1

>  <s_i_glide_gridfile>  (183) 
pfpi4k_grid

>  <i_i_glide_lignum>  (183) 
33

>  <i_i_glide_rotatable_bonds>  (183) 
0

>  <r_i_docking_score>  (183) 
-3.03574

>  <r_i_glide_ligand_efficiency>  (183) 
-0.101191

>  <r_i_glide_ligand_efficiency_sa>  (183) 
-0.314425

>  <r_i_glide_ligand_efficiency_ln>  (183) 
-0.689754

>  <r_i_glide_gscore>  (183) 
-3.03574

>  <r_i_glide_lipo>  (183) 
-0.302814

>  <r_i_glide_hbond>  (183) 
-0.0674003

>  <r_i_glide_metal>  (183) 
-0

>  <r_i_glide_rewards>  (183) 
-0.622779

>  <r_i_glide_evdw>  (183) 
-29.321

>  <r_i_glide_ecoul>  (183) 
-3.22293

>  <r_i_glide_erotb>  (183) 
0

>  <r_i_glide_esite>  (183) 
-0.093262

>  <r_i_glide_emodel>  (183) 
-38.7525

>  <r_i_glide_energy>  (183) 
-32.5439

>  <r_i_glide_einternal>  (183) 
0

>  <r_i_glide_intrahb_reward>  (183) 
-0

>  <i_i_glide_confnum>  (183) 
1

>  <i_i_glide_posenum>  (183) 
11

>  <r_i_glide_eff_state_penalty>  (183) 
0

>  <ligand_id>  (183) 
56

>  <original_smiles>  (183) 
CC1CCC2(C)CCC34CC35CCC3(C)C(C)C(=O)CCC3(C)C5CC=C4C2C1C

>  <smiles>  (183) 
[H]C1=C2C3([H])C([H])(C([H])([H])[H])C([H])(C([H])([H])[H])C([H])([H])C([H])([H])C3(C([H])([H])[H])C([H])([H])C([H])([H])C23C([H])([H])C32C([H])([H])C([H])([H])C3(C([H])([H])[H])C([H])(C([H])([H])[H])C(=O)C([H])([H])C([H])([H])C3(C([H])([H])[H])C2([H])C1([H])[H]

$$$$
56:0:1
     RDKit          3D

 74 79  0  0  1  0  0  0  0  0999 V2000
   -1.8007   -7.7018    3.5186 C   0  0  0  0  0  0  0  0  0  0  0  0
   -0.4071   -8.3303    3.6774 C   0  0  2  0  0  0  0  0  0  0  0  0
   -0.1336   -8.5960    5.1638 C   0  0  0  0  0  0  0  0  0  0  0  0
    1.2054   -9.3157    5.3522 C   0  0  0  0  0  0  0  0  0  0  0  0
    2.4000   -8.5148    4.7893 C   0  0  2  0  0  0  0  0  0  0  0  0
    3.6329   -9.4530    4.8675 C   0  0  0  0  0  0  0  0  0  0  0  0
    2.6571   -7.2491    5.6617 C   0  0  0  0  0  0  0  0  0  0  0  0
    3.1057   -5.9894    4.8953 C   0  0  0  0  0  0  0  0  0  0  0  0
    3.9428   -6.2959    3.6624 C   0  0  2  0  0  0  0  0  0  0  0  0
    5.4466   -6.3369    3.8874 C   0  0  0  0  0  0  0  0  0  0  0  0
    4.8686   -5.2513    3.0090 C   0  0  2  0  0  0  0  0  0  0  0  0
    5.0014   -3.8412    3.5693 C   0  0  0  0  0  0  0  0  0  0  0  0
    4.3028   -2.7562    2.7454 C   0  0  0  0  0  0  0  0  0  0  0  0
    4.7654   -2.7416    1.2699 C   0  0  2  0  0  0  0  0  0  0  0  0
    6.2934   -2.4078    1.2446 C   0  0  0  0  0  0  0  0  0  0  0  0
    4.0171   -1.6039    0.4773 C   0  0  1  0  0  0  0  0  0  0  0  0
    4.2808   -0.1708    0.9952 C   0  0  0  0  0  0  0  0  0  0  0  0
    4.2963   -1.6910   -1.0401 C   0  0  0  0  0  0  0  0  0  0  0  0
    4.6114   -0.7178   -1.7220 O   0  0  0  0  0  0  0  0  0  0  0  0
    4.1759   -3.0703   -1.6775 C   0  0  0  0  0  0  0  0  0  0  0  0
    4.8861   -4.1480   -0.8369 C   0  0  0  0  0  0  0  0  0  0  0  0
    4.4386   -4.1710    0.6571 C   0  0  2  0  0  0  0  0  0  0  0  0
    2.9161   -4.4836    0.6727 C   0  0  0  0  0  0  0  0  0  0  0  0
    5.1680   -5.3079    1.4879 C   0  0  2  0  0  0  0  0  0  0  0  0
    4.9838   -6.7527    0.9267 C   0  0  0  0  0  0  0  0  0  0  0  0
    3.8227   -7.5243    1.5240 C   0  0  0  0  0  0  0  0  0  0  0  0
    3.3130   -7.3077    2.7499 C   0  0  0  0  0  0  0  0  0  0  0  0
    2.1395   -8.1377    3.2978 C   0  0  2  0  0  0  0  0  0  0  0  0
    0.7361   -7.4868    3.0445 C   0  0  1  0  0  0  0  0  0  0  0  0
    0.4667   -7.2866    1.5408 C   0  0  0  0  0  0  0  0  0  0  0  0
   -1.8325   -6.6873    3.9145 H   0  0  0  0  0  0  0  0  0  0  0  0
   -2.5420   -8.2938    4.0538 H   0  0  0  0  0  0  0  0  0  0  0  0
   -2.1241   -7.6828    2.4802 H   0  0  0  0  0  0  0  0  0  0  0  0
   -0.4383   -9.3026    3.1802 H   0  0  0  0  0  0  0  0  0  0  0  0
   -0.1716   -7.6600    5.7191 H   0  0  0  0  0  0  0  0  0  0  0  0
   -0.9237   -9.2141    5.5862 H   0  0  0  0  0  0  0  0  0  0  0  0
    1.3627   -9.5346    6.4101 H   0  0  0  0  0  0  0  0  0  0  0  0
    1.1447  -10.2840    4.8510 H   0  0  0  0  0  0  0  0  0  0  0  0
    4.5528   -8.9700    4.5426 H   0  0  0  0  0  0  0  0  0  0  0  0
    3.5012  -10.3359    4.2420 H   0  0  0  0  0  0  0  0  0  0  0  0
    3.8045   -9.8102    5.8842 H   0  0  0  0  0  0  0  0  0  0  0  0
    1.7763   -6.9770    6.2443 H   0  0  0  0  0  0  0  0  0  0  0  0
    3.4068   -7.4887    6.4157 H   0  0  0  0  0  0  0  0  0  0  0  0
    2.2424   -5.4075    4.5764 H   0  0  0  0  0  0  0  0  0  0  0  0
    3.6608   -5.3686    5.5912 H   0  0  0  0  0  0  0  0  0  0  0  0
    5.8146   -6.0367    4.8630 H   0  0  0  0  0  0  0  0  0  0  0  0
    6.0242   -7.1368    3.4286 H   0  0  0  0  0  0  0  0  0  0  0  0
    4.6177   -3.7915    4.5834 H   0  0  0  0  0  0  0  0  0  0  0  0
    6.0561   -3.6136    3.6580 H   0  0  0  0  0  0  0  0  0  0  0  0
    3.2226   -2.8830    2.8103 H   0  0  0  0  0  0  0  0  0  0  0  0
    4.5074   -1.8008    3.2269 H   0  0  0  0  0  0  0  0  0  0  0  0
    6.6781   -2.2198    0.2431 H   0  0  0  0  0  0  0  0  0  0  0  0
    6.9201   -3.1897    1.6674 H   0  0  0  0  0  0  0  0  0  0  0  0
    6.5122   -1.5179    1.8376 H   0  0  0  0  0  0  0  0  0  0  0  0
    2.9464   -1.7505    0.5926 H   0  0  0  0  0  0  0  0  0  0  0  0
    3.6404    0.5432    0.4834 H   0  0  0  0  0  0  0  0  0  0  0  0
    5.3100    0.1495    0.8246 H   0  0  0  0  0  0  0  0  0  0  0  0
    4.0615   -0.0558    2.0541 H   0  0  0  0  0  0  0  0  0  0  0  0
    3.1188   -3.3062   -1.7876 H   0  0  0  0  0  0  0  0  0  0  0  0
    4.5941   -3.0419   -2.6825 H   0  0  0  0  0  0  0  0  0  0  0  0
    4.6816   -5.0937   -1.3294 H   0  0  0  0  0  0  0  0  0  0  0  0
    5.9662   -4.0161   -0.9114 H   0  0  0  0  0  0  0  0  0  0  0  0
    2.7043   -5.3499    0.0491 H   0  0  0  0  0  0  0  0  0  0  0  0
    2.3012   -3.6798    0.2747 H   0  0  0  0  0  0  0  0  0  0  0  0
    2.5412   -4.7021    1.6714 H   0  0  0  0  0  0  0  0  0  0  0  0
    6.2382   -5.1409    1.3792 H   0  0  0  0  0  0  0  0  0  0  0  0
    4.8678   -6.7690   -0.1515 H   0  0  0  0  0  0  0  0  0  0  0  0
    5.8808   -7.3382    1.1314 H   0  0  0  0  0  0  0  0  0  0  0  0
    3.4098   -8.3056    0.9047 H   0  0  0  0  0  0  0  0  0  0  0  0
    2.1408   -9.0721    2.7346 H   0  0  0  0  0  0  0  0  0  0  0  0
    0.7141   -6.5018    3.5056 H   0  0  0  0  0  0  0  0  0  0  0  0
    0.3867   -8.2536    1.0509 H   0  0  0  0  0  0  0  0  0  0  0  0
    1.2577   -6.7393    1.0403 H   0  0  0  0  0  0  0  0  0  0  0  0
   -0.4564   -6.7413    1.3514 H   0  0  0  0  0  0  0  0  0  0  0  0
  1  2  1  0
  1 31  1  0
  1 32  1  0
  1 33  1  0
  2 29  1  0
  2  3  1  0
  2 34  1  6
  3  4  1  0
  3 35  1  0
  3 36  1  0
  4  5  1  0
  4 37  1  0
  4 38  1  0
  5 28  1  0
  5  6  1  6
  5  7  1  0
  6 39  1  0
  6 40  1  0
  6 41  1  0
  7  8  1  0
  7 42  1  0
  7 43  1  0
  9  8  1  1
  8 44  1  0
  8 45  1  0
  9 11  1  0
  9 27  1  0
  9 10  1  0
 11 10  1  1
 10 46  1  0
 10 47  1  0
 11 24  1  0
 11 12  1  0
 12 13  1  0
 12 48  1  0
 12 49  1  0
 13 14  1  0
 13 50  1  0
 13 51  1  0
 14 22  1  0
 14 15  1  1
 14 16  1  0
 15 52  1  0
 15 53  1  0
 15 54  1  0
 16 17  1  0
 16 18  1  0
 16 55  1  6
 17 56  1  0
 17 57  1  0
 17 58  1  0
 18 19  2  0
 18 20  1  0
 20 21  1  0
 20 59  1  0
 20 60  1  0
 21 22  1  0
 21 61  1  0
 21 62  1  0
 22 23  1  6
 22 24  1  0
 23 63  1  0
 23 64  1  0
 23 65  1  0
 24 25  1  0
 24 66  1  1
 25 26  1  0
 25 67  1  0
 25 68  1  0
 26 27  2  0
 26 69  1  0
 27 28  1  0
 28 29  1  0
 28 70  1  6
 29 30  1  0
 29 71  1  1
 30 72  1  0
 30 73  1  0
 30 74  1  0
M  END
>  <i_m_ct_stereo_status>  (184) 
1

>  <s_m_source_file>  (184) 
/var/tmp/pbs.5076255.sched01/tmpxnahmhzs/434e81vi2s.sdf

>  <i_m_source_file_index>  (184) 
33

>  <i_lp_mmshare_version>  (184) 
48012

>  <i_f3d_flags>  (184) 
0

>  <s_epik_input>  (184) 
W0NIM11bQ0BIXTFbQ0BIXShbQ0gzXSlbQ0gyXVtDSDJdW0NAXShbQ0gzXSkoW0NIMl1bQ0gyXTIpW0NAQEhdMUMzPVtDSF1bQ0gyXVtDQEhdKFtDQEBdNChbQ0BAXTIzNSlbQ0gyXTUpW0NAQF02KFtDSDNdKVtDQF0oW0NIM10pKFtDSDJdW0NIMl00KVtDQEBIXShbQ0gzXSlDKD1PKVtDSDJdW0NIMl02

>  <s_epik_cmdline>  (184) 
J2VwaWtfcHl0aG9uJywgJy1waHQnLCAnMi4wJywgJy1waCcsICc3LjAnLCAnLXRuJywgJzgnLCAnLW1hJywgJzIwMCcsICctaW1hZScsICc8aW5maWxlLm1hZT4nLCAnLW9tYWUnLCAnPG91dGZpbGUubWFlPic=

>  <r_lp_tautomer_probability>  (184) 
1

>  <r_epik_Ionization_Penalty>  (184) 
8.55129e-14

>  <r_epik_Ionization_Penalty_Charging>  (184) 
0

>  <r_epik_Ionization_Penalty_Neutral>  (184) 
8.55129e-14

>  <r_epik_State_Penalty>  (184) 
-0

>  <r_epik_Charging_Adjusted_Penalty>  (184) 
0

>  <i_epik_Tot_Q>  (184) 
0

>  <i_epik_Tot_abs_Q>  (184) 
0

>  <s_lp_Force_Field>  (184) 
OPLS3e

>  <r_lp_Energy>  (184) 
73.6452

>  <b_lp_Chiralities_Consistent>  (184) 
1

>  <s_lp_Variant>  (184) 
56:0-1

>  <s_i_glide_gridfile>  (184) 
pfpi4k_grid

>  <i_i_glide_lignum>  (184) 
33

>  <i_i_glide_rotatable_bonds>  (184) 
0

>  <r_i_docking_score>  (184) 
-2.81804

>  <r_i_glide_ligand_efficiency>  (184) 
-0.0939347

>  <r_i_glide_ligand_efficiency_sa>  (184) 
-0.291877

>  <r_i_glide_ligand_efficiency_ln>  (184) 
-0.64029

>  <r_i_glide_gscore>  (184) 
-2.81804

>  <r_i_glide_lipo>  (184) 
-0.490196

>  <r_i_glide_hbond>  (184) 
0

>  <r_i_glide_metal>  (184) 
-0

>  <r_i_glide_rewards>  (184) 
-0.622779

>  <r_i_glide_evdw>  (184) 
-31.4862

>  <r_i_glide_ecoul>  (184) 
-0.622235

>  <r_i_glide_erotb>  (184) 
0

>  <r_i_glide_esite>  (184) 
-0.0374201

>  <r_i_glide_emodel>  (184) 
-37.8302

>  <r_i_glide_energy>  (184) 
-32.1084

>  <r_i_glide_einternal>  (184) 
0

>  <r_i_glide_intrahb_reward>  (184) 
-0

>  <i_i_glide_confnum>  (184) 
2

>  <i_i_glide_posenum>  (184) 
7

>  <r_i_glide_eff_state_penalty>  (184) 
0

>  <ligand_id>  (184) 
56

>  <original_smiles>  (184) 
CC1CCC2(C)CCC34CC35CCC3(C)C(C)C(=O)CCC3(C)C5CC=C4C2C1C

>  <smiles>  (184) 
[H]C1=C2C3([H])C([H])(C([H])([H])[H])C([H])(C([H])([H])[H])C([H])([H])C([H])([H])C3(C([H])([H])[H])C([H])([H])C([H])([H])C23C([H])([H])C32C([H])([H])C([H])([H])C3(C([H])([H])[H])C([H])(C([H])([H])[H])C(=O)C([H])([H])C([H])([H])C3(C([H])([H])[H])C2([H])C1([H])[H]

$$$$
56:0:2
     RDKit          3D

 74 79  0  0  1  0  0  0  0  0999 V2000
   -1.6349   -8.3948    2.9122 C   0  0  0  0  0  0  0  0  0  0  0  0
   -0.3224   -8.6353    3.6835 C   0  0  2  0  0  0  0  0  0  0  0  0
   -0.5640   -8.4201    5.1795 C   0  0  0  0  0  0  0  0  0  0  0  0
    0.6866   -8.7526    6.0002 C   0  0  0  0  0  0  0  0  0  0  0  0
    1.9015   -7.8875    5.6057 C   0  0  2  0  0  0  0  0  0  0  0  0
    3.1230   -8.4747    6.3607 C   0  0  0  0  0  0  0  0  0  0  0  0
    1.6787   -6.4111    6.0537 C   0  0  0  0  0  0  0  0  0  0  0  0
    2.2203   -5.3321    5.0942 C   0  0  0  0  0  0  0  0  0  0  0  0
    3.4748   -5.7598    4.3478 C   0  0  2  0  0  0  0  0  0  0  0  0
    4.7915   -5.4100    5.0254 C   0  0  0  0  0  0  0  0  0  0  0  0
    4.4512   -4.7489    3.7119 C   0  0  2  0  0  0  0  0  0  0  0  0
    4.2246   -3.2436    3.7970 C   0  0  0  0  0  0  0  0  0  0  0  0
    3.7297   -2.6074    2.4935 C   0  0  0  0  0  0  0  0  0  0  0  0
    4.6795   -2.8857    1.3082 C   0  0  2  0  0  0  0  0  0  0  0  0
    6.0626   -2.2349    1.6347 C   0  0  0  0  0  0  0  0  0  0  0  0
    4.1419   -2.1943    0.0097 C   0  0  1  0  0  0  0  0  0  0  0  0
    4.0579   -0.6610    0.0878 C   0  0  0  0  0  0  0  0  0  0  0  0
    4.9456   -2.6102   -1.2381 C   0  0  0  0  0  0  0  0  0  0  0  0
    5.3470   -1.8047   -2.0742 O   0  0  0  0  0  0  0  0  0  0  0  0
    5.2241   -4.0954   -1.3972 C   0  0  0  0  0  0  0  0  0  0  0  0
    5.7071   -4.7315   -0.0807 C   0  0  0  0  0  0  0  0  0  0  0  0
    4.7606   -4.4593    1.1262 C   0  0  2  0  0  0  0  0  0  0  0  0
    3.3818   -5.0861    0.7715 C   0  0  0  0  0  0  0  0  0  0  0  0
    5.2755   -5.1441    2.4595 C   0  0  2  0  0  0  0  0  0  0  0  0
    5.4773   -6.6895    2.3704 C   0  0  0  0  0  0  0  0  0  0  0  0
    4.2731   -7.5107    2.7982 C   0  0  0  0  0  0  0  0  0  0  0  0
    3.3392   -7.0929    3.6682 C   0  0  0  0  0  0  0  0  0  0  0  0
    2.1524   -7.9889    4.0706 C   0  0  2  0  0  0  0  0  0  0  0  0
    0.8702   -7.7632    3.1981 C   0  0  1  0  0  0  0  0  0  0  0  0
    1.1485   -8.0371    1.7076 C   0  0  0  0  0  0  0  0  0  0  0  0
   -1.9243   -7.3444    2.9210 H   0  0  0  0  0  0  0  0  0  0  0  0
   -2.4483   -8.9645    3.3604 H   0  0  0  0  0  0  0  0  0  0  0  0
   -1.5627   -8.7254    1.8775 H   0  0  0  0  0  0  0  0  0  0  0  0
   -0.0616   -9.6874    3.5509 H   0  0  0  0  0  0  0  0  0  0  0  0
   -0.9002   -7.3983    5.3414 H   0  0  0  0  0  0  0  0  0  0  0  0
   -1.3792   -9.0578    5.5251 H   0  0  0  0  0  0  0  0  0  0  0  0
    0.4739   -8.6400    7.0652 H   0  0  0  0  0  0  0  0  0  0  0  0
    0.9227   -9.8093    5.8518 H   0  0  0  0  0  0  0  0  0  0  0  0
    4.0358   -7.9053    6.1936 H   0  0  0  0  0  0  0  0  0  0  0  0
    3.3281   -9.4991    6.0491 H   0  0  0  0  0  0  0  0  0  0  0  0
    2.9595   -8.5015    7.4390 H   0  0  0  0  0  0  0  0  0  0  0  0
    0.6208   -6.1970    6.2170 H   0  0  0  0  0  0  0  0  0  0  0  0
    2.1275   -6.2702    7.0363 H   0  0  0  0  0  0  0  0  0  0  0  0
    1.4667   -5.0648    4.3551 H   0  0  0  0  0  0  0  0  0  0  0  0
    2.4107   -4.4418    5.6839 H   0  0  0  0  0  0  0  0  0  0  0  0
    4.7460   -4.7885    5.9141 H   0  0  0  0  0  0  0  0  0  0  0  0
    5.5832   -6.1546    5.0517 H   0  0  0  0  0  0  0  0  0  0  0  0
    3.4969   -3.0123    4.5678 H   0  0  0  0  0  0  0  0  0  0  0  0
    5.1475   -2.7654    4.1231 H   0  0  0  0  0  0  0  0  0  0  0  0
    2.7212   -2.9520    2.2663 H   0  0  0  0  0  0  0  0  0  0  0  0
    3.6279   -1.5369    2.6693 H   0  0  0  0  0  0  0  0  0  0  0  0
    6.7552   -2.2375    0.7930 H   0  0  0  0  0  0  0  0  0  0  0  0
    6.5775   -2.7231    2.4545 H   0  0  0  0  0  0  0  0  0  0  0  0
    5.9507   -1.1953    1.9483 H   0  0  0  0  0  0  0  0  0  0  0  0
    3.1245   -2.5321   -0.1698 H   0  0  0  0  0  0  0  0  0  0  0  0
    3.6020   -0.3201   -0.8316 H   0  0  0  0  0  0  0  0  0  0  0  0
    5.0312   -0.1738    0.1534 H   0  0  0  0  0  0  0  0  0  0  0  0
    3.4313   -0.3099    0.9051 H   0  0  0  0  0  0  0  0  0  0  0  0
    4.3142   -4.5804   -1.7405 H   0  0  0  0  0  0  0  0  0  0  0  0
    5.9636   -4.2390   -2.1828 H   0  0  0  0  0  0  0  0  0  0  0  0
    5.7981   -5.7974   -0.2788 H   0  0  0  0  0  0  0  0  0  0  0  0
    6.7211   -4.3944    0.1413 H   0  0  0  0  0  0  0  0  0  0  0  0
    3.5111   -6.1118    0.4284 H   0  0  0  0  0  0  0  0  0  0  0  0
    2.8625   -4.5771   -0.0372 H   0  0  0  0  0  0  0  0  0  0  0  0
    2.6994   -5.1110    1.6199 H   0  0  0  0  0  0  0  0  0  0  0  0
    6.2863   -4.7797    2.6308 H   0  0  0  0  0  0  0  0  0  0  0  0
    5.7642   -7.0201    1.3762 H   0  0  0  0  0  0  0  0  0  0  0  0
    6.3020   -6.9869    3.0209 H   0  0  0  0  0  0  0  0  0  0  0  0
    4.2015   -8.4990    2.3670 H   0  0  0  0  0  0  0  0  0  0  0  0
    2.4647   -9.0151    3.8728 H   0  0  0  0  0  0  0  0  0  0  0  0
    0.5683   -6.7206    3.2796 H   0  0  0  0  0  0  0  0  0  0  0  0
    1.3671   -9.0931    1.5423 H   0  0  0  0  0  0  0  0  0  0  0  0
    1.9896   -7.4710    1.3240 H   0  0  0  0  0  0  0  0  0  0  0  0
    0.2952   -7.7748    1.0827 H   0  0  0  0  0  0  0  0  0  0  0  0
  1  2  1  0
  1 31  1  0
  1 32  1  0
  1 33  1  0
  2 29  1  0
  2  3  1  0
  2 34  1  1
  3  4  1  0
  3 35  1  0
  3 36  1  0
  4  5  1  0
  4 37  1  0
  4 38  1  0
  5 28  1  0
  5  6  1  1
  5  7  1  0
  6 39  1  0
  6 40  1  0
  6 41  1  0
  7  8  1  0
  7 42  1  0
  7 43  1  0
  9  8  1  1
  8 44  1  0
  8 45  1  0
  9 11  1  0
  9 27  1  0
  9 10  1  0
 11 10  1  1
 10 46  1  0
 10 47  1  0
 11 24  1  0
 11 12  1  0
 12 13  1  0
 12 48  1  0
 12 49  1  0
 13 14  1  0
 13 50  1  0
 13 51  1  0
 14 22  1  0
 14 15  1  1
 14 16  1  0
 15 52  1  0
 15 53  1  0
 15 54  1  0
 16 17  1  0
 16 18  1  0
 16 55  1  6
 17 56  1  0
 17 57  1  0
 17 58  1  0
 18 19  2  0
 18 20  1  0
 20 21  1  0
 20 59  1  0
 20 60  1  0
 21 22  1  0
 21 61  1  0
 21 62  1  0
 22 23  1  6
 22 24  1  0
 23 63  1  0
 23 64  1  0
 23 65  1  0
 24 25  1  0
 24 66  1  1
 25 26  1  0
 25 67  1  0
 25 68  1  0
 26 27  2  0
 26 69  1  0
 27 28  1  0
 28 29  1  0
 28 70  1  1
 29 30  1  0
 29 71  1  6
 30 72  1  0
 30 73  1  0
 30 74  1  0
M  END
>  <i_m_ct_stereo_status>  (185) 
1

>  <s_m_source_file>  (185) 
/var/tmp/pbs.5076255.sched01/tmpxnahmhzs/434e81vi2s.sdf

>  <i_m_source_file_index>  (185) 
33

>  <i_lp_mmshare_version>  (185) 
48012

>  <i_f3d_flags>  (185) 
0

>  <s_epik_input>  (185) 
W0NIM11bQ0BIXTFbQ0BIXShbQ0gzXSlbQ0gyXVtDSDJdW0NAXShbQ0gzXSkoW0NIMl1bQ0gyXTIpW0NAQEhdMUMzPVtDSF1bQ0gyXVtDQEhdKFtDQEBdNChbQ0BAXTIzNSlbQ0gyXTUpW0NAQF02KFtDSDNdKVtDQF0oW0NIM10pKFtDSDJdW0NIMl00KVtDQEBIXShbQ0gzXSlDKD1PKVtDSDJdW0NIMl02

>  <s_epik_cmdline>  (185) 
J2VwaWtfcHl0aG9uJywgJy1waHQnLCAnMi4wJywgJy1waCcsICc3LjAnLCAnLXRuJywgJzgnLCAnLW1hJywgJzIwMCcsICctaW1hZScsICc8aW5maWxlLm1hZT4nLCAnLW9tYWUnLCAnPG91dGZpbGUubWFlPic=

>  <r_lp_tautomer_probability>  (185) 
1

>  <r_epik_Ionization_Penalty>  (185) 
8.55129e-14

>  <r_epik_Ionization_Penalty_Charging>  (185) 
0

>  <r_epik_Ionization_Penalty_Neutral>  (185) 
8.55129e-14

>  <r_epik_State_Penalty>  (185) 
-0

>  <r_epik_Charging_Adjusted_Penalty>  (185) 
0

>  <i_epik_Tot_Q>  (185) 
0

>  <i_epik_Tot_abs_Q>  (185) 
0

>  <s_lp_Force_Field>  (185) 
OPLS3e

>  <r_lp_Energy>  (185) 
73.6452

>  <b_lp_Chiralities_Consistent>  (185) 
1

>  <s_lp_Variant>  (185) 
56:0-1

>  <s_i_glide_gridfile>  (185) 
pfpi4k_grid

>  <i_i_glide_lignum>  (185) 
33

>  <i_i_glide_rotatable_bonds>  (185) 
0

>  <r_i_docking_score>  (185) 
-2.39647

>  <r_i_glide_ligand_efficiency>  (185) 
-0.0798822

>  <r_i_glide_ligand_efficiency_sa>  (185) 
-0.248213

>  <r_i_glide_ligand_efficiency_ln>  (185) 
-0.544503

>  <r_i_glide_gscore>  (185) 
-2.39647

>  <r_i_glide_lipo>  (185) 
-0.24386

>  <r_i_glide_hbond>  (185) 
0

>  <r_i_glide_metal>  (185) 
-0

>  <r_i_glide_rewards>  (185) 
-0.622779

>  <r_i_glide_evdw>  (185) 
-25.4237

>  <r_i_glide_ecoul>  (185) 
-1.66032

>  <r_i_glide_erotb>  (185) 
0

>  <r_i_glide_esite>  (185) 
-0.0095935

>  <r_i_glide_emodel>  (185) 
-31.8717

>  <r_i_glide_energy>  (185) 
-27.084

>  <r_i_glide_einternal>  (185) 
0

>  <r_i_glide_intrahb_reward>  (185) 
-0

>  <i_i_glide_confnum>  (185) 
2

>  <i_i_glide_posenum>  (185) 
5

>  <r_i_glide_eff_state_penalty>  (185) 
0

>  <ligand_id>  (185) 
56

>  <original_smiles>  (185) 
CC1CCC2(C)CCC34CC35CCC3(C)C(C)C(=O)CCC3(C)C5CC=C4C2C1C

>  <smiles>  (185) 
[H]C1=C2C3([H])C([H])(C([H])([H])[H])C([H])(C([H])([H])[H])C([H])([H])C([H])([H])C3(C([H])([H])[H])C([H])([H])C([H])([H])C23C([H])([H])C32C([H])([H])C([H])([H])C3(C([H])([H])[H])C([H])(C([H])([H])[H])C(=O)C([H])([H])C([H])([H])C3(C([H])([H])[H])C2([H])C1([H])[H]

$$$$
57:0:0
     RDKit          3D

 45 48  0  0  1  0  0  0  0  0999 V2000
    6.7640   -2.8704   -1.0776 C   0  0  0  0  0  0  0  0  0  0  0  0
    5.2331   -3.0298   -0.9107 C   0  0  2  0  0  0  0  0  0  0  0  0
    4.7077   -3.6985   -2.1863 C   0  0  0  0  0  0  0  0  0  0  0  0
    4.2138   -3.0542   -3.2654 C   0  0  0  0  0  0  0  0  0  0  0  0
    4.1898   -1.5837   -3.3219 C   0  0  0  0  0  0  0  0  0  0  0  0
    3.8191   -0.9649   -4.3195 O   0  0  0  0  0  0  0  0  0  0  0  0
    4.7362   -0.8068   -2.1232 C   0  0  0  0  0  0  0  0  0  0  0  0
    4.5672   -1.6423   -0.8641 C   0  0  0  0  0  0  0  0  0  0  0  0
    3.7550   -1.2405    0.1263 C   0  0  0  0  0  0  0  0  0  0  0  0
    3.3495   -2.0877    1.3037 C   0  0  0  0  0  0  0  0  0  0  0  0
    3.5958   -3.5899    1.0639 C   0  0  1  0  0  0  0  0  0  0  0  0
    4.9717   -3.8529    0.4082 C   0  0  1  0  0  0  0  0  0  0  0  0
    5.2115   -5.3768    0.2716 C   0  0  0  0  0  0  0  0  0  0  0  0
    5.0643   -6.1221    1.6048 C   0  0  0  0  0  0  0  0  0  0  0  0
    3.6769   -5.9079    2.2623 C   0  0  1  0  0  0  0  0  0  0  0  0
    2.5730   -6.6730    1.4905 C   0  0  0  0  0  0  0  0  0  0  0  0
    3.7820   -6.3077    3.7280 C   0  0  0  0  0  0  0  0  0  0  0  0
    3.3447   -7.7569    4.4230 S   0  0  0  0  0  0  0  0  0  0  0  0
    4.3743   -5.1599    4.4996 C   0  0  0  0  0  0  0  0  0  0  0  0
    4.1343   -3.9200    3.6252 C   0  0  0  0  0  0  0  0  0  0  0  0
    3.3683   -4.4015    2.3723 C   0  0  1  0  0  0  0  0  0  0  0  0
    7.0285   -2.3743   -2.0121 H   0  0  0  0  0  0  0  0  0  0  0  0
    7.2634   -3.8374   -1.1038 H   0  0  0  0  0  0  0  0  0  0  0  0
    7.2024   -2.2982   -0.2582 H   0  0  0  0  0  0  0  0  0  0  0  0
    4.7416   -4.7728   -2.2293 H   0  0  0  0  0  0  0  0  0  0  0  0
    3.8533   -3.6013   -4.1253 H   0  0  0  0  0  0  0  0  0  0  0  0
    5.7857   -0.5746   -2.2861 H   0  0  0  0  0  0  0  0  0  0  0  0
    4.2140    0.1412   -2.0255 H   0  0  0  0  0  0  0  0  0  0  0  0
    3.2840   -0.2675    0.0850 H   0  0  0  0  0  0  0  0  0  0  0  0
    3.8878   -1.7079    2.1718 H   0  0  0  0  0  0  0  0  0  0  0  0
    2.2860   -1.9245    1.4841 H   0  0  0  0  0  0  0  0  0  0  0  0
    2.8440   -3.9206    0.3435 H   0  0  0  0  0  0  0  0  0  0  0  0
    5.7045   -3.4918    1.1293 H   0  0  0  0  0  0  0  0  0  0  0  0
    4.5096   -5.8229   -0.4350 H   0  0  0  0  0  0  0  0  0  0  0  0
    6.2122   -5.5647   -0.1156 H   0  0  0  0  0  0  0  0  0  0  0  0
    5.2354   -7.1869    1.4374 H   0  0  0  0  0  0  0  0  0  0  0  0
    5.8700   -5.7944    2.2640 H   0  0  0  0  0  0  0  0  0  0  0  0
    2.4589   -6.2830    0.4809 H   0  0  0  0  0  0  0  0  0  0  0  0
    1.6021   -6.5909    1.9745 H   0  0  0  0  0  0  0  0  0  0  0  0
    2.8044   -7.7332    1.3916 H   0  0  0  0  0  0  0  0  0  0  0  0
    3.9138   -5.0747    5.4848 H   0  0  0  0  0  0  0  0  0  0  0  0
    5.4448   -5.3360    4.6375 H   0  0  0  0  0  0  0  0  0  0  0  0
    3.5589   -3.1689    4.1683 H   0  0  0  0  0  0  0  0  0  0  0  0
    5.0930   -3.4725    3.3637 H   0  0  0  0  0  0  0  0  0  0  0  0
    2.3089   -4.3138    2.6171 H   0  0  0  0  0  0  0  0  0  0  0  0
  2  1  1  6
  1 22  1  0
  1 23  1  0
  1 24  1  0
  2  8  1  0
  2 12  1  0
  2  3  1  0
  3  4  2  0
  3 25  1  0
  4  5  1  0
  4 26  1  0
  5  6  2  0
  5  7  1  0
  7  8  1  0
  7 27  1  0
  7 28  1  0
  8  9  2  0
  9 10  1  0
  9 29  1  0
 10 11  1  0
 10 30  1  0
 10 31  1  0
 11 21  1  0
 11 12  1  0
 11 32  1  6
 12 13  1  0
 12 33  1  1
 13 14  1  0
 13 34  1  0
 13 35  1  0
 14 15  1  0
 14 36  1  0
 14 37  1  0
 15 21  1  0
 15 16  1  6
 15 17  1  0
 16 38  1  0
 16 39  1  0
 16 40  1  0
 17 18  2  0
 17 19  1  0
 19 20  1  0
 19 41  1  0
 19 42  1  0
 20 21  1  0
 20 43  1  0
 20 44  1  0
 21 45  1  1
M  END
>  <i_m_ct_stereo_status>  (186) 
1

>  <s_m_source_file>  (186) 
/var/tmp/pbs.5076255.sched01/tmpxnahmhzs/434e81vi2s.sdf

>  <i_m_source_file_index>  (186) 
34

>  <i_lp_mmshare_version>  (186) 
48012

>  <i_f3d_flags>  (186) 
0

>  <s_epik_input>  (186) 
W0NIXTE9W0NIXUMoPU8pW0NIMl1DKFtDQF0xMltDSDNdKT1bQ0hdW0NIMl1bQ0BIXTNbQ0BIXTJbQ0gyXVtDSDJdW0NAXTQoW0NIM10pW0NASF0zW0NIMl1bQ0gyXUM0PVM=

>  <s_epik_cmdline>  (186) 
J2VwaWtfcHl0aG9uJywgJy1waHQnLCAnMi4wJywgJy1waCcsICc3LjAnLCAnLXRuJywgJzgnLCAnLW1hJywgJzIwMCcsICctaW1hZScsICc8aW5maWxlLm1hZT4nLCAnLW9tYWUnLCAnPG91dGZpbGUubWFlPic=

>  <r_lp_tautomer_probability>  (186) 
1

>  <r_epik_Ionization_Penalty>  (186) 
0

>  <r_epik_Ionization_Penalty_Charging>  (186) 
0

>  <r_epik_Ionization_Penalty_Neutral>  (186) 
0

>  <r_epik_State_Penalty>  (186) 
-0

>  <r_epik_Charging_Adjusted_Penalty>  (186) 
0

>  <i_epik_Tot_Q>  (186) 
0

>  <i_epik_Tot_abs_Q>  (186) 
0

>  <s_lp_Force_Field>  (186) 
OPLS3e

>  <r_lp_Energy>  (186) 
48.2575

>  <b_lp_Chiralities_Consistent>  (186) 
1

>  <s_lp_Variant>  (186) 
57:0-1

>  <s_i_glide_gridfile>  (186) 
pfpi4k_grid

>  <i_i_glide_lignum>  (186) 
34

>  <i_i_glide_rotatable_bonds>  (186) 
0

>  <r_i_docking_score>  (186) 
-3.4564

>  <r_i_glide_ligand_efficiency>  (186) 
-0.16459

>  <r_i_glide_ligand_efficiency_sa>  (186) 
-0.454092

>  <r_i_glide_ligand_efficiency_ln>  (186) 
-0.854587

>  <r_i_glide_gscore>  (186) 
-3.4564

>  <r_i_glide_lipo>  (186) 
-0.341928

>  <r_i_glide_hbond>  (186) 
-0.0612591

>  <r_i_glide_metal>  (186) 
-0

>  <r_i_glide_rewards>  (186) 
-1.5303

>  <r_i_glide_evdw>  (186) 
-27.4336

>  <r_i_glide_ecoul>  (186) 
-1.00813

>  <r_i_glide_erotb>  (186) 
0

>  <r_i_glide_esite>  (186) 
-2.09617e-06

>  <r_i_glide_emodel>  (186) 
-33.6707

>  <r_i_glide_energy>  (186) 
-28.4418

>  <r_i_glide_einternal>  (186) 
0

>  <r_i_glide_intrahb_reward>  (186) 
-0

>  <i_i_glide_confnum>  (186) 
1

>  <i_i_glide_posenum>  (186) 
8

>  <r_i_glide_eff_state_penalty>  (186) 
0

>  <ligand_id>  (186) 
57

>  <original_smiles>  (186) 
CC12C=CC(=O)CC1=CCC1C2CCC2(C)C(=S)CCC12

>  <smiles>  (186) 
[H]C1=C([H])C2(C([H])([H])[H])C(=C([H])C([H])([H])C3([H])C2([H])C([H])([H])C([H])([H])C2(C([H])([H])[H])C(=S)C([H])([H])C([H])([H])C32[H])C([H])([H])C1=O

$$$$
57:0:1
     RDKit          3D

 45 48  0  0  1  0  0  0  0  0999 V2000
    5.3159   -7.3213    1.5389 C   0  0  0  0  0  0  0  0  0  0  0  0
    4.8999   -5.9252    2.0536 C   0  0  2  0  0  0  0  0  0  0  0  0
    6.0953   -5.3589    2.8305 C   0  0  0  0  0  0  0  0  0  0  0  0
    6.2739   -5.4812    4.1627 C   0  0  0  0  0  0  0  0  0  0  0  0
    5.3234   -6.2279    5.0010 C   0  0  0  0  0  0  0  0  0  0  0  0
    5.4733   -6.3622    6.2156 O   0  0  0  0  0  0  0  0  0  0  0  0
    4.1208   -6.8829    4.3241 C   0  0  0  0  0  0  0  0  0  0  0  0
    3.7673   -6.0747    3.0843 C   0  0  0  0  0  0  0  0  0  0  0  0
    2.6022   -5.4144    3.0111 C   0  0  0  0  0  0  0  0  0  0  0  0
    2.2467   -4.4489    1.9142 C   0  0  0  0  0  0  0  0  0  0  0  0
    3.4741   -3.9237    1.1441 C   0  0  1  0  0  0  0  0  0  0  0  0
    4.4657   -5.0591    0.8113 C   0  0  1  0  0  0  0  0  0  0  0  0
    5.6400   -4.4954   -0.0229 C   0  0  0  0  0  0  0  0  0  0  0  0
    5.1750   -3.7613   -1.2917 C   0  0  0  0  0  0  0  0  0  0  0  0
    4.2077   -2.5866   -0.9891 C   0  0  1  0  0  0  0  0  0  0  0  0
    4.9632   -1.4001   -0.3426 C   0  0  0  0  0  0  0  0  0  0  0  0
    3.4753   -2.2147   -2.2804 C   0  0  0  0  0  0  0  0  0  0  0  0
    3.8216   -1.0219   -3.3863 S   0  0  0  0  0  0  0  0  0  0  0  0
    2.3391   -3.1561   -2.4820 C   0  0  0  0  0  0  0  0  0  0  0  0
    2.0760   -3.7638   -1.1016 C   0  0  0  0  0  0  0  0  0  0  0  0
    3.0486   -3.0900   -0.1056 C   0  0  1  0  0  0  0  0  0  0  0  0
    5.6881   -7.9643    2.3374 H   0  0  0  0  0  0  0  0  0  0  0  0
    6.1307   -7.2410    0.8252 H   0  0  0  0  0  0  0  0  0  0  0  0
    4.4864   -7.8414    1.0551 H   0  0  0  0  0  0  0  0  0  0  0  0
    6.8548   -4.8404    2.2635 H   0  0  0  0  0  0  0  0  0  0  0  0
    7.1432   -5.0664    4.6543 H   0  0  0  0  0  0  0  0  0  0  0  0
    4.3518   -7.9161    4.0721 H   0  0  0  0  0  0  0  0  0  0  0  0
    3.2823   -6.8953    5.0180 H   0  0  0  0  0  0  0  0  0  0  0  0
    1.8598   -5.5410    3.7887 H   0  0  0  0  0  0  0  0  0  0  0  0
    1.5586   -4.9822    1.2604 H   0  0  0  0  0  0  0  0  0  0  0  0
    1.7185   -3.6058    2.3608 H   0  0  0  0  0  0  0  0  0  0  0  0
    3.9966   -3.2425    1.8211 H   0  0  0  0  0  0  0  0  0  0  0  0
    3.9204   -5.7372    0.1538 H   0  0  0  0  0  0  0  0  0  0  0  0
    6.2384   -3.7943    0.5608 H   0  0  0  0  0  0  0  0  0  0  0  0
    6.2968   -5.3109   -0.3178 H   0  0  0  0  0  0  0  0  0  0  0  0
    6.0500   -3.3936   -1.8305 H   0  0  0  0  0  0  0  0  0  0  0  0
    4.7082   -4.4955   -1.9511 H   0  0  0  0  0  0  0  0  0  0  0  0
    5.3721   -1.6766    0.6292 H   0  0  0  0  0  0  0  0  0  0  0  0
    4.3099   -0.5457   -0.1747 H   0  0  0  0  0  0  0  0  0  0  0  0
    5.7996   -1.0675   -0.9537 H   0  0  0  0  0  0  0  0  0  0  0  0
    1.4657   -2.6403   -2.8808 H   0  0  0  0  0  0  0  0  0  0  0  0
    2.6440   -3.9046   -3.2126 H   0  0  0  0  0  0  0  0  0  0  0  0
    1.0428   -3.5561   -0.8545 H   0  0  0  0  0  0  0  0  0  0  0  0
    2.1949   -4.8423   -1.1103 H   0  0  0  0  0  0  0  0  0  0  0  0
    2.5383   -2.2041    0.2740 H   0  0  0  0  0  0  0  0  0  0  0  0
  2  1  1  6
  1 22  1  0
  1 23  1  0
  1 24  1  0
  2  8  1  0
  2 12  1  0
  2  3  1  0
  3  4  2  0
  3 25  1  0
  4  5  1  0
  4 26  1  0
  5  6  2  0
  5  7  1  0
  7  8  1  0
  7 27  1  0
  7 28  1  0
  8  9  2  0
  9 10  1  0
  9 29  1  0
 10 11  1  0
 10 30  1  0
 10 31  1  0
 11 21  1  0
 11 12  1  0
 11 32  1  1
 12 13  1  0
 12 33  1  6
 13 14  1  0
 13 34  1  0
 13 35  1  0
 14 15  1  0
 14 36  1  0
 14 37  1  0
 15 21  1  0
 15 16  1  1
 15 17  1  0
 16 38  1  0
 16 39  1  0
 16 40  1  0
 17 18  2  0
 17 19  1  0
 19 20  1  0
 19 41  1  0
 19 42  1  0
 20 21  1  0
 20 43  1  0
 20 44  1  0
 21 45  1  1
M  END
>  <i_m_ct_stereo_status>  (187) 
1

>  <s_m_source_file>  (187) 
/var/tmp/pbs.5076255.sched01/tmpxnahmhzs/434e81vi2s.sdf

>  <i_m_source_file_index>  (187) 
34

>  <i_lp_mmshare_version>  (187) 
48012

>  <i_f3d_flags>  (187) 
0

>  <s_epik_input>  (187) 
W0NIXTE9W0NIXUMoPU8pW0NIMl1DKFtDQF0xMltDSDNdKT1bQ0hdW0NIMl1bQ0BIXTNbQ0BIXTJbQ0gyXVtDSDJdW0NAXTQoW0NIM10pW0NASF0zW0NIMl1bQ0gyXUM0PVM=

>  <s_epik_cmdline>  (187) 
J2VwaWtfcHl0aG9uJywgJy1waHQnLCAnMi4wJywgJy1waCcsICc3LjAnLCAnLXRuJywgJzgnLCAnLW1hJywgJzIwMCcsICctaW1hZScsICc8aW5maWxlLm1hZT4nLCAnLW9tYWUnLCAnPG91dGZpbGUubWFlPic=

>  <r_lp_tautomer_probability>  (187) 
1

>  <r_epik_Ionization_Penalty>  (187) 
0

>  <r_epik_Ionization_Penalty_Charging>  (187) 
0

>  <r_epik_Ionization_Penalty_Neutral>  (187) 
0

>  <r_epik_State_Penalty>  (187) 
-0

>  <r_epik_Charging_Adjusted_Penalty>  (187) 
0

>  <i_epik_Tot_Q>  (187) 
0

>  <i_epik_Tot_abs_Q>  (187) 
0

>  <s_lp_Force_Field>  (187) 
OPLS3e

>  <r_lp_Energy>  (187) 
48.2575

>  <b_lp_Chiralities_Consistent>  (187) 
1

>  <s_lp_Variant>  (187) 
57:0-1

>  <s_i_glide_gridfile>  (187) 
pfpi4k_grid

>  <i_i_glide_lignum>  (187) 
34

>  <i_i_glide_rotatable_bonds>  (187) 
0

>  <r_i_docking_score>  (187) 
-3.34794

>  <r_i_glide_ligand_efficiency>  (187) 
-0.159426

>  <r_i_glide_ligand_efficiency_sa>  (187) 
-0.439843

>  <r_i_glide_ligand_efficiency_ln>  (187) 
-0.827771

>  <r_i_glide_gscore>  (187) 
-3.34794

>  <r_i_glide_lipo>  (187) 
-0.373678

>  <r_i_glide_hbond>  (187) 
0

>  <r_i_glide_metal>  (187) 
-0

>  <r_i_glide_rewards>  (187) 
-1.592

>  <r_i_glide_evdw>  (187) 
-22.2184

>  <r_i_glide_ecoul>  (187) 
-1.58802

>  <r_i_glide_erotb>  (187) 
0

>  <r_i_glide_esite>  (187) 
-0.0331321

>  <r_i_glide_emodel>  (187) 
-28.7514

>  <r_i_glide_energy>  (187) 
-23.8065

>  <r_i_glide_einternal>  (187) 
0

>  <r_i_glide_intrahb_reward>  (187) 
-0

>  <i_i_glide_confnum>  (187) 
1

>  <i_i_glide_posenum>  (187) 
2

>  <r_i_glide_eff_state_penalty>  (187) 
0

>  <ligand_id>  (187) 
57

>  <original_smiles>  (187) 
CC12C=CC(=O)CC1=CCC1C2CCC2(C)C(=S)CCC12

>  <smiles>  (187) 
[H]C1=C([H])C2(C([H])([H])[H])C(=C([H])C([H])([H])C3([H])C2([H])C([H])([H])C([H])([H])C2(C([H])([H])[H])C(=S)C([H])([H])C([H])([H])C32[H])C([H])([H])C1=O

$$$$
57:0:2
     RDKit          3D

 45 48  0  0  1  0  0  0  0  0999 V2000
    7.8187   -5.4753    2.0292 C   0  0  0  0  0  0  0  0  0  0  0  0
    6.2823   -5.2766    1.9664 C   0  0  2  0  0  0  0  0  0  0  0  0
    5.8077   -4.6520    3.2720 C   0  0  0  0  0  0  0  0  0  0  0  0
    5.3929   -5.3374    4.3610 C   0  0  0  0  0  0  0  0  0  0  0  0
    5.3751   -6.8153    4.3525 C   0  0  0  0  0  0  0  0  0  0  0  0
    5.0324   -7.4823    5.3279 O   0  0  0  0  0  0  0  0  0  0  0  0
    5.8531   -7.5512    3.0998 C   0  0  0  0  0  0  0  0  0  0  0  0
    5.6020   -6.6493    1.9017 C   0  0  0  0  0  0  0  0  0  0  0  0
    4.7077   -6.9862    0.9713 C   0  0  0  0  0  0  0  0  0  0  0  0
    4.2676   -6.0517   -0.1293 C   0  0  0  0  0  0  0  0  0  0  0  0
    4.5689   -4.5691    0.1420 C   0  0  1  0  0  0  0  0  0  0  0  0
    5.9907   -4.3837    0.7037 C   0  0  1  0  0  0  0  0  0  0  0  0
    6.3056   -2.8733    0.8835 C   0  0  0  0  0  0  0  0  0  0  0  0
    6.0954   -2.0721   -0.4116 C   0  0  0  0  0  0  0  0  0  0  0  0
    4.6544   -2.2060   -0.9623 C   0  0  1  0  0  0  0  0  0  0  0  0
    3.6634   -1.4430   -0.0898 C   0  0  0  0  0  0  0  0  0  0  0  0
    4.6373   -1.7702   -2.4124 C   0  0  0  0  0  0  0  0  0  0  0  0
    3.9634   -0.4340   -3.1261 S   0  0  0  0  0  0  0  0  0  0  0  0
    5.1957   -2.8574   -3.2520 C   0  0  0  0  0  0  0  0  0  0  0  0
    4.9572   -4.0876   -2.4371 C   0  0  0  0  0  0  0  0  0  0  0  0
    4.2760   -3.6856   -1.1161 C   0  0  1  0  0  0  0  0  0  0  0  0
    8.1267   -6.0255    2.9163 H   0  0  0  0  0  0  0  0  0  0  0  0
    8.3529   -4.5284    2.0556 H   0  0  0  0  0  0  0  0  0  0  0  0
    8.1839   -6.0257    1.1615 H   0  0  0  0  0  0  0  0  0  0  0  0
    5.7870   -3.5719    3.3303 H   0  0  0  0  0  0  0  0  0  0  0  0
    5.1060   -4.8364    5.2710 H   0  0  0  0  0  0  0  0  0  0  0  0
    6.9044   -7.8269    3.1846 H   0  0  0  0  0  0  0  0  0  0  0  0
    5.2829   -8.4719    2.9912 H   0  0  0  0  0  0  0  0  0  0  0  0
    4.2211   -7.9565    0.9850 H   0  0  0  0  0  0  0  0  0  0  0  0
    4.7544   -6.4028   -1.0360 H   0  0  0  0  0  0  0  0  0  0  0  0
    3.1931   -6.1725   -0.2536 H   0  0  0  0  0  0  0  0  0  0  0  0
    3.8797   -4.2537    0.9276 H   0  0  0  0  0  0  0  0  0  0  0  0
    6.6742   -4.7414   -0.0658 H   0  0  0  0  0  0  0  0  0  0  0  0
    5.6456   -2.4278    1.6287 H   0  0  0  0  0  0  0  0  0  0  0  0
    7.3316   -2.7353    1.2257 H   0  0  0  0  0  0  0  0  0  0  0  0
    6.3053   -1.0212   -0.1968 H   0  0  0  0  0  0  0  0  0  0  0  0
    6.8506   -2.3980   -1.1384 H   0  0  0  0  0  0  0  0  0  0  0  0
    3.5802   -1.8687    0.8982 H   0  0  0  0  0  0  0  0  0  0  0  0
    2.6712   -1.5147   -0.5378 H   0  0  0  0  0  0  0  0  0  0  0  0
    3.9320   -0.4014    0.0235 H   0  0  0  0  0  0  0  0  0  0  0  0
    4.6263   -2.9097   -4.1869 H   0  0  0  0  0  0  0  0  0  0  0  0
    6.2573   -2.7207   -3.4668 H   0  0  0  0  0  0  0  0  0  0  0  0
    4.3409   -4.6317   -3.1543 H   0  0  0  0  0  0  0  0  0  0  0  0
    5.8520   -4.6174   -2.1962 H   0  0  0  0  0  0  0  0  0  0  0  0
    3.2043   -3.7367   -1.3016 H   0  0  0  0  0  0  0  0  0  0  0  0
  2  1  1  1
  1 22  1  0
  1 23  1  0
  1 24  1  0
  2  8  1  0
  2 12  1  0
  2  3  1  0
  3  4  2  0
  3 25  1  0
  4  5  1  0
  4 26  1  0
  5  6  2  0
  5  7  1  0
  7  8  1  0
  7 27  1  0
  7 28  1  0
  8  9  2  0
  9 10  1  0
  9 29  1  0
 10 11  1  0
 10 30  1  0
 10 31  1  0
 11 21  1  0
 11 12  1  0
 11 32  1  1
 12 13  1  0
 12 33  1  6
 13 14  1  0
 13 34  1  0
 13 35  1  0
 14 15  1  0
 14 36  1  0
 14 37  1  0
 15 21  1  0
 15 16  1  1
 15 17  1  0
 16 38  1  0
 16 39  1  0
 16 40  1  0
 17 18  2  0
 17 19  1  0
 19 20  1  0
 19 41  1  0
 19 42  1  0
 20 21  1  0
 20 43  1  0
 20 44  1  0
 21 45  1  6
M  END
>  <i_m_ct_stereo_status>  (188) 
1

>  <s_m_source_file>  (188) 
/var/tmp/pbs.5076255.sched01/tmpxnahmhzs/434e81vi2s.sdf

>  <i_m_source_file_index>  (188) 
34

>  <i_lp_mmshare_version>  (188) 
48012

>  <i_f3d_flags>  (188) 
0

>  <s_epik_input>  (188) 
W0NIXTE9W0NIXUMoPU8pW0NIMl1DKFtDQF0xMltDSDNdKT1bQ0hdW0NIMl1bQ0BIXTNbQ0BIXTJbQ0gyXVtDSDJdW0NAXTQoW0NIM10pW0NASF0zW0NIMl1bQ0gyXUM0PVM=

>  <s_epik_cmdline>  (188) 
J2VwaWtfcHl0aG9uJywgJy1waHQnLCAnMi4wJywgJy1waCcsICc3LjAnLCAnLXRuJywgJzgnLCAnLW1hJywgJzIwMCcsICctaW1hZScsICc8aW5maWxlLm1hZT4nLCAnLW9tYWUnLCAnPG91dGZpbGUubWFlPic=

>  <r_lp_tautomer_probability>  (188) 
1

>  <r_epik_Ionization_Penalty>  (188) 
0

>  <r_epik_Ionization_Penalty_Charging>  (188) 
0

>  <r_epik_Ionization_Penalty_Neutral>  (188) 
0

>  <r_epik_State_Penalty>  (188) 
-0

>  <r_epik_Charging_Adjusted_Penalty>  (188) 
0

>  <i_epik_Tot_Q>  (188) 
0

>  <i_epik_Tot_abs_Q>  (188) 
0

>  <s_lp_Force_Field>  (188) 
OPLS3e

>  <r_lp_Energy>  (188) 
48.2575

>  <b_lp_Chiralities_Consistent>  (188) 
1

>  <s_lp_Variant>  (188) 
57:0-1

>  <s_i_glide_gridfile>  (188) 
pfpi4k_grid

>  <i_i_glide_lignum>  (188) 
34

>  <i_i_glide_rotatable_bonds>  (188) 
0

>  <r_i_docking_score>  (188) 
-2.88823

>  <r_i_glide_ligand_efficiency>  (188) 
-0.137535

>  <r_i_glide_ligand_efficiency_sa>  (188) 
-0.379447

>  <r_i_glide_ligand_efficiency_ln>  (188) 
-0.714108

>  <r_i_glide_gscore>  (188) 
-2.88823

>  <r_i_glide_lipo>  (188) 
-0.578943

>  <r_i_glide_hbond>  (188) 
0

>  <r_i_glide_metal>  (188) 
-0

>  <r_i_glide_rewards>  (188) 
-1.63442

>  <r_i_glide_evdw>  (188) 
-13.4032

>  <r_i_glide_ecoul>  (188) 
0.0500313

>  <r_i_glide_erotb>  (188) 
0

>  <r_i_glide_esite>  (188) 
-0.0122124

>  <r_i_glide_emodel>  (188) 
-16.9347

>  <r_i_glide_energy>  (188) 
-13.3532

>  <r_i_glide_einternal>  (188) 
0

>  <r_i_glide_intrahb_reward>  (188) 
-0

>  <i_i_glide_confnum>  (188) 
1

>  <i_i_glide_posenum>  (188) 
9

>  <r_i_glide_eff_state_penalty>  (188) 
0

>  <ligand_id>  (188) 
57

>  <original_smiles>  (188) 
CC12C=CC(=O)CC1=CCC1C2CCC2(C)C(=S)CCC12

>  <smiles>  (188) 
[H]C1=C([H])C2(C([H])([H])[H])C(=C([H])C([H])([H])C3([H])C2([H])C([H])([H])C([H])([H])C2(C([H])([H])[H])C(=S)C([H])([H])C([H])([H])C32[H])C([H])([H])C1=O

$$$$
59:0:0
     RDKit          3D

 93102  0  0  1  0  0  0  0  0999 V2000
    8.0475   -7.2502    2.8551 C   0  0  0  0  0  0  0  0  0  0  0  0
    7.3613   -6.0300    3.4830 C   0  0  2  0  0  0  0  0  0  0  0  0
    6.5804   -6.4675    4.8420 C   0  0  0  0  0  0  0  0  0  0  0  0
    5.3482   -5.6081    5.3730 C   0  0  2  0  0  0  0  0  0  0  0  0
    4.1450   -6.3174    6.2869 C   0  0  1  0  0  0  0  0  0  0  0  0
    3.1124   -5.2594    6.7398 C   0  0  0  0  0  0  0  0  0  0  0  0
    1.7971   -5.7430    7.3324 C   0  0  0  0  0  0  0  0  0  0  0  0
    0.5273   -5.5657    6.4454 C   0  0  1  0  0  0  0  0  0  0  0  0
   -0.7994   -5.4521    7.1765 C   0  0  0  0  0  0  0  0  0  0  0  0
   -0.1197   -4.2991    6.7057 O   0  0  0  0  0  0  0  0  0  0  0  0
    0.5182   -5.9180    4.9093 C   0  0  2  0  0  0  0  0  0  0  0  0
   -0.5291   -6.7713    4.3072 C   0  0  1  0  0  0  0  0  0  0  0  0
   -0.2192   -6.2678    2.9073 O   0  0  0  0  0  0  0  0  0  0  0  0
    1.2040   -6.2864    2.5750 C   0  0  2  0  0  0  0  0  0  0  0  0
    1.6092   -6.6291    4.0494 C   0  0  2  0  0  0  0  0  0  0  0  0
    1.8691   -8.1727    4.1528 C   0  0  1  0  0  0  0  0  0  0  0  0
    2.2415   -8.3019    5.6132 C   0  0  2  0  0  0  0  0  0  0  0  0
    0.7357   -8.4171    6.1541 C   0  0  0  0  0  0  0  0  0  0  0  0
   -0.2511   -8.2843    4.8850 C   0  0  2  0  0  0  0  0  0  0  0  0
    0.5995   -9.0654    3.9027 C   0  0  0  0  0  0  0  0  0  0  0  0
   -0.0381   -9.1979    2.4923 C   0  0  0  0  0  0  0  0  0  0  0  0
    0.8328  -10.5784    4.2482 C   0  0  0  0  0  0  0  0  0  0  0  0
    3.5289   -7.6880    6.1353 O   0  0  0  0  0  0  0  0  0  0  0  0
    2.3649   -5.4785    1.6729 C   0  0  1  0  0  0  0  0  0  0  0  0
    3.5141   -6.5496    1.9120 C   0  0  0  0  0  0  0  0  0  0  0  0
    4.3765   -6.4227    3.3092 C   0  0  0  0  0  0  0  0  0  0  0  0
    4.7793   -4.9016    4.1382 C   0  0  1  0  0  0  0  0  0  0  0  0
    4.2331   -3.1803    4.3482 C   0  0  1  0  0  0  0  0  0  0  0  0
    5.1566   -2.4013    5.3163 C   0  0  0  0  0  0  0  0  0  0  0  0
    3.8454   -2.0825    3.0092 C   0  0  0  0  0  0  0  0  0  0  0  0
    3.0325   -2.4020    1.4888 C   0  0  0  0  0  0  0  0  0  0  0  0
    2.6835   -4.0033    0.7609 C   0  0  1  0  0  0  0  0  0  0  0  0
    3.8460   -4.3410   -0.3341 C   0  0  1  0  0  0  0  0  0  0  0  0
    3.5927   -3.4683   -1.5931 C   0  0  0  0  0  0  0  0  0  0  0  0
    5.4516   -4.3524   -0.0515 C   0  0  0  0  0  0  0  0  0  0  0  0
    6.3195   -5.4119    0.8430 C   0  0  0  0  0  0  0  0  0  0  0  0
    6.6317   -5.0981    2.3807 C   0  0  1  0  0  0  0  0  0  0  0  0
    5.5391   -4.3133    3.0496 C   0  0  1  0  0  0  0  0  0  0  0  0
    4.3557   -4.3873    2.2829 O   0  0  0  0  0  0  0  0  0  0  0  0
    2.7967   -4.5959    2.5989 C   0  0  0  0  0  0  0  0  0  0  0  0
    1.9890   -4.0051    3.3385 O   0  0  0  0  0  0  0  0  0  0  0  0
    7.3183   -7.9652    2.4767 H   0  0  0  0  0  0  0  0  0  0  0  0
    8.6726   -7.7711    3.5819 H   0  0  0  0  0  0  0  0  0  0  0  0
    8.6965   -6.9644    2.0295 H   0  0  0  0  0  0  0  0  0  0  0  0
    8.2095   -5.4465    3.8478 H   0  0  0  0  0  0  0  0  0  0  0  0
    6.3119   -7.5333    4.8065 H   0  0  0  0  0  0  0  0  0  0  0  0
    7.3198   -6.4378    5.6323 H   0  0  0  0  0  0  0  0  0  0  0  0
    5.7996   -4.8487    6.0138 H   0  0  0  0  0  0  0  0  0  0  0  0
    4.6986   -6.5429    7.1974 H   0  0  0  0  0  0  0  0  0  0  0  0
    3.6040   -4.5678    7.4269 H   0  0  0  0  0  0  0  0  0  0  0  0
    2.7928   -4.6776    5.9054 H   0  0  0  0  0  0  0  0  0  0  0  0
    1.9069   -6.7291    7.7719 H   0  0  0  0  0  0  0  0  0  0  0  0
    1.6260   -5.1254    8.2134 H   0  0  0  0  0  0  0  0  0  0  0  0
   -1.7236   -5.6764    6.6509 H   0  0  0  0  0  0  0  0  0  0  0  0
   -0.8118   -5.5945    8.2536 H   0  0  0  0  0  0  0  0  0  0  0  0
    0.2931   -4.9301    4.5160 H   0  0  0  0  0  0  0  0  0  0  0  0
   -1.5338   -6.4580    4.5732 H   0  0  0  0  0  0  0  0  0  0  0  0
    1.1653   -7.1735    1.9633 H   0  0  0  0  0  0  0  0  0  0  0  0
    2.4325   -6.1230    4.4734 H   0  0  0  0  0  0  0  0  0  0  0  0
    2.6629   -8.5695    3.5310 H   0  0  0  0  0  0  0  0  0  0  0  0
    2.6009   -9.3211    5.7209 H   0  0  0  0  0  0  0  0  0  0  0  0
    0.6139   -9.4099    6.5789 H   0  0  0  0  0  0  0  0  0  0  0  0
    0.4093   -7.8705    7.0221 H   0  0  0  0  0  0  0  0  0  0  0  0
   -1.1994   -8.7909    5.0687 H   0  0  0  0  0  0  0  0  0  0  0  0
   -0.7009  -10.0630    2.4298 H   0  0  0  0  0  0  0  0  0  0  0  0
    0.7368   -9.3583    1.7413 H   0  0  0  0  0  0  0  0  0  0  0  0
   -0.6777   -8.3837    2.1702 H   0  0  0  0  0  0  0  0  0  0  0  0
   -0.1105  -11.1243    4.2638 H   0  0  0  0  0  0  0  0  0  0  0  0
    1.3032  -10.8247    5.1975 H   0  0  0  0  0  0  0  0  0  0  0  0
    1.4485  -11.0543    3.4864 H   0  0  0  0  0  0  0  0  0  0  0  0
    3.1621   -7.5651    1.7994 H   0  0  0  0  0  0  0  0  0  0  0  0
    4.1351   -6.5378    1.0372 H   0  0  0  0  0  0  0  0  0  0  0  0
    4.1069   -7.1854    3.9969 H   0  0  0  0  0  0  0  0  0  0  0  0
    5.2252   -6.9670    2.9336 H   0  0  0  0  0  0  0  0  0  0  0  0
    3.3293   -3.1152    4.9375 H   0  0  0  0  0  0  0  0  0  0  0  0
    6.2005   -2.4315    5.0300 H   0  0  0  0  0  0  0  0  0  0  0  0
    5.1024   -2.7970    6.3323 H   0  0  0  0  0  0  0  0  0  0  0  0
    4.8432   -1.3531    5.3854 H   0  0  0  0  0  0  0  0  0  0  0  0
    3.2766   -1.2681    3.4633 H   0  0  0  0  0  0  0  0  0  0  0  0
    4.7767   -1.5882    2.7248 H   0  0  0  0  0  0  0  0  0  0  0  0
    2.0602   -1.9151    1.5677 H   0  0  0  0  0  0  0  0  0  0  0  0
    3.5424   -1.8124    0.7340 H   0  0  0  0  0  0  0  0  0  0  0  0
    1.8131   -3.8418    0.1386 H   0  0  0  0  0  0  0  0  0  0  0  0
    3.6152   -5.3478   -0.6748 H   0  0  0  0  0  0  0  0  0  0  0  0
    3.8258   -2.4131   -1.4596 H   0  0  0  0  0  0  0  0  0  0  0  0
    2.5571   -3.5513   -1.9266 H   0  0  0  0  0  0  0  0  0  0  0  0
    4.1807   -3.8390   -2.4330 H   0  0  0  0  0  0  0  0  0  0  0  0
    5.8713   -4.4689   -1.0500 H   0  0  0  0  0  0  0  0  0  0  0  0
    5.7406   -3.3385    0.2305 H   0  0  0  0  0  0  0  0  0  0  0  0
    6.0780   -6.4567    0.6695 H   0  0  0  0  0  0  0  0  0  0  0  0
    7.3074   -5.3753    0.3826 H   0  0  0  0  0  0  0  0  0  0  0  0
    7.3823   -4.3505    2.1406 H   0  0  0  0  0  0  0  0  0  0  0  0
    5.9511   -3.3051    3.1411 H   0  0  0  0  0  0  0  0  0  0  0  0
  1  2  1  0
  1 42  1  0
  1 43  1  0
  1 44  1  0
  2 37  1  0
  2  3  1  0
  2 45  1  1
  3  4  1  0
  3 46  1  0
  3 47  1  0
  4 27  1  0
  4  5  1  0
  4 48  1  1
  5 23  1  0
  5  6  1  0
  5 49  1  1
  6  7  1  0
  6 50  1  0
  6 51  1  0
  7  8  1  0
  7 52  1  0
  7 53  1  0
  8 10  1  6
  8  9  1  0
  8 11  1  0
  9 10  1  0
  9 54  1  0
  9 55  1  0
 11 15  1  0
 11 12  1  0
 11 56  1  6
 12 19  1  0
 12 13  1  0
 12 57  1  1
 13 14  1  0
 14 15  1  0
 14 24  1  0
 14 58  1  6
 15 16  1  0
 15 59  1  1
 16 20  1  0
 16 17  1  0
 16 60  1  6
 17 18  1  0
 17 23  1  0
 17 61  1  6
 18 19  1  0
 18 62  1  0
 18 63  1  0
 19 20  1  0
 19 64  1  1
 20 21  1  0
 20 22  1  0
 21 65  1  0
 21 66  1  0
 21 67  1  0
 22 68  1  0
 22 69  1  0
 22 70  1  0
 24 32  1  0
 24 40  1  1
 24 25  1  0
 25 26  1  0
 25 71  1  0
 25 72  1  0
 27 26  1  6
 26 73  1  0
 26 74  1  0
 27 38  1  0
 27 28  1  0
 28 29  1  0
 28 30  1  0
 28 75  1  1
 29 76  1  0
 29 77  1  0
 29 78  1  0
 30 31  1  0
 30 79  1  0
 30 80  1  0
 31 32  1  0
 31 81  1  0
 31 82  1  0
 32 33  1  0
 32 83  1  6
 33 34  1  0
 33 35  1  0
 33 84  1  6
 34 85  1  0
 34 86  1  0
 34 87  1  0
 35 36  1  0
 35 88  1  0
 35 89  1  0
 36 37  1  0
 36 90  1  0
 36 91  1  0
 37 38  1  0
 37 92  1  6
 38 39  1  0
 38 93  1  1
 39 40  1  0
 40 41  2  0
M  END
>  <i_m_ct_stereo_status>  (189) 
1

>  <s_m_source_file>  (189) 
/var/tmp/pbs.5076255.sched01/tmpxnahmhzs/434e81vi2s.sdf

>  <i_m_source_file_index>  (189) 
36

>  <i_lp_mmshare_version>  (189) 
48012

>  <i_f3d_flags>  (189) 
0

>  <s_epik_input>  (189) 
W0NIM11bQ0BIXTFbQ0gyXVtDSDJdW0NAQEhdKFtDQEhdMk9DMz1PKVtDQEhdKFtDSDNdKVtDSDJdW0NASF0oW0NAQEhdKE80KVtDSDJdW0NIMl01KVtDQEBdMihbQ0gyXVtDSDJdNilbQ0BASF0oW0NIM10pW0NIMl1bQ0gyXVtDQEBIXTFbQ0BdMzZbQ0BASF0oTzcpW0NIXThbQ0BIXShDOShbQ0gzXSlbQ0gzXSlbQ0BASF00W0NIMl1bQ0BIXTlbQ0BIXTdbQ0BIXThbQ0BdMTVbQ0gyXU8x

>  <s_epik_cmdline>  (189) 
J2VwaWtfcHl0aG9uJywgJy1waHQnLCAnMi4wJywgJy1waCcsICc3LjAnLCAnLXRuJywgJzgnLCAnLW1hJywgJzIwMCcsICctaW1hZScsICc8aW5maWxlLm1hZT4nLCAnLW9tYWUnLCAnPG91dGZpbGUubWFlPic=

>  <r_lp_tautomer_probability>  (189) 
1

>  <r_epik_Ionization_Penalty>  (189) 
7.00227e-11

>  <r_epik_Ionization_Penalty_Charging>  (189) 
0

>  <r_epik_Ionization_Penalty_Neutral>  (189) 
7.00227e-11

>  <r_epik_State_Penalty>  (189) 
-0

>  <r_epik_Charging_Adjusted_Penalty>  (189) 
0

>  <i_epik_Tot_Q>  (189) 
0

>  <i_epik_Tot_abs_Q>  (189) 
0

>  <s_epik_Chemistry_Notes>  (189) 
This compound has an ester and may undergo hydrolysis at high or low pH.

>  <s_lp_Force_Field>  (189) 
OPLS3e

>  <r_lp_Energy>  (189) 
813.682

>  <b_lp_Chiralities_Consistent>  (189) 
1

>  <s_lp_Variant>  (189) 
59:0-1

>  <s_i_glide_gridfile>  (189) 
pfpi4k_grid

>  <i_i_glide_lignum>  (189) 
36

>  <i_i_glide_rotatable_bonds>  (189) 
0

>  <r_i_docking_score>  (189) 
-2.20619

>  <r_i_glide_ligand_efficiency>  (189) 
-0.0538095

>  <r_i_glide_ligand_efficiency_sa>  (189) 
-0.185547

>  <r_i_glide_ligand_efficiency_ln>  (189) 
-0.46805

>  <r_i_glide_gscore>  (189) 
-2.20619

>  <r_i_glide_lipo>  (189) 
-0.395674

>  <r_i_glide_hbond>  (189) 
-0.146107

>  <r_i_glide_metal>  (189) 
-0

>  <r_i_glide_rewards>  (189) 
0

>  <r_i_glide_evdw>  (189) 
-26.8562

>  <r_i_glide_ecoul>  (189) 
-2.12309

>  <r_i_glide_erotb>  (189) 
0

>  <r_i_glide_esite>  (189) 
-0.00313274

>  <r_i_glide_emodel>  (189) 
-33.791

>  <r_i_glide_energy>  (189) 
-28.9793

>  <r_i_glide_einternal>  (189) 
0

>  <r_i_glide_intrahb_reward>  (189) 
-0

>  <i_i_glide_confnum>  (189) 
2

>  <i_i_glide_posenum>  (189) 
3

>  <r_i_glide_eff_state_penalty>  (189) 
0

>  <ligand_id>  (189) 
59

>  <original_smiles>  (189) 
CC1CC2C3CCC4(CO4)C4C5OC(C4C4C(CC5C4(C)C)O3)C34CCC25C(C)CCC3C(C)CCC1C5OC4=O

>  <smiles>  (189) 
[H]C([H])([H])C1([H])C([H])([H])C2([H])C3([H])OC4([H])C([H])([H])C5([H])C6([H])OC([H])(C([H])(C6([H])C6(OC6([H])[H])C([H])([H])C3([H])[H])C4([H])C5(C([H])([H])[H])C([H])([H])[H])C34C(=O)OC5([H])C1([H])C([H])([H])C([H])([H])C([H])(C([H])([H])[H])C3([H])C([H])([H])C([H])([H])C([H])(C([H])([H])[H])C52C([H])([H])C4([H])[H]

$$$$
59:0:1
     RDKit          3D

 93102  0  0  1  0  0  0  0  0999 V2000
    5.9115   -4.4903    8.3454 C   0  0  0  0  0  0  0  0  0  0  0  0
    4.3703   -4.4179    8.2894 C   0  0  2  0  0  0  0  0  0  0  0  0
    3.7526   -5.9129    8.0853 C   0  0  0  0  0  0  0  0  0  0  0  0
    2.3271   -6.1027    7.4025 C   0  0  2  0  0  0  0  0  0  0  0  0
    1.9521   -7.5103    6.5831 C   0  0  1  0  0  0  0  0  0  0  0  0
    0.4842   -7.4780    6.0987 C   0  0  0  0  0  0  0  0  0  0  0  0
    0.0264   -8.5219    5.0890 C   0  0  0  0  0  0  0  0  0  0  0  0
   -0.2192   -8.0386    3.6289 C   0  0  1  0  0  0  0  0  0  0  0  0
   -1.1851   -8.8636    2.7852 C   0  0  0  0  0  0  0  0  0  0  0  0
   -1.6048   -7.6648    3.4118 O   0  0  0  0  0  0  0  0  0  0  0  0
    0.7580   -7.0407    2.8914 C   0  0  2  0  0  0  0  0  0  0  0  0
    1.2412   -7.3293    1.5346 C   0  0  1  0  0  0  0  0  0  0  0  0
    1.6105   -5.8725    1.2999 O   0  0  0  0  0  0  0  0  0  0  0  0
    2.4012   -5.2910    2.4006 C   0  0  2  0  0  0  0  0  0  0  0  0
    2.1668   -6.5432    3.3204 C   0  0  2  0  0  0  0  0  0  0  0  0
    3.4304   -7.4716    3.2634 C   0  0  1  0  0  0  0  0  0  0  0  0
    3.0066   -8.5908    4.1891 C   0  0  2  0  0  0  0  0  0  0  0  0
    2.2121   -9.4274    3.0712 C   0  0  0  0  0  0  0  0  0  0  0  0
    2.2811   -8.5933    1.6897 C   0  0  2  0  0  0  0  0  0  0  0  0
    3.7097   -8.0971    1.8510 C   0  0  0  0  0  0  0  0  0  0  0  0
    4.2155   -7.2222    0.6659 C   0  0  0  0  0  0  0  0  0  0  0  0
    4.8212   -9.2101    1.8656 C   0  0  0  0  0  0  0  0  0  0  0  0
    2.8339   -8.3368    5.6767 O   0  0  0  0  0  0  0  0  0  0  0  0
    2.6801   -3.8573    3.2376 C   0  0  1  0  0  0  0  0  0  0  0  0
    3.8913   -4.3972    4.1034 C   0  0  0  0  0  0  0  0  0  0  0  0
    3.5210   -5.2070    5.4944 C   0  0  0  0  0  0  0  0  0  0  0  0
    2.1145   -4.8543    6.5361 C   0  0  1  0  0  0  0  0  0  0  0  0
    0.4474   -4.1298    6.5276 C   0  0  1  0  0  0  0  0  0  0  0  0
   -0.2198   -4.1937    7.9237 C   0  0  0  0  0  0  0  0  0  0  0  0
    0.0487   -2.5425    5.8364 C   0  0  0  0  0  0  0  0  0  0  0  0
    0.6651   -1.7392    4.3968 C   0  0  0  0  0  0  0  0  0  0  0  0
    2.1058   -2.2169    3.4154 C   0  0  1  0  0  0  0  0  0  0  0  0
    3.3963   -1.3044    3.8843 C   0  0  1  0  0  0  0  0  0  0  0  0
    3.2307    0.1226    3.3012 C   0  0  0  0  0  0  0  0  0  0  0  0
    3.9350   -1.1423    5.4293 C   0  0  0  0  0  0  0  0  0  0  0  0
    4.6852   -2.2473    6.3813 C   0  0  0  0  0  0  0  0  0  0  0  0
    3.8478   -3.1755    7.4024 C   0  0  1  0  0  0  0  0  0  0  0  0
    2.4806   -3.4870    6.8647 C   0  0  1  0  0  0  0  0  0  0  0  0
    2.4080   -3.2184    5.4810 O   0  0  0  0  0  0  0  0  0  0  0  0
    1.7651   -3.9492    4.2028 C   0  0  0  0  0  0  0  0  0  0  0  0
    0.6258   -4.3752    3.9676 O   0  0  0  0  0  0  0  0  0  0  0  0
    6.3362   -4.7879    7.3839 H   0  0  0  0  0  0  0  0  0  0  0  0
    6.2424   -5.2224    9.0826 H   0  0  0  0  0  0  0  0  0  0  0  0
    6.3531   -3.5330    8.6216 H   0  0  0  0  0  0  0  0  0  0  0  0
    4.0786   -4.1521    9.3058 H   0  0  0  0  0  0  0  0  0  0  0  0
    4.4812   -6.5568    7.5917 H   0  0  0  0  0  0  0  0  0  0  0  0
    3.6871   -6.3565    9.0778 H   0  0  0  0  0  0  0  0  0  0  0  0
    1.6220   -6.0540    8.2324 H   0  0  0  0  0  0  0  0  0  0  0  0
    1.9319   -8.2251    7.4076 H   0  0  0  0  0  0  0  0  0  0  0  0
   -0.1669   -7.4890    6.9729 H   0  0  0  0  0  0  0  0  0  0  0  0
    0.2834   -6.5596    5.5883 H   0  0  0  0  0  0  0  0  0  0  0  0
    0.6324   -9.4232    5.1681 H   0  0  0  0  0  0  0  0  0  0  0  0
   -0.9428   -8.8912    5.4536 H   0  0  0  0  0  0  0  0  0  0  0  0
   -1.1482   -8.8243    1.7091 H   0  0  0  0  0  0  0  0  0  0  0  0
   -1.5989   -9.7778    3.2144 H   0  0  0  0  0  0  0  0  0  0  0  0
    0.0705   -6.2197    2.7645 H   0  0  0  0  0  0  0  0  0  0  0  0
    0.4458   -7.5848    0.8318 H   0  0  0  0  0  0  0  0  0  0  0  0
    3.3596   -5.3508    1.9114 H   0  0  0  0  0  0  0  0  0  0  0  0
    1.9263   -6.3793    4.3321 H   0  0  0  0  0  0  0  0  0  0  0  0
    4.3589   -7.0413    3.6109 H   0  0  0  0  0  0  0  0  0  0  0  0
    3.8996   -9.1927    4.3346 H   0  0  0  0  0  0  0  0  0  0  0  0
    2.7341  -10.3792    2.9358 H   0  0  0  0  0  0  0  0  0  0  0  0
    1.2446   -9.8581    3.2803 H   0  0  0  0  0  0  0  0  0  0  0  0
    2.2020   -9.2716    0.8427 H   0  0  0  0  0  0  0  0  0  0  0  0
    4.6103   -7.8410   -0.1423 H   0  0  0  0  0  0  0  0  0  0  0  0
    5.0226   -6.5584    0.9708 H   0  0  0  0  0  0  0  0  0  0  0  0
    3.4536   -6.6366    0.1580 H   0  0  0  0  0  0  0  0  0  0  0  0
    4.8316   -9.7741    0.9295 H   0  0  0  0  0  0  0  0  0  0  0  0
    4.7651   -9.9722    2.6390 H   0  0  0  0  0  0  0  0  0  0  0  0
    5.8060   -8.7603    1.9784 H   0  0  0  0  0  0  0  0  0  0  0  0
    4.5896   -4.9917    3.5298 H   0  0  0  0  0  0  0  0  0  0  0  0
    4.5559   -3.5790    4.2820 H   0  0  0  0  0  0  0  0  0  0  0  0
    3.6769   -6.2417    5.3851 H   0  0  0  0  0  0  0  0  0  0  0  0
    4.4648   -5.0353    5.9631 H   0  0  0  0  0  0  0  0  0  0  0  0
   -0.2635   -4.7678    6.0160 H   0  0  0  0  0  0  0  0  0  0  0  0
    0.3589   -3.7013    8.7021 H   0  0  0  0  0  0  0  0  0  0  0  0
   -0.3929   -5.2242    8.2377 H   0  0  0  0  0  0  0  0  0  0  0  0
   -1.2067   -3.7228    7.9011 H   0  0  0  0  0  0  0  0  0  0  0  0
   -1.0402   -2.5489    5.7065 H   0  0  0  0  0  0  0  0  0  0  0  0
    0.1898   -1.8125    6.6361 H   0  0  0  0  0  0  0  0  0  0  0  0
   -0.1676   -1.7349    3.6917 H   0  0  0  0  0  0  0  0  0  0  0  0
    0.7808   -0.6902    4.6516 H   0  0  0  0  0  0  0  0  0  0  0  0
    1.8580   -1.8928    2.4037 H   0  0  0  0  0  0  0  0  0  0  0  0
    4.2424   -1.6874    3.3089 H   0  0  0  0  0  0  0  0  0  0  0  0
    2.4449    0.6841    3.8056 H   0  0  0  0  0  0  0  0  0  0  0  0
    2.9867    0.1035    2.2364 H   0  0  0  0  0  0  0  0  0  0  0  0
    4.1478    0.7039    3.3940 H   0  0  0  0  0  0  0  0  0  0  0  0
    4.6719   -0.3362    5.3711 H   0  0  0  0  0  0  0  0  0  0  0  0
    3.1296   -0.6944    6.0130 H   0  0  0  0  0  0  0  0  0  0  0  0
    5.4689   -2.7943    5.8705 H   0  0  0  0  0  0  0  0  0  0  0  0
    5.2940   -1.6380    7.0523 H   0  0  0  0  0  0  0  0  0  0  0  0
    3.6361   -2.4387    8.1776 H   0  0  0  0  0  0  0  0  0  0  0  0
    1.8304   -2.8766    7.4946 H   0  0  0  0  0  0  0  0  0  0  0  0
  1  2  1  0
  1 42  1  0
  1 43  1  0
  1 44  1  0
  2 37  1  0
  2  3  1  0
  2 45  1  1
  3  4  1  0
  3 46  1  0
  3 47  1  0
  4 27  1  0
  4  5  1  0
  4 48  1  1
  5 23  1  0
  5  6  1  0
  5 49  1  1
  6  7  1  0
  6 50  1  0
  6 51  1  0
  7  8  1  0
  7 52  1  0
  7 53  1  0
  8 10  1  1
  8  9  1  0
  8 11  1  0
  9 10  1  0
  9 54  1  0
  9 55  1  0
 11 15  1  0
 11 12  1  0
 11 56  1  6
 12 19  1  0
 12 13  1  0
 12 57  1  6
 13 14  1  0
 14 15  1  0
 14 24  1  0
 14 58  1  6
 15 16  1  0
 15 59  1  1
 16 20  1  0
 16 17  1  0
 16 60  1  1
 17 18  1  0
 17 23  1  0
 17 61  1  1
 18 19  1  0
 18 62  1  0
 18 63  1  0
 19 20  1  0
 19 64  1  6
 20 21  1  0
 20 22  1  0
 21 65  1  0
 21 66  1  0
 21 67  1  0
 22 68  1  0
 22 69  1  0
 22 70  1  0
 24 32  1  0
 24 40  1  1
 24 25  1  0
 25 26  1  0
 25 71  1  0
 25 72  1  0
 27 26  1  6
 26 73  1  0
 26 74  1  0
 27 38  1  0
 27 28  1  0
 28 29  1  0
 28 30  1  0
 28 75  1  6
 29 76  1  0
 29 77  1  0
 29 78  1  0
 30 31  1  0
 30 79  1  0
 30 80  1  0
 31 32  1  0
 31 81  1  0
 31 82  1  0
 32 33  1  0
 32 83  1  6
 33 34  1  0
 33 35  1  0
 33 84  1  6
 34 85  1  0
 34 86  1  0
 34 87  1  0
 35 36  1  0
 35 88  1  0
 35 89  1  0
 36 37  1  0
 36 90  1  0
 36 91  1  0
 37 38  1  0
 37 92  1  1
 38 39  1  0
 38 93  1  1
 39 40  1  0
 40 41  2  0
M  END
>  <i_m_ct_stereo_status>  (190) 
1

>  <s_m_source_file>  (190) 
/var/tmp/pbs.5076255.sched01/tmpxnahmhzs/434e81vi2s.sdf

>  <i_m_source_file_index>  (190) 
36

>  <i_lp_mmshare_version>  (190) 
48012

>  <i_f3d_flags>  (190) 
0

>  <s_epik_input>  (190) 
W0NIM11bQ0BIXTFbQ0gyXVtDSDJdW0NAQEhdKFtDQEhdMk9DMz1PKVtDQEhdKFtDSDNdKVtDSDJdW0NASF0oW0NAQEhdKE80KVtDSDJdW0NIMl01KVtDQEBdMihbQ0gyXVtDSDJdNilbQ0BASF0oW0NIM10pW0NIMl1bQ0gyXVtDQEBIXTFbQ0BdMzZbQ0BASF0oTzcpW0NIXThbQ0BIXShDOShbQ0gzXSlbQ0gzXSlbQ0BASF00W0NIMl1bQ0BIXTlbQ0BIXTdbQ0BIXThbQ0BdMTVbQ0gyXU8x

>  <s_epik_cmdline>  (190) 
J2VwaWtfcHl0aG9uJywgJy1waHQnLCAnMi4wJywgJy1waCcsICc3LjAnLCAnLXRuJywgJzgnLCAnLW1hJywgJzIwMCcsICctaW1hZScsICc8aW5maWxlLm1hZT4nLCAnLW9tYWUnLCAnPG91dGZpbGUubWFlPic=

>  <r_lp_tautomer_probability>  (190) 
1

>  <r_epik_Ionization_Penalty>  (190) 
7.00227e-11

>  <r_epik_Ionization_Penalty_Charging>  (190) 
0

>  <r_epik_Ionization_Penalty_Neutral>  (190) 
7.00227e-11

>  <r_epik_State_Penalty>  (190) 
-0

>  <r_epik_Charging_Adjusted_Penalty>  (190) 
0

>  <i_epik_Tot_Q>  (190) 
0

>  <i_epik_Tot_abs_Q>  (190) 
0

>  <s_epik_Chemistry_Notes>  (190) 
This compound has an ester and may undergo hydrolysis at high or low pH.

>  <s_lp_Force_Field>  (190) 
OPLS3e

>  <r_lp_Energy>  (190) 
813.682

>  <b_lp_Chiralities_Consistent>  (190) 
1

>  <s_lp_Variant>  (190) 
59:0-1

>  <s_i_glide_gridfile>  (190) 
pfpi4k_grid

>  <i_i_glide_lignum>  (190) 
36

>  <i_i_glide_rotatable_bonds>  (190) 
0

>  <r_i_docking_score>  (190) 
-2.10752

>  <r_i_glide_ligand_efficiency>  (190) 
-0.0514028

>  <r_i_glide_ligand_efficiency_sa>  (190) 
-0.177248

>  <r_i_glide_ligand_efficiency_ln>  (190) 
-0.447116

>  <r_i_glide_gscore>  (190) 
-2.10752

>  <r_i_glide_lipo>  (190) 
-0.157107

>  <r_i_glide_hbond>  (190) 
-0.0929831

>  <r_i_glide_metal>  (190) 
-0

>  <r_i_glide_rewards>  (190) 
-0.00523593

>  <r_i_glide_evdw>  (190) 
-33.329

>  <r_i_glide_ecoul>  (190) 
-1.23826

>  <r_i_glide_erotb>  (190) 
0

>  <r_i_glide_esite>  (190) 
0

>  <r_i_glide_emodel>  (190) 
-39.5197

>  <r_i_glide_energy>  (190) 
-34.5673

>  <r_i_glide_einternal>  (190) 
0

>  <r_i_glide_intrahb_reward>  (190) 
-0

>  <i_i_glide_confnum>  (190) 
2

>  <i_i_glide_posenum>  (190) 
21

>  <r_i_glide_eff_state_penalty>  (190) 
0

>  <ligand_id>  (190) 
59

>  <original_smiles>  (190) 
CC1CC2C3CCC4(CO4)C4C5OC(C4C4C(CC5C4(C)C)O3)C34CCC25C(C)CCC3C(C)CCC1C5OC4=O

>  <smiles>  (190) 
[H]C([H])([H])C1([H])C([H])([H])C2([H])C3([H])OC4([H])C([H])([H])C5([H])C6([H])OC([H])(C([H])(C6([H])C6(OC6([H])[H])C([H])([H])C3([H])[H])C4([H])C5(C([H])([H])[H])C([H])([H])[H])C34C(=O)OC5([H])C1([H])C([H])([H])C([H])([H])C([H])(C([H])([H])[H])C3([H])C([H])([H])C([H])([H])C([H])(C([H])([H])[H])C52C([H])([H])C4([H])[H]

$$$$
59:0:2
     RDKit          3D

 93102  0  0  1  0  0  0  0  0999 V2000
    7.4875   -7.7609    5.8269 C   0  0  0  0  0  0  0  0  0  0  0  0
    6.6426   -8.0906    4.5786 C   0  0  2  0  0  0  0  0  0  0  0  0
    7.1278   -7.1606    3.3351 C   0  0  0  0  0  0  0  0  0  0  0  0
    6.1256   -6.8628    2.1447 C   0  0  2  0  0  0  0  0  0  0  0  0
    6.2884   -5.4883    1.2190 C   0  0  1  0  0  0  0  0  0  0  0  0
    5.2199   -5.4492    0.0995 C   0  0  0  0  0  0  0  0  0  0  0  0
    5.0554   -4.1577   -0.6758 C   0  0  0  0  0  0  0  0  0  0  0  0
    3.7671   -3.3438   -0.3985 C   0  0  1  0  0  0  0  0  0  0  0  0
    3.4184   -2.4080   -1.5365 C   0  0  0  0  0  0  0  0  0  0  0  0
    2.6849   -3.6027   -1.3050 O   0  0  0  0  0  0  0  0  0  0  0  0
    3.1705   -3.1546    1.0589 C   0  0  2  0  0  0  0  0  0  0  0  0
    2.7455   -1.8273    1.5601 C   0  0  1  0  0  0  0  0  0  0  0  0
    1.9145   -2.4340    2.6703 O   0  0  0  0  0  0  0  0  0  0  0  0
    2.6171   -3.4579    3.4269 C   0  0  2  0  0  0  0  0  0  0  0  0
    3.8164   -3.4882    2.4438 C   0  0  2  0  0  0  0  0  0  0  0  0
    4.9675   -2.6137    3.0133 C   0  0  1  0  0  0  0  0  0  0  0  0
    5.9388   -2.7668    1.8627 C   0  0  2  0  0  0  0  0  0  0  0  0
    5.4294   -1.5488    0.9781 C   0  0  0  0  0  0  0  0  0  0  0  0
    4.1206   -0.9721    1.7187 C   0  0  2  0  0  0  0  0  0  0  0  0
    4.6189   -1.0865    3.1498 C   0  0  0  0  0  0  0  0  0  0  0  0
    3.6143   -0.5629    4.2143 C   0  0  0  0  0  0  0  0  0  0  0  0
    5.8508   -0.2021    3.5127 C   0  0  0  0  0  0  0  0  0  0  0  0
    6.6530   -4.0875    1.6485 O   0  0  0  0  0  0  0  0  0  0  0  0
    2.3811   -4.8824    4.2650 C   0  0  1  0  0  0  0  0  0  0  0  0
    3.8529   -4.9701    4.8628 C   0  0  0  0  0  0  0  0  0  0  0  0
    5.0017   -5.6511    3.9154 C   0  0  0  0  0  0  0  0  0  0  0  0
    4.7314   -6.9732    2.7549 C   0  0  1  0  0  0  0  0  0  0  0  0
    3.4518   -7.7677    1.7329 C   0  0  1  0  0  0  0  0  0  0  0  0
    4.0210   -8.9640    0.9306 C   0  0  0  0  0  0  0  0  0  0  0  0
    1.8589   -8.2656    2.3327 C   0  0  0  0  0  0  0  0  0  0  0  0
    0.7932   -7.4889    3.4939 C   0  0  0  0  0  0  0  0  0  0  0  0
    1.1989   -6.1382    4.6054 C   0  0  1  0  0  0  0  0  0  0  0  0
    1.5740   -6.7463    6.0867 C   0  0  1  0  0  0  0  0  0  0  0  0
    0.2659   -7.1755    6.7703 C   0  0  0  0  0  0  0  0  0  0  0  0
    2.6770   -7.9265    6.3668 C   0  0  0  0  0  0  0  0  0  0  0  0
    4.3074   -7.8347    6.2701 C   0  0  0  0  0  0  0  0  0  0  0  0
    5.0833   -8.2629    4.9269 C   0  0  1  0  0  0  0  0  0  0  0  0
    4.2765   -7.9722    3.7048 C   0  0  1  0  0  0  0  0  0  0  0  0
    3.2190   -7.0642    3.9993 O   0  0  0  0  0  0  0  0  0  0  0  0
    2.5688   -5.7813    3.2797 C   0  0  0  0  0  0  0  0  0  0  0  0
    2.0761   -5.5959    2.1522 O   0  0  0  0  0  0  0  0  0  0  0  0
    7.2864   -6.7497    6.1739 H   0  0  0  0  0  0  0  0  0  0  0  0
    8.5545   -7.8231    5.6035 H   0  0  0  0  0  0  0  0  0  0  0  0
    7.2856   -8.4482    6.6495 H   0  0  0  0  0  0  0  0  0  0  0  0
    6.9541   -9.0995    4.2853 H   0  0  0  0  0  0  0  0  0  0  0  0
    7.6330   -6.2429    3.6827 H   0  0  0  0  0  0  0  0  0  0  0  0
    7.9410   -7.7157    2.8806 H   0  0  0  0  0  0  0  0  0  0  0  0
    6.2707   -7.6982    1.4663 H   0  0  0  0  0  0  0  0  0  0  0  0
    7.2226   -5.7050    0.6972 H   0  0  0  0  0  0  0  0  0  0  0  0
    5.3853   -6.2707   -0.5947 H   0  0  0  0  0  0  0  0  0  0  0  0
    4.2447   -5.6148    0.4982 H   0  0  0  0  0  0  0  0  0  0  0  0
    5.9605   -3.5548   -0.6486 H   0  0  0  0  0  0  0  0  0  0  0  0
    5.0035   -4.4413   -1.7189 H   0  0  0  0  0  0  0  0  0  0  0  0
    2.9920   -1.4608   -1.2515 H   0  0  0  0  0  0  0  0  0  0  0  0
    3.9743   -2.4296   -2.4648 H   0  0  0  0  0  0  0  0  0  0  0  0
    2.2305   -3.6855    0.9337 H   0  0  0  0  0  0  0  0  0  0  0  0
    2.0876   -1.2887    0.8940 H   0  0  0  0  0  0  0  0  0  0  0  0
    2.8331   -2.8479    4.2759 H   0  0  0  0  0  0  0  0  0  0  0  0
    4.2208   -4.4205    2.1473 H   0  0  0  0  0  0  0  0  0  0  0  0
    5.4168   -2.9321    3.9460 H   0  0  0  0  0  0  0  0  0  0  0  0
    6.8431   -2.2805    2.1620 H   0  0  0  0  0  0  0  0  0  0  0  0
    6.2055   -0.7856    0.9830 H   0  0  0  0  0  0  0  0  0  0  0  0
    5.3647   -1.6431   -0.0910 H   0  0  0  0  0  0  0  0  0  0  0  0
    3.9587    0.0688    1.4435 H   0  0  0  0  0  0  0  0  0  0  0  0
    3.7166    0.5129    4.3583 H   0  0  0  0  0  0  0  0  0  0  0  0
    3.8041   -1.0184    5.1847 H   0  0  0  0  0  0  0  0  0  0  0  0
    2.5664   -0.6724    3.9613 H   0  0  0  0  0  0  0  0  0  0  0  0
    5.6193    0.8556    3.4034 H   0  0  0  0  0  0  0  0  0  0  0  0
    6.7562   -0.3573    2.9375 H   0  0  0  0  0  0  0  0  0  0  0  0
    6.1336   -0.3391    4.5553 H   0  0  0  0  0  0  0  0  0  0  0  0
    4.2029   -4.0184    5.2294 H   0  0  0  0  0  0  0  0  0  0  0  0
    3.7743   -5.4494    5.8198 H   0  0  0  0  0  0  0  0  0  0  0  0
    5.6556   -4.9191    3.5172 H   0  0  0  0  0  0  0  0  0  0  0  0
    5.6436   -5.9058    4.7323 H   0  0  0  0  0  0  0  0  0  0  0  0
    3.1679   -7.1416    0.8984 H   0  0  0  0  0  0  0  0  0  0  0  0
    4.4883   -9.7348    1.5440 H   0  0  0  0  0  0  0  0  0  0  0  0
    4.7442   -8.6217    0.1952 H   0  0  0  0  0  0  0  0  0  0  0  0
    3.2219   -9.4584    0.3799 H   0  0  0  0  0  0  0  0  0  0  0  0
    1.2536   -8.3968    1.4329 H   0  0  0  0  0  0  0  0  0  0  0  0
    1.9707   -9.2888    2.7029 H   0  0  0  0  0  0  0  0  0  0  0  0
   -0.0349   -7.1102    2.8991 H   0  0  0  0  0  0  0  0  0  0  0  0
    0.3670   -8.2825    4.0962 H   0  0  0  0  0  0  0  0  0  0  0  0
    0.2699   -5.5909    4.7264 H   0  0  0  0  0  0  0  0  0  0  0  0
    1.8789   -5.8890    6.6876 H   0  0  0  0  0  0  0  0  0  0  0  0
   -0.1515   -8.0800    6.3202 H   0  0  0  0  0  0  0  0  0  0  0  0
   -0.4922   -6.3908    6.7170 H   0  0  0  0  0  0  0  0  0  0  0  0
    0.4151   -7.3930    7.8288 H   0  0  0  0  0  0  0  0  0  0  0  0
    2.5138   -8.1953    7.4099 H   0  0  0  0  0  0  0  0  0  0  0  0
    2.3591   -8.8220    5.8334 H   0  0  0  0  0  0  0  0  0  0  0  0
    4.7181   -6.9397    6.7358 H   0  0  0  0  0  0  0  0  0  0  0  0
    4.6409   -8.5823    6.9884 H   0  0  0  0  0  0  0  0  0  0  0  0
    4.9936   -9.3454    5.0141 H   0  0  0  0  0  0  0  0  0  0  0  0
    3.9636   -8.9706    3.3740 H   0  0  0  0  0  0  0  0  0  0  0  0
  1  2  1  0
  1 42  1  0
  1 43  1  0
  1 44  1  0
  2 37  1  0
  2  3  1  0
  2 45  1  6
  3  4  1  0
  3 46  1  0
  3 47  1  0
  4 27  1  0
  4  5  1  0
  4 48  1  6
  5 23  1  0
  5  6  1  0
  5 49  1  6
  6  7  1  0
  6 50  1  0
  6 51  1  0
  7  8  1  0
  7 52  1  0
  7 53  1  0
  8 10  1  6
  8  9  1  0
  8 11  1  0
  9 10  1  0
  9 54  1  0
  9 55  1  0
 11 15  1  0
 11 12  1  0
 11 56  1  6
 12 19  1  0
 12 13  1  0
 12 57  1  6
 13 14  1  0
 14 15  1  0
 14 24  1  0
 14 58  1  1
 15 16  1  0
 15 59  1  6
 16 20  1  0
 16 17  1  0
 16 60  1  1
 17 18  1  0
 17 23  1  0
 17 61  1  1
 18 19  1  0
 18 62  1  0
 18 63  1  0
 19 20  1  0
 19 64  1  6
 20 21  1  0
 20 22  1  0
 21 65  1  0
 21 66  1  0
 21 67  1  0
 22 68  1  0
 22 69  1  0
 22 70  1  0
 24 32  1  0
 24 40  1  6
 24 25  1  0
 25 26  1  0
 25 71  1  0
 25 72  1  0
 27 26  1  1
 26 73  1  0
 26 74  1  0
 27 38  1  0
 27 28  1  0
 28 29  1  0
 28 30  1  0
 28 75  1  6
 29 76  1  0
 29 77  1  0
 29 78  1  0
 30 31  1  0
 30 79  1  0
 30 80  1  0
 31 32  1  0
 31 81  1  0
 31 82  1  0
 32 33  1  0
 32 83  1  1
 33 34  1  0
 33 35  1  0
 33 84  1  1
 34 85  1  0
 34 86  1  0
 34 87  1  0
 35 36  1  0
 35 88  1  0
 35 89  1  0
 36 37  1  0
 36 90  1  0
 36 91  1  0
 37 38  1  0
 37 92  1  1
 38 39  1  0
 38 93  1  6
 39 40  1  0
 40 41  2  0
M  END
>  <i_m_ct_stereo_status>  (191) 
1

>  <s_m_source_file>  (191) 
/var/tmp/pbs.5076255.sched01/tmpxnahmhzs/434e81vi2s.sdf

>  <i_m_source_file_index>  (191) 
36

>  <i_lp_mmshare_version>  (191) 
48012

>  <i_f3d_flags>  (191) 
0

>  <s_epik_input>  (191) 
W0NIM11bQ0BIXTFbQ0gyXVtDSDJdW0NAQEhdKFtDQEhdMk9DMz1PKVtDQEhdKFtDSDNdKVtDSDJdW0NASF0oW0NAQEhdKE80KVtDSDJdW0NIMl01KVtDQEBdMihbQ0gyXVtDSDJdNilbQ0BASF0oW0NIM10pW0NIMl1bQ0gyXVtDQEBIXTFbQ0BdMzZbQ0BASF0oTzcpW0NIXThbQ0BIXShDOShbQ0gzXSlbQ0gzXSlbQ0BASF00W0NIMl1bQ0BIXTlbQ0BIXTdbQ0BIXThbQ0BdMTVbQ0gyXU8x

>  <s_epik_cmdline>  (191) 
J2VwaWtfcHl0aG9uJywgJy1waHQnLCAnMi4wJywgJy1waCcsICc3LjAnLCAnLXRuJywgJzgnLCAnLW1hJywgJzIwMCcsICctaW1hZScsICc8aW5maWxlLm1hZT4nLCAnLW9tYWUnLCAnPG91dGZpbGUubWFlPic=

>  <r_lp_tautomer_probability>  (191) 
1

>  <r_epik_Ionization_Penalty>  (191) 
7.00227e-11

>  <r_epik_Ionization_Penalty_Charging>  (191) 
0

>  <r_epik_Ionization_Penalty_Neutral>  (191) 
7.00227e-11

>  <r_epik_State_Penalty>  (191) 
-0

>  <r_epik_Charging_Adjusted_Penalty>  (191) 
0

>  <i_epik_Tot_Q>  (191) 
0

>  <i_epik_Tot_abs_Q>  (191) 
0

>  <s_epik_Chemistry_Notes>  (191) 
This compound has an ester and may undergo hydrolysis at high or low pH.

>  <s_lp_Force_Field>  (191) 
OPLS3e

>  <r_lp_Energy>  (191) 
813.682

>  <b_lp_Chiralities_Consistent>  (191) 
1

>  <s_lp_Variant>  (191) 
59:0-1

>  <s_i_glide_gridfile>  (191) 
pfpi4k_grid

>  <i_i_glide_lignum>  (191) 
36

>  <i_i_glide_rotatable_bonds>  (191) 
0

>  <r_i_docking_score>  (191) 
-2.00624

>  <r_i_glide_ligand_efficiency>  (191) 
-0.0489327

>  <r_i_glide_ligand_efficiency_sa>  (191) 
-0.168731

>  <r_i_glide_ligand_efficiency_ln>  (191) 
-0.425631

>  <r_i_glide_gscore>  (191) 
-2.00624

>  <r_i_glide_lipo>  (191) 
-0.724893

>  <r_i_glide_hbond>  (191) 
0

>  <r_i_glide_metal>  (191) 
-0

>  <r_i_glide_rewards>  (191) 
0

>  <r_i_glide_evdw>  (191) 
-29.9799

>  <r_i_glide_ecoul>  (191) 
1.45816

>  <r_i_glide_erotb>  (191) 
0

>  <r_i_glide_esite>  (191) 
-0.00107494

>  <r_i_glide_emodel>  (191) 
-32.7434

>  <r_i_glide_energy>  (191) 
-28.5218

>  <r_i_glide_einternal>  (191) 
0

>  <r_i_glide_intrahb_reward>  (191) 
-0

>  <i_i_glide_confnum>  (191) 
2

>  <i_i_glide_posenum>  (191) 
28

>  <r_i_glide_eff_state_penalty>  (191) 
0

>  <ligand_id>  (191) 
59

>  <original_smiles>  (191) 
CC1CC2C3CCC4(CO4)C4C5OC(C4C4C(CC5C4(C)C)O3)C34CCC25C(C)CCC3C(C)CCC1C5OC4=O

>  <smiles>  (191) 
[H]C([H])([H])C1([H])C([H])([H])C2([H])C3([H])OC4([H])C([H])([H])C5([H])C6([H])OC([H])(C([H])(C6([H])C6(OC6([H])[H])C([H])([H])C3([H])[H])C4([H])C5(C([H])([H])[H])C([H])([H])[H])C34C(=O)OC5([H])C1([H])C([H])([H])C([H])([H])C([H])(C([H])([H])[H])C3([H])C([H])([H])C([H])([H])C([H])(C([H])([H])[H])C52C([H])([H])C4([H])[H]

$$$$
59:1:0
     RDKit          3D

 93102  0  0  1  0  0  0  0  0999 V2000
    5.6437   -4.0236    8.4053 C   0  0  0  0  0  0  0  0  0  0  0  0
    4.1742   -3.8493    7.9773 C   0  0  2  0  0  0  0  0  0  0  0  0
    3.4144   -5.2975    7.9543 C   0  0  0  0  0  0  0  0  0  0  0  0
    2.1255   -5.4931    7.0430 C   0  0  2  0  0  0  0  0  0  0  0  0
    1.7049   -6.8983    6.2620 C   0  0  2  0  0  0  0  0  0  0  0  0
    0.2774   -7.4049    6.3514 C   0  0  0  0  0  0  0  0  0  0  0  0
   -0.0958   -8.2491    5.0957 C   0  0  0  0  0  0  0  0  0  0  0  0
   -0.0041   -7.6822    3.6091 C   0  0  1  0  0  0  0  0  0  0  0  0
   -1.1683   -8.0765    2.7168 C   0  0  0  0  0  0  0  0  0  0  0  0
   -1.1125   -6.7979    3.3470 O   0  0  0  0  0  0  0  0  0  0  0  0
    1.3008   -7.2587    2.7587 C   0  0  2  0  0  0  0  0  0  0  0  0
    1.8467   -7.9415    1.5635 C   0  0  1  0  0  0  0  0  0  0  0  0
    2.5133   -6.6579    1.0499 O   0  0  0  0  0  0  0  0  0  0  0  0
    3.3144   -5.9178    2.0531 C   0  0  2  0  0  0  0  0  0  0  0  0
    2.7654   -6.8763    3.1566 C   0  0  2  0  0  0  0  0  0  0  0  0
    3.7775   -7.9751    3.5856 C   0  0  1  0  0  0  0  0  0  0  0  0
    2.9694   -8.7523    4.6296 C   0  0  2  0  0  0  0  0  0  0  0  0
    2.1928   -9.7044    3.5791 C   0  0  0  0  0  0  0  0  0  0  0  0
    2.6363   -9.2606    2.1103 C   0  0  2  0  0  0  0  0  0  0  0  0
    4.1037   -8.9666    2.4147 C   0  0  0  0  0  0  0  0  0  0  0  0
    4.9068   -8.4864    1.1737 C   0  0  0  0  0  0  0  0  0  0  0  0
    4.9532  -10.1997    2.8765 C   0  0  0  0  0  0  0  0  0  0  0  0
    2.5970   -8.0620    5.9359 O   0  0  0  0  0  0  0  0  0  0  0  0
    3.6137   -4.3456    2.6455 C   0  0  1  0  0  0  0  0  0  0  0  0
    4.5571   -4.7694    3.8664 C   0  0  0  0  0  0  0  0  0  0  0  0
    3.8452   -5.1668    5.3050 C   0  0  0  0  0  0  0  0  0  0  0  0
    2.3076   -4.4695    5.9159 C   0  0  1  0  0  0  0  0  0  0  0  0
    0.7622   -3.7312    5.3626 C   0  0  1  0  0  0  0  0  0  0  0  0
   -0.2095   -3.4133    6.5287 C   0  0  0  0  0  0  0  0  0  0  0  0
    0.6770   -2.3039    4.2838 C   0  0  0  0  0  0  0  0  0  0  0  0
    1.6887   -1.8428    2.9036 C   0  0  0  0  0  0  0  0  0  0  0  0
    3.2198   -2.6477    2.3638 C   0  0  1  0  0  0  0  0  0  0  0  0
    4.5079   -1.7660    2.9030 C   0  0  1  0  0  0  0  0  0  0  0  0
    4.6321   -0.5045    2.0194 C   0  0  0  0  0  0  0  0  0  0  0  0
    4.7609   -1.2972    4.4652 C   0  0  0  0  0  0  0  0  0  0  0  0
    5.1448   -2.2133    5.7746 C   0  0  0  0  0  0  0  0  0  0  0  0
    4.0061   -2.7837    6.7690 C   0  0  1  0  0  0  0  0  0  0  0  0
    2.7472   -3.0968    6.0174 C   0  0  1  0  0  0  0  0  0  0  0  0
    2.9888   -3.1478    4.6120 O   0  0  0  0  0  0  0  0  0  0  0  0
    2.5319   -4.1068    3.4089 C   0  0  0  0  0  0  0  0  0  0  0  0
    1.4211   -4.4691    2.9890 O   0  0  0  0  0  0  0  0  0  0  0  0
    6.2145   -4.5621    7.6498 H   0  0  0  0  0  0  0  0  0  0  0  0
    5.7154   -4.5969    9.3305 H   0  0  0  0  0  0  0  0  0  0  0  0
    6.1360   -3.0659    8.5780 H   0  0  0  0  0  0  0  0  0  0  0  0
    3.7105   -3.3412    8.8236 H   0  0  0  0  0  0  0  0  0  0  0  0
    4.1333   -6.0889    7.7374 H   0  0  0  0  0  0  0  0  0  0  0  0
    3.1179   -5.5196    8.9783 H   0  0  0  0  0  0  0  0  0  0  0  0
    1.2925   -5.2030    7.6729 H   0  0  0  0  0  0  0  0  0  0  0  0
    1.3583   -6.4390    5.3742 H   0  0  0  0  0  0  0  0  0  0  0  0
    0.1584   -8.0145    7.2490 H   0  0  0  0  0  0  0  0  0  0  0  0
   -0.4147   -6.5667    6.4560 H   0  0  0  0  0  0  0  0  0  0  0  0
    0.3381   -9.2297    5.2430 H   0  0  0  0  0  0  0  0  0  0  0  0
   -1.1492   -8.4766    5.2427 H   0  0  0  0  0  0  0  0  0  0  0  0
   -1.0501   -8.0443    1.6359 H   0  0  0  0  0  0  0  0  0  0  0  0
   -1.9401   -8.7421    3.0942 H   0  0  0  0  0  0  0  0  0  0  0  0
    0.7995   -6.4434    2.2488 H   0  0  0  0  0  0  0  0  0  0  0  0
    1.0544   -8.2423    0.8828 H   0  0  0  0  0  0  0  0  0  0  0  0
    4.3161   -6.1912    1.7578 H   0  0  0  0  0  0  0  0  0  0  0  0
    2.5433   -6.3898    4.0009 H   0  0  0  0  0  0  0  0  0  0  0  0
    4.7060   -7.5979    4.0064 H   0  0  0  0  0  0  0  0  0  0  0  0
    3.6823   -9.4343    5.0876 H   0  0  0  0  0  0  0  0  0  0  0  0
    2.4902  -10.7371    3.7635 H   0  0  0  0  0  0  0  0  0  0  0  0
    1.1239   -9.8260    3.5686 H   0  0  0  0  0  0  0  0  0  0  0  0
    2.5407  -10.0807    1.3976 H   0  0  0  0  0  0  0  0  0  0  0  0
    5.2992   -9.3307    0.6059 H   0  0  0  0  0  0  0  0  0  0  0  0
    5.7691   -7.8898    1.4705 H   0  0  0  0  0  0  0  0  0  0  0  0
    4.3366   -7.9344    0.4326 H   0  0  0  0  0  0  0  0  0  0  0  0
    5.0050  -10.9563    2.0909 H   0  0  0  0  0  0  0  0  0  0  0  0
    4.6128  -10.7355    3.7569 H   0  0  0  0  0  0  0  0  0  0  0  0
    5.9768   -9.8920    3.0917 H   0  0  0  0  0  0  0  0  0  0  0  0
    5.2252   -5.5806    3.5808 H   0  0  0  0  0  0  0  0  0  0  0  0
    5.3052   -4.0045    3.9788 H   0  0  0  0  0  0  0  0  0  0  0  0
    3.9148   -6.2302    5.4488 H   0  0  0  0  0  0  0  0  0  0  0  0
    4.7039   -4.9518    5.9213 H   0  0  0  0  0  0  0  0  0  0  0  0
    0.1950   -4.5365    4.8886 H   0  0  0  0  0  0  0  0  0  0  0  0
    0.2306   -2.7572    7.2797 H   0  0  0  0  0  0  0  0  0  0  0  0
   -0.5552   -4.3153    7.0298 H   0  0  0  0  0  0  0  0  0  0  0  0
   -1.1056   -2.9212    6.1495 H   0  0  0  0  0  0  0  0  0  0  0  0
   -0.3414   -2.3116    3.8920 H   0  0  0  0  0  0  0  0  0  0  0  0
    0.6794   -1.4236    4.9290 H   0  0  0  0  0  0  0  0  0  0  0  0
    1.0269   -1.8790    2.0355 H   0  0  0  0  0  0  0  0  0  0  0  0
    1.9005   -0.7782    3.0166 H   0  0  0  0  0  0  0  0  0  0  0  0
    3.2140   -2.5467    1.2741 H   0  0  0  0  0  0  0  0  0  0  0  0
    5.3916   -2.3388    2.6195 H   0  0  0  0  0  0  0  0  0  0  0  0
    3.8368    0.2159    2.2155 H   0  0  0  0  0  0  0  0  0  0  0  0
    4.6030   -0.7438    0.9555 H   0  0  0  0  0  0  0  0  0  0  0  0
    5.5794    0.0067    2.1924 H   0  0  0  0  0  0  0  0  0  0  0  0
    5.6031   -0.6073    4.3985 H   0  0  0  0  0  0  0  0  0  0  0  0
    3.9318   -0.6494    4.7508 H   0  0  0  0  0  0  0  0  0  0  0  0
    5.9134   -2.9502    5.5647 H   0  0  0  0  0  0  0  0  0  0  0  0
    5.7085   -1.5318    6.4131 H   0  0  0  0  0  0  0  0  0  0  0  0
    3.7502   -1.8668    7.3032 H   0  0  0  0  0  0  0  0  0  0  0  0
    2.0467   -2.3175    6.3211 H   0  0  0  0  0  0  0  0  0  0  0  0
  1  2  1  0
  1 42  1  0
  1 43  1  0
  1 44  1  0
  2 37  1  0
  2  3  1  0
  2 45  1  1
  3  4  1  0
  3 46  1  0
  3 47  1  0
  4 27  1  0
  4  5  1  0
  4 48  1  1
  5 23  1  0
  5  6  1  0
  5 49  1  6
  6  7  1  0
  6 50  1  0
  6 51  1  0
  7  8  1  0
  7 52  1  0
  7 53  1  0
  8 10  1  1
  8  9  1  0
  8 11  1  0
  9 10  1  0
  9 54  1  0
  9 55  1  0
 11 15  1  0
 11 12  1  0
 11 56  1  6
 12 19  1  0
 12 13  1  0
 12 57  1  6
 13 14  1  0
 14 15  1  0
 14 24  1  0
 14 58  1  6
 15 16  1  0
 15 59  1  1
 16 20  1  0
 16 17  1  0
 16 60  1  1
 17 18  1  0
 17 23  1  0
 17 61  1  1
 18 19  1  0
 18 62  1  0
 18 63  1  0
 19 20  1  0
 19 64  1  6
 20 21  1  0
 20 22  1  0
 21 65  1  0
 21 66  1  0
 21 67  1  0
 22 68  1  0
 22 69  1  0
 22 70  1  0
 24 32  1  0
 24 40  1  1
 24 25  1  0
 25 26  1  0
 25 71  1  0
 25 72  1  0
 27 26  1  6
 26 73  1  0
 26 74  1  0
 27 38  1  0
 27 28  1  0
 28 29  1  0
 28 30  1  0
 28 75  1  6
 29 76  1  0
 29 77  1  0
 29 78  1  0
 30 31  1  0
 30 79  1  0
 30 80  1  0
 31 32  1  0
 31 81  1  0
 31 82  1  0
 32 33  1  0
 32 83  1  6
 33 34  1  0
 33 35  1  0
 33 84  1  6
 34 85  1  0
 34 86  1  0
 34 87  1  0
 35 36  1  0
 35 88  1  0
 35 89  1  0
 36 37  1  0
 36 90  1  0
 36 91  1  0
 37 38  1  0
 37 92  1  1
 38 39  1  0
 38 93  1  6
 39 40  1  0
 40 41  2  0
M  END
>  <i_m_ct_stereo_status>  (192) 
1

>  <s_m_source_file>  (192) 
/var/tmp/pbs.5076255.sched01/tmpxnahmhzs/434e81vi2s.sdf

>  <i_m_source_file_index>  (192) 
37

>  <i_lp_mmshare_version>  (192) 
48012

>  <i_f3d_flags>  (192) 
0

>  <s_epik_input>  (192) 
W0NIM11bQ0BIXTFbQ0gyXVtDSDJdW0NAQEhdKFtDQEhdMk9DMz1PKVtDQEhdKFtDSDNdKVtDSDJdW0NASF0oW0NAQEhdKE80KVtDSDJdW0NIMl01KVtDQEBdMihbQ0gyXVtDSDJdNilbQ0BASF0oW0NIM10pW0NIMl1bQ0gyXVtDQEBIXTFbQ0BdMzZbQ0BASF0oTzcpW0NIXThbQ0BIXShDOShbQ0gzXSlbQ0gzXSlbQ0BASF00W0NIMl1bQ0BIXTlbQ0BIXTdbQ0BIXThbQ0BdMTVbQ0gyXU8x

>  <s_epik_cmdline>  (192) 
J2VwaWtfcHl0aG9uJywgJy1waHQnLCAnMi4wJywgJy1waCcsICc3LjAnLCAnLXRuJywgJzgnLCAnLW1hJywgJzIwMCcsICctaW1hZScsICc8aW5maWxlLm1hZT4nLCAnLW9tYWUnLCAnPG91dGZpbGUubWFlPic=

>  <r_lp_tautomer_probability>  (192) 
1

>  <r_epik_Ionization_Penalty>  (192) 
7.00227e-11

>  <r_epik_Ionization_Penalty_Charging>  (192) 
0

>  <r_epik_Ionization_Penalty_Neutral>  (192) 
7.00227e-11

>  <r_epik_State_Penalty>  (192) 
-0

>  <r_epik_Charging_Adjusted_Penalty>  (192) 
0

>  <i_epik_Tot_Q>  (192) 
0

>  <i_epik_Tot_abs_Q>  (192) 
0

>  <s_epik_Chemistry_Notes>  (192) 
This compound has an ester and may undergo hydrolysis at high or low pH.

>  <s_lp_Force_Field>  (192) 
OPLS3e

>  <r_lp_Energy>  (192) 
840.698

>  <b_lp_Chiralities_Consistent>  (192) 
1

>  <s_lp_Variant>  (192) 
59:0-2

>  <s_i_glide_gridfile>  (192) 
pfpi4k_grid

>  <i_i_glide_lignum>  (192) 
37

>  <i_i_glide_rotatable_bonds>  (192) 
0

>  <r_i_docking_score>  (192) 
-2.21103

>  <r_i_glide_ligand_efficiency>  (192) 
-0.0539275

>  <r_i_glide_ligand_efficiency_sa>  (192) 
-0.185954

>  <r_i_glide_ligand_efficiency_ln>  (192) 
-0.469077

>  <r_i_glide_gscore>  (192) 
-2.21103

>  <r_i_glide_lipo>  (192) 
-0.24657

>  <r_i_glide_hbond>  (192) 
-0.144168

>  <r_i_glide_metal>  (192) 
-0

>  <r_i_glide_rewards>  (192) 
-0.000805451

>  <r_i_glide_evdw>  (192) 
-31.7757

>  <r_i_glide_ecoul>  (192) 
-1.538

>  <r_i_glide_erotb>  (192) 
0

>  <r_i_glide_esite>  (192) 
0

>  <r_i_glide_emodel>  (192) 
-38.3895

>  <r_i_glide_energy>  (192) 
-33.3137

>  <r_i_glide_einternal>  (192) 
0

>  <r_i_glide_intrahb_reward>  (192) 
-0

>  <i_i_glide_confnum>  (192) 
1

>  <i_i_glide_posenum>  (192) 
11

>  <r_i_glide_eff_state_penalty>  (192) 
0

>  <ligand_id>  (192) 
59

>  <original_smiles>  (192) 
CC1CC2C3CCC4(CO4)C4C5OC(C4C4C(CC5C4(C)C)O3)C34CCC25C(C)CCC3C(C)CCC1C5OC4=O

>  <smiles>  (192) 
[H]C([H])([H])C1([H])C([H])([H])C2([H])C3([H])OC4([H])C([H])([H])C5([H])C6([H])OC([H])(C([H])(C6([H])C6(OC6([H])[H])C([H])([H])C3([H])[H])C4([H])C5(C([H])([H])[H])C([H])([H])[H])C34C(=O)OC5([H])C1([H])C([H])([H])C([H])([H])C([H])(C([H])([H])[H])C3([H])C([H])([H])C([H])([H])C([H])(C([H])([H])[H])C52C([H])([H])C4([H])[H]

$$$$
59:1:1
     RDKit          3D

 93102  0  0  1  0  0  0  0  0999 V2000
    4.1574  -10.9199    6.3581 C   0  0  0  0  0  0  0  0  0  0  0  0
    4.4010   -9.8600    5.2669 C   0  0  2  0  0  0  0  0  0  0  0  0
    5.0464   -8.5139    5.9315 C   0  0  0  0  0  0  0  0  0  0  0  0
    4.8942   -7.1201    5.1818 C   0  0  2  0  0  0  0  0  0  0  0  0
    4.7419   -5.6469    5.9326 C   0  0  2  0  0  0  0  0  0  0  0  0
    5.5795   -4.4741    5.4583 C   0  0  0  0  0  0  0  0  0  0  0  0
    4.8472   -3.1224    5.7524 C   0  0  0  0  0  0  0  0  0  0  0  0
    3.3883   -2.7772    5.2105 C   0  0  1  0  0  0  0  0  0  0  0  0
    3.2413   -1.3534    4.6927 C   0  0  0  0  0  0  0  0  0  0  0  0
    3.4700   -2.4448    3.8110 O   0  0  0  0  0  0  0  0  0  0  0  0
    1.9671   -3.4464    5.6033 C   0  0  2  0  0  0  0  0  0  0  0  0
    0.8591   -2.8054    6.3420 C   0  0  1  0  0  0  0  0  0  0  0  0
   -0.1837   -3.7291    5.7168 O   0  0  0  0  0  0  0  0  0  0  0  0
    0.1666   -5.1778    5.7226 C   0  0  2  0  0  0  0  0  0  0  0  0
    1.5835   -4.8105    6.2491 C   0  0  2  0  0  0  0  0  0  0  0  0
    1.7606   -5.0382    7.7723 C   0  0  1  0  0  0  0  0  0  0  0  0
    3.2045   -4.5840    7.9887 C   0  0  2  0  0  0  0  0  0  0  0  0
    2.8671   -3.0099    8.1368 C   0  0  0  0  0  0  0  0  0  0  0  0
    1.2972   -2.8226    7.9116 C   0  0  2  0  0  0  0  0  0  0  0  0
    0.8386   -4.0947    8.6213 C   0  0  0  0  0  0  0  0  0  0  0  0
   -0.7050   -4.2831    8.6191 C   0  0  0  0  0  0  0  0  0  0  0  0
    1.1511   -4.1525   10.1560 C   0  0  0  0  0  0  0  0  0  0  0  0
    4.3418   -5.3813    7.3583 O   0  0  0  0  0  0  0  0  0  0  0  0
    0.1674   -6.5726    4.7534 C   0  0  1  0  0  0  0  0  0  0  0  0
    0.8934   -7.5431    5.7926 C   0  0  0  0  0  0  0  0  0  0  0  0
    2.5474   -7.5604    5.8162 C   0  0  0  0  0  0  0  0  0  0  0  0
    3.5963   -7.2773    4.3817 C   0  0  1  0  0  0  0  0  0  0  0  0
    3.6307   -6.4312    2.7980 C   0  0  1  0  0  0  0  0  0  0  0  0
    4.9944   -6.5652    2.0720 C   0  0  0  0  0  0  0  0  0  0  0  0
    2.4049   -6.6714    1.5220 C   0  0  0  0  0  0  0  0  0  0  0  0
    0.6583   -6.9216    1.6460 C   0  0  0  0  0  0  0  0  0  0  0  0
   -0.2956   -7.1730    3.1620 C   0  0  1  0  0  0  0  0  0  0  0  0
   -0.6118   -8.7746    3.3252 C   0  0  1  0  0  0  0  0  0  0  0  0
   -1.7250   -9.1289    2.3202 C   0  0  0  0  0  0  0  0  0  0  0  0
    0.5083   -9.9835    3.2749 C   0  0  0  0  0  0  0  0  0  0  0  0
    1.6758  -10.3495    4.3675 C   0  0  0  0  0  0  0  0  0  0  0  0
    3.1765   -9.7714    4.2092 C   0  0  1  0  0  0  0  0  0  0  0  0
    3.1642   -8.4050    3.5922 C   0  0  1  0  0  0  0  0  0  0  0  0
    1.8583   -7.8345    3.6540 O   0  0  0  0  0  0  0  0  0  0  0  0
    1.2482   -6.3861    3.9801 C   0  0  0  0  0  0  0  0  0  0  0  0
    1.4473   -5.2559    3.5174 O   0  0  0  0  0  0  0  0  0  0  0  0
    3.3736  -10.6108    7.0528 H   0  0  0  0  0  0  0  0  0  0  0  0
    5.0580  -11.0957    6.9498 H   0  0  0  0  0  0  0  0  0  0  0  0
    3.8543  -11.8808    5.9410 H   0  0  0  0  0  0  0  0  0  0  0  0
    5.2212  -10.2754    4.6699 H   0  0  0  0  0  0  0  0  0  0  0  0
    4.7441   -8.4168    6.9833 H   0  0  0  0  0  0  0  0  0  0  0  0
    6.1102   -8.7008    6.0134 H   0  0  0  0  0  0  0  0  0  0  0  0
    5.7492   -7.0616    4.5064 H   0  0  0  0  0  0  0  0  0  0  0  0
    4.0220   -5.2480    5.2661 H   0  0  0  0  0  0  0  0  0  0  0  0
    6.5553   -4.4814    5.9534 H   0  0  0  0  0  0  0  0  0  0  0  0
    5.7828   -4.5599    4.3889 H   0  0  0  0  0  0  0  0  0  0  0  0
    5.0230   -2.9093    6.8003 H   0  0  0  0  0  0  0  0  0  0  0  0
    5.5077   -2.3828    5.2872 H   0  0  0  0  0  0  0  0  0  0  0  0
    2.2533   -0.9131    4.6113 H   0  0  0  0  0  0  0  0  0  0  0  0
    4.0681   -0.6524    4.7800 H   0  0  0  0  0  0  0  0  0  0  0  0
    1.5620   -3.3457    4.6103 H   0  0  0  0  0  0  0  0  0  0  0  0
    0.6774   -1.7812    6.0233 H   0  0  0  0  0  0  0  0  0  0  0  0
   -0.4673   -5.5239    6.5226 H   0  0  0  0  0  0  0  0  0  0  0  0
    2.2979   -5.3619    5.8190 H   0  0  0  0  0  0  0  0  0  0  0  0
    1.6222   -6.0644    8.0978 H   0  0  0  0  0  0  0  0  0  0  0  0
    3.4419   -4.8706    9.0110 H   0  0  0  0  0  0  0  0  0  0  0  0
    3.1445   -2.6947    9.1423 H   0  0  0  0  0  0  0  0  0  0  0  0
    3.3691   -2.2425    7.5738 H   0  0  0  0  0  0  0  0  0  0  0  0
    0.9325   -1.9311    8.4208 H   0  0  0  0  0  0  0  0  0  0  0  0
   -1.1708   -3.7771    9.4665 H   0  0  0  0  0  0  0  0  0  0  0  0
   -0.9707   -5.3357    8.7165 H   0  0  0  0  0  0  0  0  0  0  0  0
   -1.2245   -3.8708    7.7604 H   0  0  0  0  0  0  0  0  0  0  0  0
    0.6316   -3.3612   10.6997 H   0  0  0  0  0  0  0  0  0  0  0  0
    2.1911   -4.0631   10.4566 H   0  0  0  0  0  0  0  0  0  0  0  0
    0.8093   -5.1006   10.5729 H   0  0  0  0  0  0  0  0  0  0  0  0
    0.5474   -7.3635    6.8001 H   0  0  0  0  0  0  0  0  0  0  0  0
    0.4819   -8.5263    5.6680 H   0  0  0  0  0  0  0  0  0  0  0  0
    2.8956   -7.0633    6.6859 H   0  0  0  0  0  0  0  0  0  0  0  0
    2.6419   -8.5425    6.2351 H   0  0  0  0  0  0  0  0  0  0  0  0
    3.6624   -5.3649    3.0220 H   0  0  0  0  0  0  0  0  0  0  0  0
    5.2963   -7.6000    1.9086 H   0  0  0  0  0  0  0  0  0  0  0  0
    5.7965   -6.0634    2.6100 H   0  0  0  0  0  0  0  0  0  0  0  0
    4.9553   -6.0842    1.0933 H   0  0  0  0  0  0  0  0  0  0  0  0
    2.5248   -5.8145    0.8512 H   0  0  0  0  0  0  0  0  0  0  0  0
    2.7563   -7.5007    0.9067 H   0  0  0  0  0  0  0  0  0  0  0  0
    0.2112   -6.0536    1.1669 H   0  0  0  0  0  0  0  0  0  0  0  0
    0.4110   -7.7293    0.9606 H   0  0  0  0  0  0  0  0  0  0  0  0
   -1.2587   -6.6999    2.9698 H   0  0  0  0  0  0  0  0  0  0  0  0
   -1.1226   -8.8833    4.2825 H   0  0  0  0  0  0  0  0  0  0  0  0
   -1.3790   -9.1303    1.2885 H   0  0  0  0  0  0  0  0  0  0  0  0
   -2.5711   -8.4466    2.3822 H   0  0  0  0  0  0  0  0  0  0  0  0
   -2.1134  -10.1244    2.5122 H   0  0  0  0  0  0  0  0  0  0  0  0
   -0.0913  -10.8935    3.2571 H   0  0  0  0  0  0  0  0  0  0  0  0
    0.9673   -9.9717    2.2850 H   0  0  0  0  0  0  0  0  0  0  0  0
    1.3232  -10.3230    5.3949 H   0  0  0  0  0  0  0  0  0  0  0  0
    1.8117  -11.4250    4.2515 H   0  0  0  0  0  0  0  0  0  0  0  0
    3.5331  -10.4057    3.3979 H   0  0  0  0  0  0  0  0  0  0  0  0
    3.5615   -8.5516    2.5839 H   0  0  0  0  0  0  0  0  0  0  0  0
  1  2  1  0
  1 42  1  0
  1 43  1  0
  1 44  1  0
  2 37  1  0
  2  3  1  0
  2 45  1  6
  3  4  1  0
  3 46  1  0
  3 47  1  0
  4 27  1  0
  4  5  1  0
  4 48  1  6
  5 23  1  0
  5  6  1  0
  5 49  1  6
  6  7  1  0
  6 50  1  0
  6 51  1  0
  7  8  1  0
  7 52  1  0
  7 53  1  0
  8 10  1  6
  8  9  1  0
  8 11  1  0
  9 10  1  0
  9 54  1  0
  9 55  1  0
 11 15  1  0
 11 12  1  0
 11 56  1  6
 12 19  1  0
 12 13  1  0
 12 57  1  6
 13 14  1  0
 14 15  1  0
 14 24  1  0
 14 58  1  1
 15 16  1  0
 15 59  1  6
 16 20  1  0
 16 17  1  0
 16 60  1  6
 17 18  1  0
 17 23  1  0
 17 61  1  1
 18 19  1  0
 18 62  1  0
 18 63  1  0
 19 20  1  0
 19 64  1  1
 20 21  1  0
 20 22  1  0
 21 65  1  0
 21 66  1  0
 21 67  1  0
 22 68  1  0
 22 69  1  0
 22 70  1  0
 24 32  1  0
 24 40  1  6
 24 25  1  0
 25 26  1  0
 25 71  1  0
 25 72  1  0
 27 26  1  1
 26 73  1  0
 26 74  1  0
 27 38  1  0
 27 28  1  0
 28 29  1  0
 28 30  1  0
 28 75  1  1
 29 76  1  0
 29 77  1  0
 29 78  1  0
 30 31  1  0
 30 79  1  0
 30 80  1  0
 31 32  1  0
 31 81  1  0
 31 82  1  0
 32 33  1  0
 32 83  1  6
 33 34  1  0
 33 35  1  0
 33 84  1  1
 34 85  1  0
 34 86  1  0
 34 87  1  0
 35 36  1  0
 35 88  1  0
 35 89  1  0
 36 37  1  0
 36 90  1  0
 36 91  1  0
 37 38  1  0
 37 92  1  6
 38 39  1  0
 38 93  1  6
 39 40  1  0
 40 41  2  0
M  END
>  <i_m_ct_stereo_status>  (193) 
1

>  <s_m_source_file>  (193) 
/var/tmp/pbs.5076255.sched01/tmpxnahmhzs/434e81vi2s.sdf

>  <i_m_source_file_index>  (193) 
37

>  <i_lp_mmshare_version>  (193) 
48012

>  <i_f3d_flags>  (193) 
0

>  <s_epik_input>  (193) 
W0NIM11bQ0BIXTFbQ0gyXVtDSDJdW0NAQEhdKFtDQEhdMk9DMz1PKVtDQEhdKFtDSDNdKVtDSDJdW0NASF0oW0NAQEhdKE80KVtDSDJdW0NIMl01KVtDQEBdMihbQ0gyXVtDSDJdNilbQ0BASF0oW0NIM10pW0NIMl1bQ0gyXVtDQEBIXTFbQ0BdMzZbQ0BASF0oTzcpW0NIXThbQ0BIXShDOShbQ0gzXSlbQ0gzXSlbQ0BASF00W0NIMl1bQ0BIXTlbQ0BIXTdbQ0BIXThbQ0BdMTVbQ0gyXU8x

>  <s_epik_cmdline>  (193) 
J2VwaWtfcHl0aG9uJywgJy1waHQnLCAnMi4wJywgJy1waCcsICc3LjAnLCAnLXRuJywgJzgnLCAnLW1hJywgJzIwMCcsICctaW1hZScsICc8aW5maWxlLm1hZT4nLCAnLW9tYWUnLCAnPG91dGZpbGUubWFlPic=

>  <r_lp_tautomer_probability>  (193) 
1

>  <r_epik_Ionization_Penalty>  (193) 
7.00227e-11

>  <r_epik_Ionization_Penalty_Charging>  (193) 
0

>  <r_epik_Ionization_Penalty_Neutral>  (193) 
7.00227e-11

>  <r_epik_State_Penalty>  (193) 
-0

>  <r_epik_Charging_Adjusted_Penalty>  (193) 
0

>  <i_epik_Tot_Q>  (193) 
0

>  <i_epik_Tot_abs_Q>  (193) 
0

>  <s_epik_Chemistry_Notes>  (193) 
This compound has an ester and may undergo hydrolysis at high or low pH.

>  <s_lp_Force_Field>  (193) 
OPLS3e

>  <r_lp_Energy>  (193) 
840.698

>  <b_lp_Chiralities_Consistent>  (193) 
1

>  <s_lp_Variant>  (193) 
59:0-2

>  <s_i_glide_gridfile>  (193) 
pfpi4k_grid

>  <i_i_glide_lignum>  (193) 
37

>  <i_i_glide_rotatable_bonds>  (193) 
0

>  <r_i_docking_score>  (193) 
-1.58436

>  <r_i_glide_ligand_efficiency>  (193) 
-0.0386428

>  <r_i_glide_ligand_efficiency_sa>  (193) 
-0.133249

>  <r_i_glide_ligand_efficiency_ln>  (193) 
-0.336126

>  <r_i_glide_gscore>  (193) 
-1.58436

>  <r_i_glide_lipo>  (193) 
-0.323074

>  <r_i_glide_hbond>  (193) 
0

>  <r_i_glide_metal>  (193) 
-0

>  <r_i_glide_rewards>  (193) 
0

>  <r_i_glide_evdw>  (193) 
-30.2531

>  <r_i_glide_ecoul>  (193) 
1.75191

>  <r_i_glide_erotb>  (193) 
0

>  <r_i_glide_esite>  (193) 
-0.0114107

>  <r_i_glide_emodel>  (193) 
-32.0398

>  <r_i_glide_energy>  (193) 
-28.5012

>  <r_i_glide_einternal>  (193) 
0

>  <r_i_glide_intrahb_reward>  (193) 
-0

>  <i_i_glide_confnum>  (193) 
2

>  <i_i_glide_posenum>  (193) 
34

>  <r_i_glide_eff_state_penalty>  (193) 
0

>  <ligand_id>  (193) 
59

>  <original_smiles>  (193) 
CC1CC2C3CCC4(CO4)C4C5OC(C4C4C(CC5C4(C)C)O3)C34CCC25C(C)CCC3C(C)CCC1C5OC4=O

>  <smiles>  (193) 
[H]C([H])([H])C1([H])C([H])([H])C2([H])C3([H])OC4([H])C([H])([H])C5([H])C6([H])OC([H])(C([H])(C6([H])C6(OC6([H])[H])C([H])([H])C3([H])[H])C4([H])C5(C([H])([H])[H])C([H])([H])[H])C34C(=O)OC5([H])C1([H])C([H])([H])C([H])([H])C([H])(C([H])([H])[H])C3([H])C([H])([H])C([H])([H])C([H])(C([H])([H])[H])C52C([H])([H])C4([H])[H]

$$$$
59:1:2
     RDKit          3D

 93102  0  0  1  0  0  0  0  0999 V2000
    7.3707   -7.9923    2.6564 C   0  0  0  0  0  0  0  0  0  0  0  0
    6.2042   -7.2132    2.0207 C   0  0  2  0  0  0  0  0  0  0  0  0
    6.1930   -5.6787    2.5803 C   0  0  0  0  0  0  0  0  0  0  0  0
    4.8423   -4.8400    2.5343 C   0  0  2  0  0  0  0  0  0  0  0  0
    4.3975   -3.6968    3.6539 C   0  0  2  0  0  0  0  0  0  0  0  0
    3.8636   -2.3578    3.1841 C   0  0  0  0  0  0  0  0  0  0  0  0
    2.8966   -1.7447    4.2495 C   0  0  0  0  0  0  0  0  0  0  0  0
    1.5890   -2.4995    4.7866 C   0  0  1  0  0  0  0  0  0  0  0  0
    0.3751   -1.5901    4.9169 C   0  0  0  0  0  0  0  0  0  0  0  0
    0.5639   -2.4204    3.7795 O   0  0  0  0  0  0  0  0  0  0  0  0
    1.4812   -3.8307    5.6820 C   0  0  2  0  0  0  0  0  0  0  0  0
    0.9965   -3.9282    7.0788 C   0  0  1  0  0  0  0  0  0  0  0  0
    0.5794   -5.3869    6.9079 O   0  0  0  0  0  0  0  0  0  0  0  0
    1.5960   -6.2643    6.2612 C   0  0  2  0  0  0  0  0  0  0  0  0
    2.4628   -5.0083    5.9659 C   0  0  2  0  0  0  0  0  0  0  0  0
    3.6508   -4.8183    6.9440 C   0  0  1  0  0  0  0  0  0  0  0  0
    4.2842   -3.5281    6.4248 C   0  0  2  0  0  0  0  0  0  0  0  0
    3.3006   -2.5234    7.2252 C   0  0  0  0  0  0  0  0  0  0  0  0
    2.2301   -3.4095    8.0100 C   0  0  2  0  0  0  0  0  0  0  0  0
    3.1659   -4.5470    8.4104 C   0  0  0  0  0  0  0  0  0  0  0  0
    2.4640   -5.6640    9.2325 C   0  0  0  0  0  0  0  0  0  0  0  0
    4.3323   -4.1441    9.3765 C   0  0  0  0  0  0  0  0  0  0  0  0
    4.9381   -3.5152    5.0459 O   0  0  0  0  0  0  0  0  0  0  0  0
    1.7800   -7.4802    5.0910 C   0  0  1  0  0  0  0  0  0  0  0  0
    3.3747   -7.5852    5.1529 C   0  0  0  0  0  0  0  0  0  0  0  0
    4.2593   -6.5547    4.2173 C   0  0  0  0  0  0  0  0  0  0  0  0
    3.7460   -5.9095    2.6254 C   0  0  1  0  0  0  0  0  0  0  0  0
    2.2783   -5.5024    1.6722 C   0  0  1  0  0  0  0  0  0  0  0  0
    2.6199   -4.8617    0.3030 C   0  0  0  0  0  0  0  0  0  0  0  0
    0.9638   -6.6682    1.3372 C   0  0  0  0  0  0  0  0  0  0  0  0
    0.2682   -7.9277    2.3587 C   0  0  0  0  0  0  0  0  0  0  0  0
    0.8751   -8.4871    3.9582 C   0  0  1  0  0  0  0  0  0  0  0  0
    1.7314   -9.8806    3.7586 C   0  0  1  0  0  0  0  0  0  0  0  0
    0.7355  -11.0364    3.5145 C   0  0  0  0  0  0  0  0  0  0  0  0
    2.9789  -10.0929    2.7017 C   0  0  0  0  0  0  0  0  0  0  0  0
    4.4877   -9.4515    2.7444 C   0  0  0  0  0  0  0  0  0  0  0  0
    4.8428   -8.0917    1.9478 C   0  0  1  0  0  0  0  0  0  0  0  0
    3.6654   -7.1648    1.9174 C   0  0  1  0  0  0  0  0  0  0  0  0
    2.6925   -7.5486    2.8978 O   0  0  0  0  0  0  0  0  0  0  0  0
    1.7573   -6.7788    3.9391 C   0  0  0  0  0  0  0  0  0  0  0  0
    0.9253   -5.8649    3.8335 O   0  0  0  0  0  0  0  0  0  0  0  0
    7.2247   -8.1333    3.7286 H   0  0  0  0  0  0  0  0  0  0  0  0
    8.3205   -7.4668    2.5286 H   0  0  0  0  0  0  0  0  0  0  0  0
    7.4870   -8.9792    2.2101 H   0  0  0  0  0  0  0  0  0  0  0  0
    6.4961   -7.1054    0.9690 H   0  0  0  0  0  0  0  0  0  0  0  0
    6.6459   -5.6236    3.5811 H   0  0  0  0  0  0  0  0  0  0  0  0
    6.9083   -5.1355    1.9756 H   0  0  0  0  0  0  0  0  0  0  0  0
    4.8319   -4.3649    1.5532 H   0  0  0  0  0  0  0  0  0  0  0  0
    3.3711   -3.9586    3.6882 H   0  0  0  0  0  0  0  0  0  0  0  0
    4.6926   -1.6644    2.9984 H   0  0  0  0  0  0  0  0  0  0  0  0
    3.3429   -2.4667    2.2306 H   0  0  0  0  0  0  0  0  0  0  0  0
    3.5272   -1.3031    5.0107 H   0  0  0  0  0  0  0  0  0  0  0  0
    2.5232   -0.8456    3.7524 H   0  0  0  0  0  0  0  0  0  0  0  0
   -0.4456   -1.8977    5.5630 H   0  0  0  0  0  0  0  0  0  0  0  0
    0.4615   -0.5267    4.7326 H   0  0  0  0  0  0  0  0  0  0  0  0
    0.5805   -4.1719    5.1959 H   0  0  0  0  0  0  0  0  0  0  0  0
    0.1174   -3.3179    7.2632 H   0  0  0  0  0  0  0  0  0  0  0  0
    1.9671   -6.7975    7.1217 H   0  0  0  0  0  0  0  0  0  0  0  0
    2.8830   -5.0425    5.0578 H   0  0  0  0  0  0  0  0  0  0  0  0
    4.3687   -5.6325    6.9490 H   0  0  0  0  0  0  0  0  0  0  0  0
    5.2172   -3.4295    6.9748 H   0  0  0  0  0  0  0  0  0  0  0  0
    3.9005   -1.9461    7.9273 H   0  0  0  0  0  0  0  0  0  0  0  0
    2.7690   -1.7158    6.7527 H   0  0  0  0  0  0  0  0  0  0  0  0
    1.8507   -2.8853    8.8876 H   0  0  0  0  0  0  0  0  0  0  0  0
    2.4586   -5.4324   10.2993 H   0  0  0  0  0  0  0  0  0  0  0  0
    2.9887   -6.6144    9.1324 H   0  0  0  0  0  0  0  0  0  0  0  0
    1.4131   -5.8176    9.0083 H   0  0  0  0  0  0  0  0  0  0  0  0
    3.9496   -3.7858   10.3340 H   0  0  0  0  0  0  0  0  0  0  0  0
    5.0160   -3.3708    9.0391 H   0  0  0  0  0  0  0  0  0  0  0  0
    4.9569   -5.0121    9.5913 H   0  0  0  0  0  0  0  0  0  0  0  0
    3.7260   -7.5052    6.1715 H   0  0  0  0  0  0  0  0  0  0  0  0
    3.6395   -8.6123    4.9864 H   0  0  0  0  0  0  0  0  0  0  0  0
    4.7138   -5.8138    4.8368 H   0  0  0  0  0  0  0  0  0  0  0  0
    5.1421   -7.1690    4.1751 H   0  0  0  0  0  0  0  0  0  0  0  0
    1.8337   -4.6347    2.1561 H   0  0  0  0  0  0  0  0  0  0  0  0
    3.2784   -5.4829   -0.3029 H   0  0  0  0  0  0  0  0  0  0  0  0
    3.0884   -3.8849    0.4078 H   0  0  0  0  0  0  0  0  0  0  0  0
    1.7219   -4.6892   -0.2878 H   0  0  0  0  0  0  0  0  0  0  0  0
    0.1058   -6.0745    1.0221 H   0  0  0  0  0  0  0  0  0  0  0  0
    1.2292   -7.1854    0.4215 H   0  0  0  0  0  0  0  0  0  0  0  0
   -0.7705   -7.6275    2.5255 H   0  0  0  0  0  0  0  0  0  0  0  0
    0.1638   -8.8116    1.7240 H   0  0  0  0  0  0  0  0  0  0  0  0
   -0.0264   -8.7661    4.5120 H   0  0  0  0  0  0  0  0  0  0  0  0
    2.1258  -10.1239    4.7451 H   0  0  0  0  0  0  0  0  0  0  0  0
    0.2651  -10.9851    2.5322 H   0  0  0  0  0  0  0  0  0  0  0  0
   -0.0615  -11.0428    4.2582 H   0  0  0  0  0  0  0  0  0  0  0  0
    1.2216  -12.0114    3.5862 H   0  0  0  0  0  0  0  0  0  0  0  0
    3.1730  -11.1664    2.7350 H   0  0  0  0  0  0  0  0  0  0  0  0
    2.5878   -9.9532    1.6930 H   0  0  0  0  0  0  0  0  0  0  0  0
    4.9364   -9.4839    3.7335 H   0  0  0  0  0  0  0  0  0  0  0  0
    5.0950  -10.2010    2.2377 H   0  0  0  0  0  0  0  0  0  0  0  0
    4.8803   -8.4794    0.9292 H   0  0  0  0  0  0  0  0  0  0  0  0
    3.3195   -7.1884    0.8820 H   0  0  0  0  0  0  0  0  0  0  0  0
  1  2  1  0
  1 42  1  0
  1 43  1  0
  1 44  1  0
  2 37  1  0
  2  3  1  0
  2 45  1  6
  3  4  1  0
  3 46  1  0
  3 47  1  0
  4 27  1  0
  4  5  1  0
  4 48  1  6
  5 23  1  0
  5  6  1  0
  5 49  1  1
  6  7  1  0
  6 50  1  0
  6 51  1  0
  7  8  1  0
  7 52  1  0
  7 53  1  0
  8 10  1  6
  8  9  1  0
  8 11  1  0
  9 10  1  0
  9 54  1  0
  9 55  1  0
 11 15  1  0
 11 12  1  0
 11 56  1  6
 12 19  1  0
 12 13  1  0
 12 57  1  6
 13 14  1  0
 14 15  1  0
 14 24  1  0
 14 58  1  1
 15 16  1  0
 15 59  1  6
 16 20  1  0
 16 17  1  0
 16 60  1  1
 17 18  1  0
 17 23  1  0
 17 61  1  1
 18 19  1  0
 18 62  1  0
 18 63  1  0
 19 20  1  0
 19 64  1  1
 20 21  1  0
 20 22  1  0
 21 65  1  0
 21 66  1  0
 21 67  1  0
 22 68  1  0
 22 69  1  0
 22 70  1  0
 24 32  1  0
 24 40  1  6
 24 25  1  0
 25 26  1  0
 25 71  1  0
 25 72  1  0
 27 26  1  1
 26 73  1  0
 26 74  1  0
 27 38  1  0
 27 28  1  0
 28 29  1  0
 28 30  1  0
 28 75  1  1
 29 76  1  0
 29 77  1  0
 29 78  1  0
 30 31  1  0
 30 79  1  0
 30 80  1  0
 31 32  1  0
 31 81  1  0
 31 82  1  0
 32 33  1  0
 32 83  1  1
 33 34  1  0
 33 35  1  0
 33 84  1  1
 34 85  1  0
 34 86  1  0
 34 87  1  0
 35 36  1  0
 35 88  1  0
 35 89  1  0
 36 37  1  0
 36 90  1  0
 36 91  1  0
 37 38  1  0
 37 92  1  6
 38 39  1  0
 38 93  1  6
 39 40  1  0
 40 41  2  0
M  END
>  <i_m_ct_stereo_status>  (194) 
1

>  <s_m_source_file>  (194) 
/var/tmp/pbs.5076255.sched01/tmpxnahmhzs/434e81vi2s.sdf

>  <i_m_source_file_index>  (194) 
37

>  <i_lp_mmshare_version>  (194) 
48012

>  <i_f3d_flags>  (194) 
0

>  <s_epik_input>  (194) 
W0NIM11bQ0BIXTFbQ0gyXVtDSDJdW0NAQEhdKFtDQEhdMk9DMz1PKVtDQEhdKFtDSDNdKVtDSDJdW0NASF0oW0NAQEhdKE80KVtDSDJdW0NIMl01KVtDQEBdMihbQ0gyXVtDSDJdNilbQ0BASF0oW0NIM10pW0NIMl1bQ0gyXVtDQEBIXTFbQ0BdMzZbQ0BASF0oTzcpW0NIXThbQ0BIXShDOShbQ0gzXSlbQ0gzXSlbQ0BASF00W0NIMl1bQ0BIXTlbQ0BIXTdbQ0BIXThbQ0BdMTVbQ0gyXU8x

>  <s_epik_cmdline>  (194) 
J2VwaWtfcHl0aG9uJywgJy1waHQnLCAnMi4wJywgJy1waCcsICc3LjAnLCAnLXRuJywgJzgnLCAnLW1hJywgJzIwMCcsICctaW1hZScsICc8aW5maWxlLm1hZT4nLCAnLW9tYWUnLCAnPG91dGZpbGUubWFlPic=

>  <r_lp_tautomer_probability>  (194) 
1

>  <r_epik_Ionization_Penalty>  (194) 
7.00227e-11

>  <r_epik_Ionization_Penalty_Charging>  (194) 
0

>  <r_epik_Ionization_Penalty_Neutral>  (194) 
7.00227e-11

>  <r_epik_State_Penalty>  (194) 
-0

>  <r_epik_Charging_Adjusted_Penalty>  (194) 
0

>  <i_epik_Tot_Q>  (194) 
0

>  <i_epik_Tot_abs_Q>  (194) 
0

>  <s_epik_Chemistry_Notes>  (194) 
This compound has an ester and may undergo hydrolysis at high or low pH.

>  <s_lp_Force_Field>  (194) 
OPLS3e

>  <r_lp_Energy>  (194) 
840.698

>  <b_lp_Chiralities_Consistent>  (194) 
1

>  <s_lp_Variant>  (194) 
59:0-2

>  <s_i_glide_gridfile>  (194) 
pfpi4k_grid

>  <i_i_glide_lignum>  (194) 
37

>  <i_i_glide_rotatable_bonds>  (194) 
0

>  <r_i_docking_score>  (194) 
-1.51018

>  <r_i_glide_ligand_efficiency>  (194) 
-0.0368336

>  <r_i_glide_ligand_efficiency_sa>  (194) 
-0.12701

>  <r_i_glide_ligand_efficiency_ln>  (194) 
-0.320389

>  <r_i_glide_gscore>  (194) 
-1.51018

>  <r_i_glide_lipo>  (194) 
-0.254769

>  <r_i_glide_hbond>  (194) 
0

>  <r_i_glide_metal>  (194) 
-0

>  <r_i_glide_rewards>  (194) 
0

>  <r_i_glide_evdw>  (194) 
-30.1941

>  <r_i_glide_ecoul>  (194) 
1.7319

>  <r_i_glide_erotb>  (194) 
0

>  <r_i_glide_esite>  (194) 
-0.00548968

>  <r_i_glide_emodel>  (194) 
-31.8299

>  <r_i_glide_energy>  (194) 
-28.4622

>  <r_i_glide_einternal>  (194) 
0

>  <r_i_glide_intrahb_reward>  (194) 
-0

>  <i_i_glide_confnum>  (194) 
2

>  <i_i_glide_posenum>  (194) 
22

>  <r_i_glide_eff_state_penalty>  (194) 
0

>  <ligand_id>  (194) 
59

>  <original_smiles>  (194) 
CC1CC2C3CCC4(CO4)C4C5OC(C4C4C(CC5C4(C)C)O3)C34CCC25C(C)CCC3C(C)CCC1C5OC4=O

>  <smiles>  (194) 
[H]C([H])([H])C1([H])C([H])([H])C2([H])C3([H])OC4([H])C([H])([H])C5([H])C6([H])OC([H])(C([H])(C6([H])C6(OC6([H])[H])C([H])([H])C3([H])[H])C4([H])C5(C([H])([H])[H])C([H])([H])[H])C34C(=O)OC5([H])C1([H])C([H])([H])C([H])([H])C([H])(C([H])([H])[H])C3([H])C([H])([H])C([H])([H])C([H])(C([H])([H])[H])C52C([H])([H])C4([H])[H]

$$$$
59:2:0
     RDKit          3D

 93102  0  0  1  0  0  0  0  0999 V2000
    7.5366   -7.0409    5.7195 C   0  0  0  0  0  0  0  0  0  0  0  0
    6.7339   -7.5149    4.4941 C   0  0  2  0  0  0  0  0  0  0  0  0
    7.1606   -6.6490    3.1819 C   0  0  0  0  0  0  0  0  0  0  0  0
    6.1439   -6.4593    1.9697 C   0  0  2  0  0  0  0  0  0  0  0  0
    6.2123   -5.0879    1.0100 C   0  0  1  0  0  0  0  0  0  0  0  0
    5.1475   -5.0502   -0.1330 C   0  0  0  0  0  0  0  0  0  0  0  0
    4.9530   -3.7034   -0.8636 C   0  0  0  0  0  0  0  0  0  0  0  0
    3.6500   -2.8785   -0.6264 C   0  0  1  0  0  0  0  0  0  0  0  0
    3.3168   -1.8644   -1.7119 C   0  0  0  0  0  0  0  0  0  0  0  0
    2.6670   -3.1264   -1.6485 O   0  0  0  0  0  0  0  0  0  0  0  0
    2.9832   -2.7113    0.7923 C   0  0  2  0  0  0  0  0  0  0  0  0
    2.6746   -1.3945    1.4921 C   0  0  1  0  0  0  0  0  0  0  0  0
    1.9845   -1.9437    2.7327 O   0  0  0  0  0  0  0  0  0  0  0  0
    2.1841   -3.3886    2.8802 C   0  0  1  0  0  0  0  0  0  0  0  0
    3.5399   -3.2512    2.0948 C   0  0  2  0  0  0  0  0  0  0  0  0
    4.7299   -2.4195    2.8269 C   0  0  1  0  0  0  0  0  0  0  0  0
    5.8078   -2.4417    1.7782 C   0  0  2  0  0  0  0  0  0  0  0  0
    5.3465   -1.1573    0.9667 C   0  0  0  0  0  0  0  0  0  0  0  0
    4.0538   -0.6055    1.7454 C   0  0  2  0  0  0  0  0  0  0  0  0
    4.4851   -0.9102    3.1738 C   0  0  0  0  0  0  0  0  0  0  0  0
    3.4907   -0.5914    4.3330 C   0  0  0  0  0  0  0  0  0  0  0  0
    5.7420   -0.1024    3.6484 C   0  0  0  0  0  0  0  0  0  0  0  0
    6.5768   -3.6902    1.4284 O   0  0  0  0  0  0  0  0  0  0  0  0
    2.1787   -4.6712    3.9600 C   0  0  1  0  0  0  0  0  0  0  0  0
    3.6389   -4.6095    4.5577 C   0  0  0  0  0  0  0  0  0  0  0  0
    4.8779   -5.2750    3.6630 C   0  0  0  0  0  0  0  0  0  0  0  0
    4.7517   -6.6776    2.5818 C   0  0  1  0  0  0  0  0  0  0  0  0
    3.5803   -7.6351    1.5925 C   0  0  1  0  0  0  0  0  0  0  0  0
    4.2555   -8.8425    0.8853 C   0  0  0  0  0  0  0  0  0  0  0  0
    2.0100   -8.2279    2.1978 C   0  0  0  0  0  0  0  0  0  0  0  0
    0.8616   -7.4777    3.3030 C   0  0  0  0  0  0  0  0  0  0  0  0
    1.1268   -6.0356    4.3486 C   0  0  1  0  0  0  0  0  0  0  0  0
    1.5237   -6.5222    5.8709 C   0  0  1  0  0  0  0  0  0  0  0  0
    0.2423   -7.0360    6.5626 C   0  0  0  0  0  0  0  0  0  0  0  0
    2.7341   -7.5706    6.2482 C   0  0  0  0  0  0  0  0  0  0  0  0
    4.3562   -7.3464    6.1546 C   0  0  0  0  0  0  0  0  0  0  0  0
    5.1843   -7.7978    4.8460 C   0  0  1  0  0  0  0  0  0  0  0  0
    4.3689   -7.6418    3.6012 C   0  0  1  0  0  0  0  0  0  0  0  0
    3.2235   -6.8203    3.8369 O   0  0  0  0  0  0  0  0  0  0  0  0
    2.4916   -5.6532    3.0245 C   0  0  0  0  0  0  0  0  0  0  0  0
    2.0669   -5.5847    1.8459 O   0  0  0  0  0  0  0  0  0  0  0  0
    7.2566   -6.0278    6.0119 H   0  0  0  0  0  0  0  0  0  0  0  0
    8.6069   -7.0272    5.5048 H   0  0  0  0  0  0  0  0  0  0  0  0
    7.3886   -7.6914    6.5820 H   0  0  0  0  0  0  0  0  0  0  0  0
    7.1335   -8.5123    4.2804 H   0  0  0  0  0  0  0  0  0  0  0  0
    7.5297   -5.6641    3.4968 H   0  0  0  0  0  0  0  0  0  0  0  0
    8.0539   -7.1141    2.7746 H   0  0  0  0  0  0  0  0  0  0  0  0
    6.3510   -7.2958    1.3057 H   0  0  0  0  0  0  0  0  0  0  0  0
    7.1453   -5.2847    0.4808 H   0  0  0  0  0  0  0  0  0  0  0  0
    5.4142   -5.8077   -0.8638 H   0  0  0  0  0  0  0  0  0  0  0  0
    4.1682   -5.3664    0.1766 H   0  0  0  0  0  0  0  0  0  0  0  0
    5.8498   -3.0874   -0.8108 H   0  0  0  0  0  0  0  0  0  0  0  0
    4.9339   -3.9602   -1.9223 H   0  0  0  0  0  0  0  0  0  0  0  0
    2.6728   -1.0189   -1.4599 H   0  0  0  0  0  0  0  0  0  0  0  0
    3.9641   -1.7355   -2.5667 H   0  0  0  0  0  0  0  0  0  0  0  0
    2.0227   -3.1639    0.5600 H   0  0  0  0  0  0  0  0  0  0  0  0
    2.0016   -0.7707    0.9161 H   0  0  0  0  0  0  0  0  0  0  0  0
    1.2491   -3.5658    2.3578 H   0  0  0  0  0  0  0  0  0  0  0  0
    3.9648   -4.1662    1.7759 H   0  0  0  0  0  0  0  0  0  0  0  0
    5.1644   -2.7591    3.7518 H   0  0  0  0  0  0  0  0  0  0  0  0
    6.6415   -2.0209    2.3026 H   0  0  0  0  0  0  0  0  0  0  0  0
    6.1419   -0.4145    0.9895 H   0  0  0  0  0  0  0  0  0  0  0  0
    5.2262   -1.2139   -0.1010 H   0  0  0  0  0  0  0  0  0  0  0  0
    3.9174    0.4643    1.5865 H   0  0  0  0  0  0  0  0  0  0  0  0
    2.6960    0.0782    4.0027 H   0  0  0  0  0  0  0  0  0  0  0  0
    3.9579   -0.1001    5.1865 H   0  0  0  0  0  0  0  0  0  0  0  0
    3.0420   -1.4851    4.7584 H   0  0  0  0  0  0  0  0  0  0  0  0
    5.4770    0.9405    3.8257 H   0  0  0  0  0  0  0  0  0  0  0  0
    6.5965   -0.0640    2.9810 H   0  0  0  0  0  0  0  0  0  0  0  0
    6.1274   -0.4968    4.5890 H   0  0  0  0  0  0  0  0  0  0  0  0
    3.8179   -3.6054    4.9029 H   0  0  0  0  0  0  0  0  0  0  0  0
    3.5948   -5.0446    5.5364 H   0  0  0  0  0  0  0  0  0  0  0  0
    5.5390   -4.5818    3.2386 H   0  0  0  0  0  0  0  0  0  0  0  0
    5.5173   -5.4393    4.5100 H   0  0  0  0  0  0  0  0  0  0  0  0
    3.3277   -7.0767    0.7036 H   0  0  0  0  0  0  0  0  0  0  0  0
    4.7536   -9.5320    1.5710 H   0  0  0  0  0  0  0  0  0  0  0  0
    4.9892   -8.5181    0.1483 H   0  0  0  0  0  0  0  0  0  0  0  0
    3.5189   -9.4357    0.3414 H   0  0  0  0  0  0  0  0  0  0  0  0
    1.4332   -8.4692    1.3024 H   0  0  0  0  0  0  0  0  0  0  0  0
    2.1975   -9.2143    2.6250 H   0  0  0  0  0  0  0  0  0  0  0  0
   -0.0071   -7.2360    2.6859 H   0  0  0  0  0  0  0  0  0  0  0  0
    0.4917   -8.2813    3.9423 H   0  0  0  0  0  0  0  0  0  0  0  0
    0.1365   -5.5790    4.4310 H   0  0  0  0  0  0  0  0  0  0  0  0
    1.7323   -5.6091    6.4278 H   0  0  0  0  0  0  0  0  0  0  0  0
   -0.0960   -7.9889    6.1527 H   0  0  0  0  0  0  0  0  0  0  0  0
   -0.5723   -6.3179    6.4685 H   0  0  0  0  0  0  0  0  0  0  0  0
    0.3960   -7.1865    7.6329 H   0  0  0  0  0  0  0  0  0  0  0  0
    2.5816   -7.7796    7.3088 H   0  0  0  0  0  0  0  0  0  0  0  0
    2.5054   -8.5249    5.7720 H   0  0  0  0  0  0  0  0  0  0  0  0
    4.6756   -6.3816    6.5374 H   0  0  0  0  0  0  0  0  0  0  0  0
    4.7531   -7.9969    6.9339 H   0  0  0  0  0  0  0  0  0  0  0  0
    5.1857   -8.8771    5.0019 H   0  0  0  0  0  0  0  0  0  0  0  0
    4.1305   -8.6756    3.3403 H   0  0  0  0  0  0  0  0  0  0  0  0
  1  2  1  0
  1 42  1  0
  1 43  1  0
  1 44  1  0
  2 37  1  0
  2  3  1  0
  2 45  1  6
  3  4  1  0
  3 46  1  0
  3 47  1  0
  4 27  1  0
  4  5  1  0
  4 48  1  6
  5 23  1  0
  5  6  1  0
  5 49  1  6
  6  7  1  0
  6 50  1  0
  6 51  1  0
  7  8  1  0
  7 52  1  0
  7 53  1  0
  8 10  1  6
  8  9  1  0
  8 11  1  0
  9 10  1  0
  9 54  1  0
  9 55  1  0
 11 15  1  0
 11 12  1  0
 11 56  1  6
 12 19  1  0
 12 13  1  0
 12 57  1  6
 13 14  1  0
 14 15  1  0
 14 24  1  0
 14 58  1  6
 15 16  1  0
 15 59  1  6
 16 20  1  0
 16 17  1  0
 16 60  1  1
 17 18  1  0
 17 23  1  0
 17 61  1  1
 18 19  1  0
 18 62  1  0
 18 63  1  0
 19 20  1  0
 19 64  1  1
 20 21  1  0
 20 22  1  0
 21 65  1  0
 21 66  1  0
 21 67  1  0
 22 68  1  0
 22 69  1  0
 22 70  1  0
 24 32  1  0
 24 40  1  6
 24 25  1  0
 25 26  1  0
 25 71  1  0
 25 72  1  0
 27 26  1  1
 26 73  1  0
 26 74  1  0
 27 38  1  0
 27 28  1  0
 28 29  1  0
 28 30  1  0
 28 75  1  6
 29 76  1  0
 29 77  1  0
 29 78  1  0
 30 31  1  0
 30 79  1  0
 30 80  1  0
 31 32  1  0
 31 81  1  0
 31 82  1  0
 32 33  1  0
 32 83  1  1
 33 34  1  0
 33 35  1  0
 33 84  1  1
 34 85  1  0
 34 86  1  0
 34 87  1  0
 35 36  1  0
 35 88  1  0
 35 89  1  0
 36 37  1  0
 36 90  1  0
 36 91  1  0
 37 38  1  0
 37 92  1  1
 38 39  1  0
 38 93  1  6
 39 40  1  0
 40 41  2  0
M  END
>  <i_m_ct_stereo_status>  (195) 
1

>  <s_m_source_file>  (195) 
/var/tmp/pbs.5076255.sched01/tmpxnahmhzs/434e81vi2s.sdf

>  <i_m_source_file_index>  (195) 
38

>  <i_lp_mmshare_version>  (195) 
48012

>  <i_f3d_flags>  (195) 
0

>  <s_epik_input>  (195) 
W0NIM11bQ0BIXTFbQ0gyXVtDSDJdW0NAQEhdKFtDQEhdMk9DMz1PKVtDQEhdKFtDSDNdKVtDSDJdW0NASF0oW0NAQEhdKE80KVtDSDJdW0NIMl01KVtDQEBdMihbQ0gyXVtDSDJdNilbQ0BASF0oW0NIM10pW0NIMl1bQ0gyXVtDQEBIXTFbQ0BdMzZbQ0BASF0oTzcpW0NIXThbQ0BIXShDOShbQ0gzXSlbQ0gzXSlbQ0BASF00W0NIMl1bQ0BIXTlbQ0BIXTdbQ0BIXThbQ0BdMTVbQ0gyXU8x

>  <s_epik_cmdline>  (195) 
J2VwaWtfcHl0aG9uJywgJy1waHQnLCAnMi4wJywgJy1waCcsICc3LjAnLCAnLXRuJywgJzgnLCAnLW1hJywgJzIwMCcsICctaW1hZScsICc8aW5maWxlLm1hZT4nLCAnLW9tYWUnLCAnPG91dGZpbGUubWFlPic=

>  <r_lp_tautomer_probability>  (195) 
1

>  <r_epik_Ionization_Penalty>  (195) 
7.00227e-11

>  <r_epik_Ionization_Penalty_Charging>  (195) 
0

>  <r_epik_Ionization_Penalty_Neutral>  (195) 
7.00227e-11

>  <r_epik_State_Penalty>  (195) 
-0

>  <r_epik_Charging_Adjusted_Penalty>  (195) 
0

>  <i_epik_Tot_Q>  (195) 
0

>  <i_epik_Tot_abs_Q>  (195) 
0

>  <s_epik_Chemistry_Notes>  (195) 
This compound has an ester and may undergo hydrolysis at high or low pH.

>  <s_lp_Force_Field>  (195) 
OPLS3e

>  <r_lp_Energy>  (195) 
787.286

>  <b_lp_Chiralities_Consistent>  (195) 
1

>  <s_lp_Variant>  (195) 
59:0-3

>  <s_i_glide_gridfile>  (195) 
pfpi4k_grid

>  <i_i_glide_lignum>  (195) 
38

>  <i_i_glide_rotatable_bonds>  (195) 
0

>  <r_i_docking_score>  (195) 
-2.23518

>  <r_i_glide_ligand_efficiency>  (195) 
-0.0545165

>  <r_i_glide_ligand_efficiency_sa>  (195) 
-0.187985

>  <r_i_glide_ligand_efficiency_ln>  (195) 
-0.4742

>  <r_i_glide_gscore>  (195) 
-2.23518

>  <r_i_glide_lipo>  (195) 
-0.678724

>  <r_i_glide_hbond>  (195) 
0

>  <r_i_glide_metal>  (195) 
-0

>  <r_i_glide_rewards>  (195) 
0

>  <r_i_glide_evdw>  (195) 
-31.4707

>  <r_i_glide_ecoul>  (195) 
0.136865

>  <r_i_glide_erotb>  (195) 
0

>  <r_i_glide_esite>  (195) 
-0.00344609

>  <r_i_glide_emodel>  (195) 
-36.1357

>  <r_i_glide_energy>  (195) 
-31.3339

>  <r_i_glide_einternal>  (195) 
0

>  <r_i_glide_intrahb_reward>  (195) 
-0

>  <i_i_glide_confnum>  (195) 
1

>  <i_i_glide_posenum>  (195) 
12

>  <r_i_glide_eff_state_penalty>  (195) 
0

>  <ligand_id>  (195) 
59

>  <original_smiles>  (195) 
CC1CC2C3CCC4(CO4)C4C5OC(C4C4C(CC5C4(C)C)O3)C34CCC25C(C)CCC3C(C)CCC1C5OC4=O

>  <smiles>  (195) 
[H]C([H])([H])C1([H])C([H])([H])C2([H])C3([H])OC4([H])C([H])([H])C5([H])C6([H])OC([H])(C([H])(C6([H])C6(OC6([H])[H])C([H])([H])C3([H])[H])C4([H])C5(C([H])([H])[H])C([H])([H])[H])C34C(=O)OC5([H])C1([H])C([H])([H])C([H])([H])C([H])(C([H])([H])[H])C3([H])C([H])([H])C([H])([H])C([H])(C([H])([H])[H])C52C([H])([H])C4([H])[H]

$$$$
59:2:1
     RDKit          3D

 93102  0  0  1  0  0  0  0  0999 V2000
    6.0795   -4.7291    8.0667 C   0  0  0  0  0  0  0  0  0  0  0  0
    4.5999   -4.3118    7.9310 C   0  0  2  0  0  0  0  0  0  0  0  0
    3.6604   -5.6402    7.8632 C   0  0  0  0  0  0  0  0  0  0  0  0
    2.2364   -5.5974    7.1516 C   0  0  2  0  0  0  0  0  0  0  0  0
    1.6059   -6.9832    6.4529 C   0  0  1  0  0  0  0  0  0  0  0  0
    0.2058   -6.7892    5.7876 C   0  0  0  0  0  0  0  0  0  0  0  0
   -0.3039   -7.9223    4.8689 C   0  0  0  0  0  0  0  0  0  0  0  0
   -0.3344   -7.7063    3.2944 C   0  0  1  0  0  0  0  0  0  0  0  0
   -1.3041   -8.5855    2.5150 C   0  0  0  0  0  0  0  0  0  0  0  0
   -1.6544   -7.2631    2.8777 O   0  0  0  0  0  0  0  0  0  0  0  0
    0.7961   -6.9850    2.5285 C   0  0  2  0  0  0  0  0  0  0  0  0
    1.5726   -7.5684    1.3606 C   0  0  1  0  0  0  0  0  0  0  0  0
    2.4236   -6.3609    1.0092 O   0  0  0  0  0  0  0  0  0  0  0  0
    2.3713   -5.3347    2.0574 C   0  0  1  0  0  0  0  0  0  0  0  0
    2.0970   -6.4832    3.1131 C   0  0  2  0  0  0  0  0  0  0  0  0
    3.2992   -7.5568    3.3862 C   0  0  1  0  0  0  0  0  0  0  0  0
    2.6838   -8.5123    4.3860 C   0  0  2  0  0  0  0  0  0  0  0  0
    1.9729   -9.4518    3.3108 C   0  0  0  0  0  0  0  0  0  0  0  0
    2.3764   -8.8715    1.8655 C   0  0  2  0  0  0  0  0  0  0  0  0
    3.7955   -8.4331    2.1898 C   0  0  0  0  0  0  0  0  0  0  0  0
    4.6310   -7.7215    1.0791 C   0  0  0  0  0  0  0  0  0  0  0  0
    4.7603   -9.6171    2.5653 C   0  0  0  0  0  0  0  0  0  0  0  0
    2.3565   -8.1069    5.7982 O   0  0  0  0  0  0  0  0  0  0  0  0
    3.1727   -4.0161    2.7364 C   0  0  1  0  0  0  0  0  0  0  0  0
    4.1915   -4.7038    3.7128 C   0  0  0  0  0  0  0  0  0  0  0  0
    3.6299   -5.2059    5.2012 C   0  0  0  0  0  0  0  0  0  0  0  0
    2.3467   -4.4398    6.1433 C   0  0  1  0  0  0  0  0  0  0  0  0
    0.8958   -3.3685    6.0002 C   0  0  1  0  0  0  0  0  0  0  0  0
    0.2294   -3.0856    7.3779 C   0  0  0  0  0  0  0  0  0  0  0  0
    0.8656   -1.8304    5.1037 C   0  0  0  0  0  0  0  0  0  0  0  0
    1.6687   -1.3822    3.6030 C   0  0  0  0  0  0  0  0  0  0  0  0
    2.9775   -2.2772    2.7479 C   0  0  1  0  0  0  0  0  0  0  0  0
    4.4388   -1.6298    3.1500 C   0  0  1  0  0  0  0  0  0  0  0  0
    4.6041   -0.2852    2.4065 C   0  0  0  0  0  0  0  0  0  0  0  0
    4.9779   -1.4048    4.6883 C   0  0  0  0  0  0  0  0  0  0  0  0
    5.4365   -2.5358    5.7865 C   0  0  0  0  0  0  0  0  0  0  0  0
    4.4036   -3.1009    6.8825 C   0  0  1  0  0  0  0  0  0  0  0  0
    3.0112   -3.1553    6.3295 C   0  0  1  0  0  0  0  0  0  0  0  0
    3.0199   -3.0565    4.9076 O   0  0  0  0  0  0  0  0  0  0  0  0
    2.2413   -3.7639    3.7253 C   0  0  0  0  0  0  0  0  0  0  0  0
    1.0227   -3.9839    3.5314 O   0  0  0  0  0  0  0  0  0  0  0  0
    6.4403   -5.2360    7.1701 H   0  0  0  0  0  0  0  0  0  0  0  0
    6.2128   -5.4226    8.9012 H   0  0  0  0  0  0  0  0  0  0  0  0
    6.7296   -3.8726    8.2532 H   0  0  0  0  0  0  0  0  0  0  0  0
    4.3577   -3.8677    8.8904 H   0  0  0  0  0  0  0  0  0  0  0  0
    4.2272   -6.4855    7.4983 H   0  0  0  0  0  0  0  0  0  0  0  0
    3.4768   -5.9407    8.9066 H   0  0  0  0  0  0  0  0  0  0  0  0
    1.5392   -5.3092    7.9277 H   0  0  0  0  0  0  0  0  0  0  0  0
    1.3636   -7.5439    7.3597 H   0  0  0  0  0  0  0  0  0  0  0  0
   -0.5081   -6.6422    6.5965 H   0  0  0  0  0  0  0  0  0  0  0  0
    0.1299   -5.8811    5.2141 H   0  0  0  0  0  0  0  0  0  0  0  0
    0.1285   -8.8812    5.1429 H   0  0  0  0  0  0  0  0  0  0  0  0
   -1.3466   -8.0820    5.1482 H   0  0  0  0  0  0  0  0  0  0  0  0
   -1.1145   -8.7376    1.4620 H   0  0  0  0  0  0  0  0  0  0  0  0
   -1.8486   -9.3705    3.0338 H   0  0  0  0  0  0  0  0  0  0  0  0
    0.2017   -6.1738    2.1121 H   0  0  0  0  0  0  0  0  0  0  0  0
    0.9151   -7.8045    0.5219 H   0  0  0  0  0  0  0  0  0  0  0  0
    1.5480   -4.8468    1.5406 H   0  0  0  0  0  0  0  0  0  0  0  0
    1.7762   -6.1486    4.0601 H   0  0  0  0  0  0  0  0  0  0  0  0
    4.2419   -7.2393    3.7973 H   0  0  0  0  0  0  0  0  0  0  0  0
    3.5109   -9.1375    4.7152 H   0  0  0  0  0  0  0  0  0  0  0  0
    2.3556  -10.4680    3.4270 H   0  0  0  0  0  0  0  0  0  0  0  0
    0.9254   -9.6886    3.4091 H   0  0  0  0  0  0  0  0  0  0  0  0
    2.3700   -9.6553    1.1046 H   0  0  0  0  0  0  0  0  0  0  0  0
    4.2151   -7.8802    0.0852 H   0  0  0  0  0  0  0  0  0  0  0  0
    5.6597   -8.0767    1.0159 H   0  0  0  0  0  0  0  0  0  0  0  0
    4.7315   -6.6517    1.2479 H   0  0  0  0  0  0  0  0  0  0  0  0
    5.0260  -10.1946    1.6760 H   0  0  0  0  0  0  0  0  0  0  0  0
    4.4063  -10.3645    3.2695 H   0  0  0  0  0  0  0  0  0  0  0  0
    5.6903   -9.2355    2.9913 H   0  0  0  0  0  0  0  0  0  0  0  0
    4.7494   -5.4543    3.1652 H   0  0  0  0  0  0  0  0  0  0  0  0
    5.0233   -4.0407    3.8267 H   0  0  0  0  0  0  0  0  0  0  0  0
    3.5655   -6.2501    5.3206 H   0  0  0  0  0  0  0  0  0  0  0  0
    4.5971   -5.1780    5.6762 H   0  0  0  0  0  0  0  0  0  0  0  0
    0.0646   -3.9339    5.5790 H   0  0  0  0  0  0  0  0  0  0  0  0
    0.9066   -2.6289    8.0995 H   0  0  0  0  0  0  0  0  0  0  0  0
   -0.1773   -3.9932    7.8288 H   0  0  0  0  0  0  0  0  0  0  0  0
   -0.6129   -2.4028    7.2535 H   0  0  0  0  0  0  0  0  0  0  0  0
   -0.1936   -1.6114    4.9355 H   0  0  0  0  0  0  0  0  0  0  0  0
    1.1577   -1.0559    5.8135 H   0  0  0  0  0  0  0  0  0  0  0  0
    0.8677   -1.2636    2.8673 H   0  0  0  0  0  0  0  0  0  0  0  0
    2.0164   -0.3509    3.7442 H   0  0  0  0  0  0  0  0  0  0  0  0
    2.8233   -2.0143    1.6901 H   0  0  0  0  0  0  0  0  0  0  0  0
    5.1847   -2.2549    2.6542 H   0  0  0  0  0  0  0  0  0  0  0  0
    3.9588    0.4915    2.8167 H   0  0  0  0  0  0  0  0  0  0  0  0
    4.3803   -0.3691    1.3423 H   0  0  0  0  0  0  0  0  0  0  0  0
    5.6294    0.0832    2.4758 H   0  0  0  0  0  0  0  0  0  0  0  0
    5.8736   -0.7968    4.5667 H   0  0  0  0  0  0  0  0  0  0  0  0
    4.2948   -0.7198    5.1856 H   0  0  0  0  0  0  0  0  0  0  0  0
    6.0586   -3.3190    5.3660 H   0  0  0  0  0  0  0  0  0  0  0  0
    6.1828   -2.0213    6.3974 H   0  0  0  0  0  0  0  0  0  0  0  0
    4.3629   -2.2390    7.5539 H   0  0  0  0  0  0  0  0  0  0  0  0
    2.5173   -2.3369    6.8470 H   0  0  0  0  0  0  0  0  0  0  0  0
  1  2  1  0
  1 42  1  0
  1 43  1  0
  1 44  1  0
  2 37  1  0
  2  3  1  0
  2 45  1  1
  3  4  1  0
  3 46  1  0
  3 47  1  0
  4 27  1  0
  4  5  1  0
  4 48  1  1
  5 23  1  0
  5  6  1  0
  5 49  1  1
  6  7  1  0
  6 50  1  0
  6 51  1  0
  7  8  1  0
  7 52  1  0
  7 53  1  0
  8 10  1  1
  8  9  1  0
  8 11  1  0
  9 10  1  0
  9 54  1  0
  9 55  1  0
 11 15  1  0
 11 12  1  0
 11 56  1  6
 12 19  1  0
 12 13  1  0
 12 57  1  6
 13 14  1  0
 14 15  1  0
 14 24  1  0
 14 58  1  6
 15 16  1  0
 15 59  1  1
 16 20  1  0
 16 17  1  0
 16 60  1  1
 17 18  1  0
 17 23  1  0
 17 61  1  1
 18 19  1  0
 18 62  1  0
 18 63  1  0
 19 20  1  0
 19 64  1  6
 20 21  1  0
 20 22  1  0
 21 65  1  0
 21 66  1  0
 21 67  1  0
 22 68  1  0
 22 69  1  0
 22 70  1  0
 24 32  1  0
 24 40  1  1
 24 25  1  0
 25 26  1  0
 25 71  1  0
 25 72  1  0
 27 26  1  6
 26 73  1  0
 26 74  1  0
 27 38  1  0
 27 28  1  0
 28 29  1  0
 28 30  1  0
 28 75  1  6
 29 76  1  0
 29 77  1  0
 29 78  1  0
 30 31  1  0
 30 79  1  0
 30 80  1  0
 31 32  1  0
 31 81  1  0
 31 82  1  0
 32 33  1  0
 32 83  1  6
 33 34  1  0
 33 35  1  0
 33 84  1  6
 34 85  1  0
 34 86  1  0
 34 87  1  0
 35 36  1  0
 35 88  1  0
 35 89  1  0
 36 37  1  0
 36 90  1  0
 36 91  1  0
 37 38  1  0
 37 92  1  1
 38 39  1  0
 38 93  1  1
 39 40  1  0
 40 41  2  0
M  END
>  <i_m_ct_stereo_status>  (196) 
1

>  <s_m_source_file>  (196) 
/var/tmp/pbs.5076255.sched01/tmpxnahmhzs/434e81vi2s.sdf

>  <i_m_source_file_index>  (196) 
38

>  <i_lp_mmshare_version>  (196) 
48012

>  <i_f3d_flags>  (196) 
0

>  <s_epik_input>  (196) 
W0NIM11bQ0BIXTFbQ0gyXVtDSDJdW0NAQEhdKFtDQEhdMk9DMz1PKVtDQEhdKFtDSDNdKVtDSDJdW0NASF0oW0NAQEhdKE80KVtDSDJdW0NIMl01KVtDQEBdMihbQ0gyXVtDSDJdNilbQ0BASF0oW0NIM10pW0NIMl1bQ0gyXVtDQEBIXTFbQ0BdMzZbQ0BASF0oTzcpW0NIXThbQ0BIXShDOShbQ0gzXSlbQ0gzXSlbQ0BASF00W0NIMl1bQ0BIXTlbQ0BIXTdbQ0BIXThbQ0BdMTVbQ0gyXU8x

>  <s_epik_cmdline>  (196) 
J2VwaWtfcHl0aG9uJywgJy1waHQnLCAnMi4wJywgJy1waCcsICc3LjAnLCAnLXRuJywgJzgnLCAnLW1hJywgJzIwMCcsICctaW1hZScsICc8aW5maWxlLm1hZT4nLCAnLW9tYWUnLCAnPG91dGZpbGUubWFlPic=

>  <r_lp_tautomer_probability>  (196) 
1

>  <r_epik_Ionization_Penalty>  (196) 
7.00227e-11

>  <r_epik_Ionization_Penalty_Charging>  (196) 
0

>  <r_epik_Ionization_Penalty_Neutral>  (196) 
7.00227e-11

>  <r_epik_State_Penalty>  (196) 
-0

>  <r_epik_Charging_Adjusted_Penalty>  (196) 
0

>  <i_epik_Tot_Q>  (196) 
0

>  <i_epik_Tot_abs_Q>  (196) 
0

>  <s_epik_Chemistry_Notes>  (196) 
This compound has an ester and may undergo hydrolysis at high or low pH.

>  <s_lp_Force_Field>  (196) 
OPLS3e

>  <r_lp_Energy>  (196) 
787.286

>  <b_lp_Chiralities_Consistent>  (196) 
1

>  <s_lp_Variant>  (196) 
59:0-3

>  <s_i_glide_gridfile>  (196) 
pfpi4k_grid

>  <i_i_glide_lignum>  (196) 
38

>  <i_i_glide_rotatable_bonds>  (196) 
0

>  <r_i_docking_score>  (196) 
-2.01628

>  <r_i_glide_ligand_efficiency>  (196) 
-0.0491776

>  <r_i_glide_ligand_efficiency_sa>  (196) 
-0.169575

>  <r_i_glide_ligand_efficiency_ln>  (196) 
-0.427761

>  <r_i_glide_gscore>  (196) 
-2.01628

>  <r_i_glide_lipo>  (196) 
-0.260037

>  <r_i_glide_hbond>  (196) 
-0.120423

>  <r_i_glide_metal>  (196) 
-0

>  <r_i_glide_rewards>  (196) 
-0.00193332

>  <r_i_glide_evdw>  (196) 
-32.5733

>  <r_i_glide_ecoul>  (196) 
-0.0348218

>  <r_i_glide_erotb>  (196) 
0

>  <r_i_glide_esite>  (196) 
0

>  <r_i_glide_emodel>  (196) 
-36.9271

>  <r_i_glide_energy>  (196) 
-32.6081

>  <r_i_glide_einternal>  (196) 
0

>  <r_i_glide_intrahb_reward>  (196) 
-0

>  <i_i_glide_confnum>  (196) 
1

>  <i_i_glide_posenum>  (196) 
1

>  <r_i_glide_eff_state_penalty>  (196) 
0

>  <ligand_id>  (196) 
59

>  <original_smiles>  (196) 
CC1CC2C3CCC4(CO4)C4C5OC(C4C4C(CC5C4(C)C)O3)C34CCC25C(C)CCC3C(C)CCC1C5OC4=O

>  <smiles>  (196) 
[H]C([H])([H])C1([H])C([H])([H])C2([H])C3([H])OC4([H])C([H])([H])C5([H])C6([H])OC([H])(C([H])(C6([H])C6(OC6([H])[H])C([H])([H])C3([H])[H])C4([H])C5(C([H])([H])[H])C([H])([H])[H])C34C(=O)OC5([H])C1([H])C([H])([H])C([H])([H])C([H])(C([H])([H])[H])C3([H])C([H])([H])C([H])([H])C([H])(C([H])([H])[H])C52C([H])([H])C4([H])[H]

$$$$
59:2:2
     RDKit          3D

 93102  0  0  1  0  0  0  0  0999 V2000
    6.3073   -5.2048    8.1547 C   0  0  0  0  0  0  0  0  0  0  0  0
    4.7863   -4.9550    8.2476 C   0  0  2  0  0  0  0  0  0  0  0  0
    3.9889   -6.3582    8.0248 C   0  0  0  0  0  0  0  0  0  0  0  0
    2.4907   -6.3703    7.4813 C   0  0  2  0  0  0  0  0  0  0  0  0
    1.9296   -7.6844    6.6041 C   0  0  1  0  0  0  0  0  0  0  0  0
    0.4452   -7.5579    6.1326 C   0  0  0  0  0  0  0  0  0  0  0  0
   -0.0508   -8.5622    5.0699 C   0  0  0  0  0  0  0  0  0  0  0  0
   -0.2939   -8.0803    3.5711 C   0  0  1  0  0  0  0  0  0  0  0  0
   -1.2497   -8.9287    2.7438 C   0  0  0  0  0  0  0  0  0  0  0  0
   -1.6941   -7.7384    3.3642 O   0  0  0  0  0  0  0  0  0  0  0  0
    0.6602   -7.1089    2.8429 C   0  0  2  0  0  0  0  0  0  0  0  0
    1.3462   -7.3877    1.5147 C   0  0  1  0  0  0  0  0  0  0  0  0
    2.0103   -6.0356    1.3088 O   0  0  0  0  0  0  0  0  0  0  0  0
    1.9844   -5.2213    2.5363 C   0  0  1  0  0  0  0  0  0  0  0  0
    1.9595   -6.5583    3.3836 C   0  0  2  0  0  0  0  0  0  0  0  0
    3.2925   -7.5033    3.3315 C   0  0  1  0  0  0  0  0  0  0  0  0
    2.9055   -8.6865    4.1930 C   0  0  2  0  0  0  0  0  0  0  0  0
    2.1727   -9.5059    3.0388 C   0  0  0  0  0  0  0  0  0  0  0  0
    2.3406   -8.6416    1.6938 C   0  0  2  0  0  0  0  0  0  0  0  0
    3.7333   -8.0896    1.9504 C   0  0  0  0  0  0  0  0  0  0  0  0
    4.3577   -7.0911    0.9235 C   0  0  0  0  0  0  0  0  0  0  0  0
    4.8531   -9.1931    2.0006 C   0  0  0  0  0  0  0  0  0  0  0  0
    2.7099   -8.5752    5.6808 O   0  0  0  0  0  0  0  0  0  0  0  0
    2.7184   -3.9478    3.3673 C   0  0  1  0  0  0  0  0  0  0  0  0
    3.9135   -4.6593    4.0906 C   0  0  0  0  0  0  0  0  0  0  0  0
    3.5898   -5.4763    5.5066 C   0  0  0  0  0  0  0  0  0  0  0  0
    2.3590   -5.0505    6.6985 C   0  0  1  0  0  0  0  0  0  0  0  0
    0.7984   -4.1583    6.9023 C   0  0  1  0  0  0  0  0  0  0  0  0
    0.2749   -4.2047    8.3688 C   0  0  0  0  0  0  0  0  0  0  0  0
    0.5010   -2.5060    6.3155 C   0  0  0  0  0  0  0  0  0  0  0  0
    1.0670   -1.7083    4.8517 C   0  0  0  0  0  0  0  0  0  0  0  0
    2.3505   -2.2733    3.7192 C   0  0  1  0  0  0  0  0  0  0  0  0
    3.7753   -1.5254    4.0855 C   0  0  1  0  0  0  0  0  0  0  0  0
    3.7068   -0.0573    3.5963 C   0  0  0  0  0  0  0  0  0  0  0  0
    4.4836   -1.5108    5.5719 C   0  0  0  0  0  0  0  0  0  0  0  0
    5.1812   -2.7481    6.3925 C   0  0  0  0  0  0  0  0  0  0  0  0
    4.3444   -3.6166    7.4613 C   0  0  1  0  0  0  0  0  0  0  0  0
    2.9056   -3.7446    7.0516 C   0  0  1  0  0  0  0  0  0  0  0  0
    2.7317   -3.4046    5.6793 O   0  0  0  0  0  0  0  0  0  0  0  0
    1.8866   -3.9890    4.4704 C   0  0  0  0  0  0  0  0  0  0  0  0
    0.6819   -4.3132    4.3568 O   0  0  0  0  0  0  0  0  0  0  0  0
    6.6097   -5.5002    7.1488 H   0  0  0  0  0  0  0  0  0  0  0  0
    6.6115   -6.0096    8.8289 H   0  0  0  0  0  0  0  0  0  0  0  0
    6.8826   -4.3197    8.4316 H   0  0  0  0  0  0  0  0  0  0  0  0
    4.6178   -4.7160    9.2918 H   0  0  0  0  0  0  0  0  0  0  0  0
    4.5926   -7.0522    7.4581 H   0  0  0  0  0  0  0  0  0  0  0  0
    3.9645   -6.8551    9.0077 H   0  0  0  0  0  0  0  0  0  0  0  0
    1.8652   -6.3113    8.3628 H   0  0  0  0  0  0  0  0  0  0  0  0
    1.8604   -8.4201    7.4103 H   0  0  0  0  0  0  0  0  0  0  0  0
   -0.1767   -7.6562    7.0213 H   0  0  0  0  0  0  0  0  0  0  0  0
    0.2056   -6.5793    5.7518 H   0  0  0  0  0  0  0  0  0  0  0  0
    0.5086   -9.4940    5.1155 H   0  0  0  0  0  0  0  0  0  0  0  0
   -1.0292   -8.8979    5.4231 H   0  0  0  0  0  0  0  0  0  0  0  0
   -1.1579   -8.8867    1.6709 H   0  0  0  0  0  0  0  0  0  0  0  0
   -1.6434   -9.8520    3.1637 H   0  0  0  0  0  0  0  0  0  0  0  0
   -0.0617   -6.3191    2.6491 H   0  0  0  0  0  0  0  0  0  0  0  0
    0.6251   -7.5743    0.7140 H   0  0  0  0  0  0  0  0  0  0  0  0
    1.0565   -4.7581    2.2120 H   0  0  0  0  0  0  0  0  0  0  0  0
    1.7193   -6.4327    4.4023 H   0  0  0  0  0  0  0  0  0  0  0  0
    4.2392   -7.1464    3.6990 H   0  0  0  0  0  0  0  0  0  0  0  0
    3.8269   -9.2518    4.3145 H   0  0  0  0  0  0  0  0  0  0  0  0
    2.6683  -10.4723    2.9250 H   0  0  0  0  0  0  0  0  0  0  0  0
    1.1735   -9.8816    3.1937 H   0  0  0  0  0  0  0  0  0  0  0  0
    2.3232   -9.2888    0.8166 H   0  0  0  0  0  0  0  0  0  0  0  0
    3.8533   -7.1087   -0.0377 H   0  0  0  0  0  0  0  0  0  0  0  0
    5.4007   -7.3022    0.6921 H   0  0  0  0  0  0  0  0  0  0  0  0
    4.3619   -6.0646    1.2796 H   0  0  0  0  0  0  0  0  0  0  0  0
    5.0697   -9.5713    0.9984 H   0  0  0  0  0  0  0  0  0  0  0  0
    4.6649  -10.0899    2.5849 H   0  0  0  0  0  0  0  0  0  0  0  0
    5.7831   -8.7800    2.3964 H   0  0  0  0  0  0  0  0  0  0  0  0
    4.4780   -5.2296    3.3626 H   0  0  0  0  0  0  0  0  0  0  0  0
    4.6795   -3.9280    4.2436 H   0  0  0  0  0  0  0  0  0  0  0  0
    3.6500   -6.5250    5.4383 H   0  0  0  0  0  0  0  0  0  0  0  0
    4.5983   -5.4123    5.8805 H   0  0  0  0  0  0  0  0  0  0  0  0
   -0.0126   -4.7439    6.4686 H   0  0  0  0  0  0  0  0  0  0  0  0
    0.9822   -3.7989    9.0921 H   0  0  0  0  0  0  0  0  0  0  0  0
    0.0250   -5.2201    8.6823 H   0  0  0  0  0  0  0  0  0  0  0  0
   -0.6482   -3.6281    8.4665 H   0  0  0  0  0  0  0  0  0  0  0  0
   -0.5886   -2.3953    6.2968 H   0  0  0  0  0  0  0  0  0  0  0  0
    0.7938   -1.8359    7.1250 H   0  0  0  0  0  0  0  0  0  0  0  0
    0.1760   -1.5642    4.2348 H   0  0  0  0  0  0  0  0  0  0  0  0
    1.3199   -0.6832    5.1459 H   0  0  0  0  0  0  0  0  0  0  0  0
    2.0443   -1.8532    2.7499 H   0  0  0  0  0  0  0  0  0  0  0  0
    4.5133   -1.9580    3.4062 H   0  0  0  0  0  0  0  0  0  0  0  0
    3.0360    0.5489    4.2052 H   0  0  0  0  0  0  0  0  0  0  0  0
    3.3673    0.0152    2.5621 H   0  0  0  0  0  0  0  0  0  0  0  0
    4.6871    0.4225    3.6281 H   0  0  0  0  0  0  0  0  0  0  0  0
    5.3054   -0.7990    5.4672 H   0  0  0  0  0  0  0  0  0  0  0  0
    3.8025   -1.0070    6.2550 H   0  0  0  0  0  0  0  0  0  0  0  0
    5.8255   -3.3631    5.7747 H   0  0  0  0  0  0  0  0  0  0  0  0
    5.9340   -2.2573    7.0143 H   0  0  0  0  0  0  0  0  0  0  0  0
    4.2938   -2.8958    8.2821 H   0  0  0  0  0  0  0  0  0  0  0  0
    2.3946   -3.0988    7.7606 H   0  0  0  0  0  0  0  0  0  0  0  0
  1  2  1  0
  1 42  1  0
  1 43  1  0
  1 44  1  0
  2 37  1  0
  2  3  1  0
  2 45  1  1
  3  4  1  0
  3 46  1  0
  3 47  1  0
  4 27  1  0
  4  5  1  0
  4 48  1  1
  5 23  1  0
  5  6  1  0
  5 49  1  1
  6  7  1  0
  6 50  1  0
  6 51  1  0
  7  8  1  0
  7 52  1  0
  7 53  1  0
  8 10  1  1
  8  9  1  0
  8 11  1  0
  9 10  1  0
  9 54  1  0
  9 55  1  0
 11 15  1  0
 11 12  1  0
 11 56  1  6
 12 19  1  0
 12 13  1  0
 12 57  1  6
 13 14  1  0
 14 15  1  0
 14 24  1  0
 14 58  1  6
 15 16  1  0
 15 59  1  1
 16 20  1  0
 16 17  1  0
 16 60  1  1
 17 18  1  0
 17 23  1  0
 17 61  1  1
 18 19  1  0
 18 62  1  0
 18 63  1  0
 19 20  1  0
 19 64  1  6
 20 21  1  0
 20 22  1  0
 21 65  1  0
 21 66  1  0
 21 67  1  0
 22 68  1  0
 22 69  1  0
 22 70  1  0
 24 32  1  0
 24 40  1  1
 24 25  1  0
 25 26  1  0
 25 71  1  0
 25 72  1  0
 27 26  1  6
 26 73  1  0
 26 74  1  0
 27 38  1  0
 27 28  1  0
 28 29  1  0
 28 30  1  0
 28 75  1  6
 29 76  1  0
 29 77  1  0
 29 78  1  0
 30 31  1  0
 30 79  1  0
 30 80  1  0
 31 32  1  0
 31 81  1  0
 31 82  1  0
 32 33  1  0
 32 83  1  6
 33 34  1  0
 33 35  1  0
 33 84  1  6
 34 85  1  0
 34 86  1  0
 34 87  1  0
 35 36  1  0
 35 88  1  0
 35 89  1  0
 36 37  1  0
 36 90  1  0
 36 91  1  0
 37 38  1  0
 37 92  1  1
 38 39  1  0
 38 93  1  1
 39 40  1  0
 40 41  2  0
M  END
>  <i_m_ct_stereo_status>  (197) 
1

>  <s_m_source_file>  (197) 
/var/tmp/pbs.5076255.sched01/tmpxnahmhzs/434e81vi2s.sdf

>  <i_m_source_file_index>  (197) 
38

>  <i_lp_mmshare_version>  (197) 
48012

>  <i_f3d_flags>  (197) 
0

>  <s_epik_input>  (197) 
W0NIM11bQ0BIXTFbQ0gyXVtDSDJdW0NAQEhdKFtDQEhdMk9DMz1PKVtDQEhdKFtDSDNdKVtDSDJdW0NASF0oW0NAQEhdKE80KVtDSDJdW0NIMl01KVtDQEBdMihbQ0gyXVtDSDJdNilbQ0BASF0oW0NIM10pW0NIMl1bQ0gyXVtDQEBIXTFbQ0BdMzZbQ0BASF0oTzcpW0NIXThbQ0BIXShDOShbQ0gzXSlbQ0gzXSlbQ0BASF00W0NIMl1bQ0BIXTlbQ0BIXTdbQ0BIXThbQ0BdMTVbQ0gyXU8x

>  <s_epik_cmdline>  (197) 
J2VwaWtfcHl0aG9uJywgJy1waHQnLCAnMi4wJywgJy1waCcsICc3LjAnLCAnLXRuJywgJzgnLCAnLW1hJywgJzIwMCcsICctaW1hZScsICc8aW5maWxlLm1hZT4nLCAnLW9tYWUnLCAnPG91dGZpbGUubWFlPic=

>  <r_lp_tautomer_probability>  (197) 
1

>  <r_epik_Ionization_Penalty>  (197) 
7.00227e-11

>  <r_epik_Ionization_Penalty_Charging>  (197) 
0

>  <r_epik_Ionization_Penalty_Neutral>  (197) 
7.00227e-11

>  <r_epik_State_Penalty>  (197) 
-0

>  <r_epik_Charging_Adjusted_Penalty>  (197) 
0

>  <i_epik_Tot_Q>  (197) 
0

>  <i_epik_Tot_abs_Q>  (197) 
0

>  <s_epik_Chemistry_Notes>  (197) 
This compound has an ester and may undergo hydrolysis at high or low pH.

>  <s_lp_Force_Field>  (197) 
OPLS3e

>  <r_lp_Energy>  (197) 
787.286

>  <b_lp_Chiralities_Consistent>  (197) 
1

>  <s_lp_Variant>  (197) 
59:0-3

>  <s_i_glide_gridfile>  (197) 
pfpi4k_grid

>  <i_i_glide_lignum>  (197) 
38

>  <i_i_glide_rotatable_bonds>  (197) 
0

>  <r_i_docking_score>  (197) 
-1.84397

>  <r_i_glide_ligand_efficiency>  (197) 
-0.0449748

>  <r_i_glide_ligand_efficiency_sa>  (197) 
-0.155083

>  <r_i_glide_ligand_efficiency_ln>  (197) 
-0.391204

>  <r_i_glide_gscore>  (197) 
-1.84397

>  <r_i_glide_lipo>  (197) 
-0.139421

>  <r_i_glide_hbond>  (197) 
0

>  <r_i_glide_metal>  (197) 
-0

>  <r_i_glide_rewards>  (197) 
-0.00368792

>  <r_i_glide_evdw>  (197) 
-32.268

>  <r_i_glide_ecoul>  (197) 
-0.583065

>  <r_i_glide_erotb>  (197) 
0

>  <r_i_glide_esite>  (197) 
0

>  <r_i_glide_emodel>  (197) 
-36.7704

>  <r_i_glide_energy>  (197) 
-32.8511

>  <r_i_glide_einternal>  (197) 
0

>  <r_i_glide_intrahb_reward>  (197) 
-0

>  <i_i_glide_confnum>  (197) 
1

>  <i_i_glide_posenum>  (197) 
25

>  <r_i_glide_eff_state_penalty>  (197) 
0

>  <ligand_id>  (197) 
59

>  <original_smiles>  (197) 
CC1CC2C3CCC4(CO4)C4C5OC(C4C4C(CC5C4(C)C)O3)C34CCC25C(C)CCC3C(C)CCC1C5OC4=O

>  <smiles>  (197) 
[H]C([H])([H])C1([H])C([H])([H])C2([H])C3([H])OC4([H])C([H])([H])C5([H])C6([H])OC([H])(C([H])(C6([H])C6(OC6([H])[H])C([H])([H])C3([H])[H])C4([H])C5(C([H])([H])[H])C([H])([H])[H])C34C(=O)OC5([H])C1([H])C([H])([H])C([H])([H])C([H])(C([H])([H])[H])C3([H])C([H])([H])C([H])([H])C([H])(C([H])([H])[H])C52C([H])([H])C4([H])[H]

$$$$
59:3:0
     RDKit          3D

 93102  0  0  1  0  0  0  0  0999 V2000
    4.2383  -12.5211    5.1191 C   0  0  0  0  0  0  0  0  0  0  0  0
    4.5845  -11.2681    4.2914 C   0  0  2  0  0  0  0  0  0  0  0  0
    5.5377  -10.2777    5.1674 C   0  0  0  0  0  0  0  0  0  0  0  0
    5.5965   -8.7175    4.8583 C   0  0  2  0  0  0  0  0  0  0  0  0
    5.8636   -7.6008    6.0744 C   0  0  0  0  0  0  0  0  0  0  0  0
    6.4080   -6.1955    5.7298 C   0  0  0  0  0  0  0  0  0  0  0  0
    6.0476   -5.0604    6.7621 C   0  0  0  0  0  0  0  0  0  0  0  0
    4.6727   -4.2449    6.8521 C   0  0  1  0  0  0  0  0  0  0  0  0
    4.8077   -2.8202    7.3627 C   0  0  0  0  0  0  0  0  0  0  0  0
    4.7129   -3.0995    5.9716 O   0  0  0  0  0  0  0  0  0  0  0  0
    3.1998   -4.8241    7.0096 C   0  0  2  0  0  0  0  0  0  0  0  0
    2.2501   -4.7461    8.1938 C   0  0  1  0  0  0  0  0  0  0  0  0
    1.0337   -5.4296    7.5625 O   0  0  0  0  0  0  0  0  0  0  0  0
    1.3463   -6.0763    6.2732 C   0  0  1  0  0  0  0  0  0  0  0  0
    2.8023   -6.2486    6.8389 C   0  0  2  0  0  0  0  0  0  0  0  0
    3.0842   -7.2754    8.1032 C   0  0  1  0  0  0  0  0  0  0  0  0
    4.5791   -7.1767    8.4293 C   0  0  2  0  0  0  0  0  0  0  0  0
    4.4579   -5.8611    9.3359 C   0  0  0  0  0  0  0  0  0  0  0  0
    2.8926   -5.5223    9.4478 C   0  0  2  0  0  0  0  0  0  0  0  0
    2.3466   -6.9413    9.4490 C   0  0  0  0  0  0  0  0  0  0  0  0
    0.7974   -7.1428    9.4826 C   0  0  0  0  0  0  0  0  0  0  0  0
    2.7759   -7.7697   10.7140 C   0  0  0  0  0  0  0  0  0  0  0  0
    5.6756   -7.7444    7.5465 O   0  0  0  0  0  0  0  0  0  0  0  0
    0.9600   -7.3300    5.1776 C   0  0  1  0  0  0  0  0  0  0  0  0
    1.6125   -8.6048    5.8400 C   0  0  0  0  0  0  0  0  0  0  0  0
    3.2522   -8.8731    5.6235 C   0  0  0  0  0  0  0  0  0  0  0  0
    4.2143   -8.4177    4.1943 C   0  0  1  0  0  0  0  0  0  0  0  0
    4.2498   -7.2416    2.8421 C   0  0  1  0  0  0  0  0  0  0  0  0
    5.5057   -7.4073    1.9451 C   0  0  0  0  0  0  0  0  0  0  0  0
    2.8834   -6.9714    1.7152 C   0  0  0  0  0  0  0  0  0  0  0  0
    1.1349   -6.9536    2.0116 C   0  0  0  0  0  0  0  0  0  0  0  0
    0.2833   -7.4367    3.5462 C   0  0  1  0  0  0  0  0  0  0  0  0
   -0.3063   -8.9630    3.3647 C   0  0  1  0  0  0  0  0  0  0  0  0
   -1.5660   -8.8948    2.4708 C   0  0  0  0  0  0  0  0  0  0  0  0
    0.5766  -10.2660    2.8795 C   0  0  0  0  0  0  0  0  0  0  0  0
    1.7525  -11.0695    3.6902 C   0  0  0  0  0  0  0  0  0  0  0  0
    3.3106  -10.7081    3.4720 C   0  0  1  0  0  0  0  0  0  0  0  0
    3.4984   -9.2382    3.2259 C   0  0  1  0  0  0  0  0  0  0  0  0
    2.3215   -8.5173    3.5766 O   0  0  0  0  0  0  0  0  0  0  0  0
    2.0087   -7.1254    4.3065 C   0  0  0  0  0  0  0  0  0  0  0  0
    2.4188   -5.9567    4.0844 O   0  0  0  0  0  0  0  0  0  0  0  0
    3.5954  -12.2787    5.9675 H   0  0  0  0  0  0  0  0  0  0  0  0
    5.1383  -12.9879    5.5230 H   0  0  0  0  0  0  0  0  0  0  0  0
    3.7255  -13.2755    4.5222 H   0  0  0  0  0  0  0  0  0  0  0  0
    5.2463  -11.6398    3.5083 H   0  0  0  0  0  0  0  0  0  0  0  0
    5.3422  -10.4278    6.2283 H   0  0  0  0  0  0  0  0  0  0  0  0
    6.5568  -10.6535    5.0670 H   0  0  0  0  0  0  0  0  0  0  0  0
    6.3890   -8.5894    4.1262 H   0  0  0  0  0  0  0  0  0  0  0  0
    4.9572   -7.2061    5.9451 H   0  0  0  0  0  0  0  0  0  0  0  0
    7.4932   -6.2852    5.7017 H   0  0  0  0  0  0  0  0  0  0  0  0
    6.1194   -5.8899    4.7234 H   0  0  0  0  0  0  0  0  0  0  0  0
    6.4289   -5.3586    7.7356 H   0  0  0  0  0  0  0  0  0  0  0  0
    6.7806   -4.2903    6.5057 H   0  0  0  0  0  0  0  0  0  0  0  0
    3.9392   -2.3408    7.7959 H   0  0  0  0  0  0  0  0  0  0  0  0
    5.7803   -2.4518    7.6884 H   0  0  0  0  0  0  0  0  0  0  0  0
    2.7368   -4.2007    6.2476 H   0  0  0  0  0  0  0  0  0  0  0  0
    2.0206   -3.7130    8.4532 H   0  0  0  0  0  0  0  0  0  0  0  0
    1.0817   -5.1766    5.7131 H   0  0  0  0  0  0  0  0  0  0  0  0
    3.4185   -6.3642    6.0336 H   0  0  0  0  0  0  0  0  0  0  0  0
    2.8267   -8.3177    8.0429 H   0  0  0  0  0  0  0  0  0  0  0  0
    4.7467   -7.9470    9.1782 H   0  0  0  0  0  0  0  0  0  0  0  0
    4.8744   -6.0676   10.3220 H   0  0  0  0  0  0  0  0  0  0  0  0
    5.0126   -4.9687    9.1010 H   0  0  0  0  0  0  0  0  0  0  0  0
    2.6583   -5.0041   10.3777 H   0  0  0  0  0  0  0  0  0  0  0  0
    0.2838   -6.2349    9.8031 H   0  0  0  0  0  0  0  0  0  0  0  0
    0.4756   -7.9276   10.1674 H   0  0  0  0  0  0  0  0  0  0  0  0
    0.3903   -7.4507    8.5225 H   0  0  0  0  0  0  0  0  0  0  0  0
    2.1969   -7.4669   11.5894 H   0  0  0  0  0  0  0  0  0  0  0  0
    3.8079   -7.6962   11.0427 H   0  0  0  0  0  0  0  0  0  0  0  0
    2.5864   -8.8329   10.5576 H   0  0  0  0  0  0  0  0  0  0  0  0
    1.2908   -8.6661    6.8704 H   0  0  0  0  0  0  0  0  0  0  0  0
    1.0508   -9.4585    5.5100 H   0  0  0  0  0  0  0  0  0  0  0  0
    3.8377   -8.8302    6.4972 H   0  0  0  0  0  0  0  0  0  0  0  0
    3.1665   -9.9389    5.7291 H   0  0  0  0  0  0  0  0  0  0  0  0
    4.4988   -6.2748    3.2845 H   0  0  0  0  0  0  0  0  0  0  0  0
    5.6028   -8.4085    1.5236 H   0  0  0  0  0  0  0  0  0  0  0  0
    6.4247   -7.1807    2.4866 H   0  0  0  0  0  0  0  0  0  0  0  0
    5.4744   -6.7081    1.1066 H   0  0  0  0  0  0  0  0  0  0  0  0
    3.0981   -6.0123    1.2351 H   0  0  0  0  0  0  0  0  0  0  0  0
    3.0151   -7.6768    0.8912 H   0  0  0  0  0  0  0  0  0  0  0  0
    0.8288   -5.9237    1.8287 H   0  0  0  0  0  0  0  0  0  0  0  0
    0.6770   -7.5105    1.1939 H   0  0  0  0  0  0  0  0  0  0  0  0
   -0.5912   -6.7818    3.5838 H   0  0  0  0  0  0  0  0  0  0  0  0
   -0.7264   -9.2331    4.3345 H   0  0  0  0  0  0  0  0  0  0  0  0
   -1.3211   -8.6742    1.4314 H   0  0  0  0  0  0  0  0  0  0  0  0
   -2.2733   -8.1379    2.8108 H   0  0  0  0  0  0  0  0  0  0  0  0
   -2.1046   -9.8429    2.4764 H   0  0  0  0  0  0  0  0  0  0  0  0
   -0.1679  -11.0469    2.7016 H   0  0  0  0  0  0  0  0  0  0  0  0
    0.9578  -10.0549    1.8829 H   0  0  0  0  0  0  0  0  0  0  0  0
    1.5069  -11.2465    4.7321 H   0  0  0  0  0  0  0  0  0  0  0  0
    1.6832  -12.0887    3.3061 H   0  0  0  0  0  0  0  0  0  0  0  0
    3.4664  -11.1450    2.4825 H   0  0  0  0  0  0  0  0  0  0  0  0
    3.7671   -9.1948    2.1687 H   0  0  0  0  0  0  0  0  0  0  0  0
  1  2  1  0
  1 42  1  0
  1 43  1  0
  1 44  1  0
  2 37  1  0
  2  3  1  0
  2 45  1  6
  3  4  1  0
  3 46  1  0
  3 47  1  0
  4 27  1  0
  4  5  1  0
  4 48  1  6
  5 23  1  0
  5  6  1  0
  5 49  1  0
  6  7  1  0
  6 50  1  0
  6 51  1  0
  7  8  1  0
  7 52  1  0
  7 53  1  0
  8 10  1  6
  8  9  1  0
  8 11  1  0
  9 10  1  0
  9 54  1  0
  9 55  1  0
 11 15  1  0
 11 12  1  0
 11 56  1  6
 12 19  1  0
 12 13  1  0
 12 57  1  1
 13 14  1  0
 14 15  1  0
 14 24  1  0
 14 58  1  6
 15 16  1  0
 15 59  1  6
 16 20  1  0
 16 17  1  0
 16 60  1  6
 17 18  1  0
 17 23  1  0
 17 61  1  1
 18 19  1  0
 18 62  1  0
 18 63  1  0
 19 20  1  0
 19 64  1  1
 20 21  1  0
 20 22  1  0
 21 65  1  0
 21 66  1  0
 21 67  1  0
 22 68  1  0
 22 69  1  0
 22 70  1  0
 24 32  1  0
 24 40  1  6
 24 25  1  0
 25 26  1  0
 25 71  1  0
 25 72  1  0
 27 26  1  1
 26 73  1  0
 26 74  1  0
 27 38  1  0
 27 28  1  0
 28 29  1  0
 28 30  1  0
 28 75  1  1
 29 76  1  0
 29 77  1  0
 29 78  1  0
 30 31  1  0
 30 79  1  0
 30 80  1  0
 31 32  1  0
 31 81  1  0
 31 82  1  0
 32 33  1  0
 32 83  1  1
 33 34  1  0
 33 35  1  0
 33 84  1  1
 34 85  1  0
 34 86  1  0
 34 87  1  0
 35 36  1  0
 35 88  1  0
 35 89  1  0
 36 37  1  0
 36 90  1  0
 36 91  1  0
 37 38  1  0
 37 92  1  6
 38 39  1  0
 38 93  1  6
 39 40  1  0
 40 41  2  0
M  END
>  <i_m_ct_stereo_status>  (198) 
1

>  <s_m_source_file>  (198) 
/var/tmp/pbs.5076255.sched01/tmpxnahmhzs/434e81vi2s.sdf

>  <i_m_source_file_index>  (198) 
39

>  <i_lp_mmshare_version>  (198) 
48012

>  <i_f3d_flags>  (198) 
0

>  <s_epik_input>  (198) 
W0NIM11bQ0BIXTFbQ0gyXVtDSDJdW0NAQEhdKFtDQEhdMk9DMz1PKVtDQEhdKFtDSDNdKVtDSDJdW0NASF0oW0NAQEhdKE80KVtDSDJdW0NIMl01KVtDQEBdMihbQ0gyXVtDSDJdNilbQ0BASF0oW0NIM10pW0NIMl1bQ0gyXVtDQEBIXTFbQ0BdMzZbQ0BASF0oTzcpW0NIXThbQ0BIXShDOShbQ0gzXSlbQ0gzXSlbQ0BASF00W0NIMl1bQ0BIXTlbQ0BIXTdbQ0BIXThbQ0BdMTVbQ0gyXU8x

>  <s_epik_cmdline>  (198) 
J2VwaWtfcHl0aG9uJywgJy1waHQnLCAnMi4wJywgJy1waCcsICc3LjAnLCAnLXRuJywgJzgnLCAnLW1hJywgJzIwMCcsICctaW1hZScsICc8aW5maWxlLm1hZT4nLCAnLW9tYWUnLCAnPG91dGZpbGUubWFlPic=

>  <r_lp_tautomer_probability>  (198) 
1

>  <r_epik_Ionization_Penalty>  (198) 
7.00227e-11

>  <r_epik_Ionization_Penalty_Charging>  (198) 
0

>  <r_epik_Ionization_Penalty_Neutral>  (198) 
7.00227e-11

>  <r_epik_State_Penalty>  (198) 
-0

>  <r_epik_Charging_Adjusted_Penalty>  (198) 
0

>  <i_epik_Tot_Q>  (198) 
0

>  <i_epik_Tot_abs_Q>  (198) 
0

>  <s_epik_Chemistry_Notes>  (198) 
This compound has an ester and may undergo hydrolysis at high or low pH.

>  <s_lp_Force_Field>  (198) 
OPLS3e

>  <r_lp_Energy>  (198) 
855.603

>  <b_lp_Chiralities_Consistent>  (198) 
1

>  <s_lp_Variant>  (198) 
59:0-4

>  <s_i_glide_gridfile>  (198) 
pfpi4k_grid

>  <i_i_glide_lignum>  (198) 
39

>  <i_i_glide_rotatable_bonds>  (198) 
0

>  <r_i_docking_score>  (198) 
-1.97994

>  <r_i_glide_ligand_efficiency>  (198) 
-0.0482912

>  <r_i_glide_ligand_efficiency_sa>  (198) 
-0.166518

>  <r_i_glide_ligand_efficiency_ln>  (198) 
-0.42005

>  <r_i_glide_gscore>  (198) 
-1.97994

>  <r_i_glide_lipo>  (198) 
-0.444289

>  <r_i_glide_hbond>  (198) 
0

>  <r_i_glide_metal>  (198) 
-0

>  <r_i_glide_rewards>  (198) 
0

>  <r_i_glide_evdw>  (198) 
-29.1377

>  <r_i_glide_ecoul>  (198) 
-0.51675

>  <r_i_glide_erotb>  (198) 
0

>  <r_i_glide_esite>  (198) 
-0.00125233

>  <r_i_glide_emodel>  (198) 
-34.0179

>  <r_i_glide_energy>  (198) 
-29.6544

>  <r_i_glide_einternal>  (198) 
0

>  <r_i_glide_intrahb_reward>  (198) 
-0

>  <i_i_glide_confnum>  (198) 
1

>  <i_i_glide_posenum>  (198) 
2

>  <r_i_glide_eff_state_penalty>  (198) 
0

>  <ligand_id>  (198) 
59

>  <original_smiles>  (198) 
CC1CC2C3CCC4(CO4)C4C5OC(C4C4C(CC5C4(C)C)O3)C34CCC25C(C)CCC3C(C)CCC1C5OC4=O

>  <smiles>  (198) 
[H]C([H])([H])C1([H])C([H])([H])C2([H])C3([H])OC4([H])C([H])([H])C5([H])C6([H])OC([H])(C([H])(C6([H])C6(OC6([H])[H])C([H])([H])C3([H])[H])C4([H])C5(C([H])([H])[H])C([H])([H])[H])C34C(=O)OC5([H])C1([H])C([H])([H])C([H])([H])C([H])(C([H])([H])[H])C3([H])C([H])([H])C([H])([H])C([H])(C([H])([H])[H])C52C([H])([H])C4([H])[H]

$$$$
59:3:1
     RDKit          3D

 93102  0  0  1  0  0  0  0  0999 V2000
    6.1800   -5.1303    8.1529 C   0  0  0  0  0  0  0  0  0  0  0  0
    4.6847   -4.7722    8.0702 C   0  0  2  0  0  0  0  0  0  0  0  0
    3.7923   -6.1294    7.9296 C   0  0  0  0  0  0  0  0  0  0  0  0
    2.3504   -6.0914    7.2580 C   0  0  2  0  0  0  0  0  0  0  0  0
    1.7561   -7.3927    6.3919 C   0  0  0  0  0  0  0  0  0  0  0  0
    0.2336   -7.5567    6.1826 C   0  0  0  0  0  0  0  0  0  0  0  0
   -0.1981   -8.3737    4.9088 C   0  0  0  0  0  0  0  0  0  0  0  0
   -0.3083   -7.8263    3.4162 C   0  0  1  0  0  0  0  0  0  0  0  0
   -1.3648   -8.4959    2.5606 C   0  0  0  0  0  0  0  0  0  0  0  0
   -1.5989   -7.2273    3.1711 O   0  0  0  0  0  0  0  0  0  0  0  0
    0.8267   -7.1140    2.5518 C   0  0  2  0  0  0  0  0  0  0  0  0
    1.5776   -7.6152    1.3275 C   0  0  1  0  0  0  0  0  0  0  0  0
    2.3991   -6.3591    1.0255 O   0  0  0  0  0  0  0  0  0  0  0  0
    2.3524   -5.3670    2.1151 C   0  0  1  0  0  0  0  0  0  0  0  0
    2.1226   -6.5876    3.0735 C   0  0  2  0  0  0  0  0  0  0  0  0
    3.3392   -7.6757    3.3329 C   0  0  1  0  0  0  0  0  0  0  0  0
    2.7823   -8.7492    4.2726 C   0  0  2  0  0  0  0  0  0  0  0  0
    2.0585   -9.6080    3.1282 C   0  0  0  0  0  0  0  0  0  0  0  0
    2.4390   -8.9165    1.7300 C   0  0  2  0  0  0  0  0  0  0  0  0
    3.8497   -8.4583    2.0704 C   0  0  0  0  0  0  0  0  0  0  0  0
    4.6459   -7.6431    1.0015 C   0  0  0  0  0  0  0  0  0  0  0  0
    4.8444   -9.6462    2.3344 C   0  0  0  0  0  0  0  0  0  0  0  0
    2.5046   -8.5065    5.7446 O   0  0  0  0  0  0  0  0  0  0  0  0
    3.1540   -4.0860    2.9068 C   0  0  1  0  0  0  0  0  0  0  0  0
    4.2054   -4.8332    3.8234 C   0  0  0  0  0  0  0  0  0  0  0  0
    3.6962   -5.4808    5.2823 C   0  0  0  0  0  0  0  0  0  0  0  0
    2.3986   -4.8406    6.3239 C   0  0  1  0  0  0  0  0  0  0  0  0
    0.8946   -3.8660    6.2587 C   0  0  1  0  0  0  0  0  0  0  0  0
    0.2034   -3.7507    7.6420 C   0  0  0  0  0  0  0  0  0  0  0  0
    0.7957   -2.2270    5.5297 C   0  0  0  0  0  0  0  0  0  0  0  0
    1.5869   -1.5573    4.0885 C   0  0  0  0  0  0  0  0  0  0  0  0
    2.9021   -2.3383    3.1021 C   0  0  1  0  0  0  0  0  0  0  0  0
    4.3538   -1.6891    3.5430 C   0  0  1  0  0  0  0  0  0  0  0  0
    4.4657   -0.2797    2.9183 C   0  0  0  0  0  0  0  0  0  0  0  0
    4.9177   -1.5858    5.0883 C   0  0  0  0  0  0  0  0  0  0  0  0
    5.4205   -2.7906    6.0827 C   0  0  0  0  0  0  0  0  0  0  0  0
    4.4141   -3.4771    7.1444 C   0  0  1  0  0  0  0  0  0  0  0  0
    3.0172   -3.5525    6.6021 C   0  0  1  0  0  0  0  0  0  0  0  0
    3.0104   -3.2967    5.1989 O   0  0  0  0  0  0  0  0  0  0  0  0
    2.2395   -3.9251    3.9389 C   0  0  0  0  0  0  0  0  0  0  0  0
    1.0118   -4.1030    3.7210 O   0  0  0  0  0  0  0  0  0  0  0  0
    6.5407   -5.5389    7.2090 H   0  0  0  0  0  0  0  0  0  0  0  0
    6.3591   -5.8863    8.9188 H   0  0  0  0  0  0  0  0  0  0  0  0
    6.7955   -4.2651    8.4014 H   0  0  0  0  0  0  0  0  0  0  0  0
    4.4406   -4.4183    9.0734 H   0  0  0  0  0  0  0  0  0  0  0  0
    4.3887   -6.8955    7.4316 H   0  0  0  0  0  0  0  0  0  0  0  0
    3.6683   -6.5406    8.9293 H   0  0  0  0  0  0  0  0  0  0  0  0
    1.6561   -5.9065    8.0718 H   0  0  0  0  0  0  0  0  0  0  0  0
    1.7367   -6.8524    5.5532 H   0  0  0  0  0  0  0  0  0  0  0  0
   -0.1308   -8.0960    7.0576 H   0  0  0  0  0  0  0  0  0  0  0  0
   -0.2783   -6.5941    6.2037 H   0  0  0  0  0  0  0  0  0  0  0  0
    0.2607   -9.3553    4.9692 H   0  0  0  0  0  0  0  0  0  0  0  0
   -1.2257   -8.6431    5.1508 H   0  0  0  0  0  0  0  0  0  0  0  0
   -1.2529   -8.4712    1.4777 H   0  0  0  0  0  0  0  0  0  0  0  0
   -1.9379   -9.3230    2.9702 H   0  0  0  0  0  0  0  0  0  0  0  0
    0.2112   -6.2988    2.1711 H   0  0  0  0  0  0  0  0  0  0  0  0
    0.8932   -7.8367    0.5130 H   0  0  0  0  0  0  0  0  0  0  0  0
    1.4963   -4.8634    1.6637 H   0  0  0  0  0  0  0  0  0  0  0  0
    1.6780   -6.2183    3.9168 H   0  0  0  0  0  0  0  0  0  0  0  0
    4.2950   -7.3608    3.7142 H   0  0  0  0  0  0  0  0  0  0  0  0
    3.6377   -9.3748    4.5144 H   0  0  0  0  0  0  0  0  0  0  0  0
    2.4335  -10.6313    3.1588 H   0  0  0  0  0  0  0  0  0  0  0  0
    1.0015   -9.8097    3.1637 H   0  0  0  0  0  0  0  0  0  0  0  0
    2.4419   -9.6369    0.9117 H   0  0  0  0  0  0  0  0  0  0  0  0
    4.2172   -7.7527    0.0040 H   0  0  0  0  0  0  0  0  0  0  0  0
    5.6857   -7.9544    0.9050 H   0  0  0  0  0  0  0  0  0  0  0  0
    4.7101   -6.5830    1.2336 H   0  0  0  0  0  0  0  0  0  0  0  0
    5.1406  -10.1162    1.3936 H   0  0  0  0  0  0  0  0  0  0  0  0
    4.4915  -10.4764    2.9384 H   0  0  0  0  0  0  0  0  0  0  0  0
    5.7549   -9.2865    2.8159 H   0  0  0  0  0  0  0  0  0  0  0  0
    4.7631   -5.5242    3.2019 H   0  0  0  0  0  0  0  0  0  0  0  0
    5.0210   -4.1530    3.9795 H   0  0  0  0  0  0  0  0  0  0  0  0
    3.7515   -6.5350    5.3522 H   0  0  0  0  0  0  0  0  0  0  0  0
    4.6653   -5.3965    5.7421 H   0  0  0  0  0  0  0  0  0  0  0  0
    0.1490   -4.4858    5.7584 H   0  0  0  0  0  0  0  0  0  0  0  0
    0.8514   -3.3258    8.4098 H   0  0  0  0  0  0  0  0  0  0  0  0
   -0.1500   -4.7178    7.9988 H   0  0  0  0  0  0  0  0  0  0  0  0
   -0.6789   -3.1139    7.5743 H   0  0  0  0  0  0  0  0  0  0  0  0
   -0.2701   -2.0556    5.3689 H   0  0  0  0  0  0  0  0  0  0  0  0
    1.0348   -1.5178    6.3236 H   0  0  0  0  0  0  0  0  0  0  0  0
    0.7777   -1.3623    3.3810 H   0  0  0  0  0  0  0  0  0  0  0  0
    1.9341   -0.5587    4.3621 H   0  0  0  0  0  0  0  0  0  0  0  0
    2.7109   -1.9889    2.0823 H   0  0  0  0  0  0  0  0  0  0  0  0
    5.1062   -2.2518    2.9885 H   0  0  0  0  0  0  0  0  0  0  0  0
    3.7977    0.4369    3.3969 H   0  0  0  0  0  0  0  0  0  0  0  0
    4.2320   -0.2862    1.8528 H   0  0  0  0  0  0  0  0  0  0  0  0
    5.4788    0.1148    3.0077 H   0  0  0  0  0  0  0  0  0  0  0  0
    5.8030   -0.9532    5.0065 H   0  0  0  0  0  0  0  0  0  0  0  0
    4.2204   -0.9656    5.6516 H   0  0  0  0  0  0  0  0  0  0  0  0
    6.0462   -3.5187    5.5765 H   0  0  0  0  0  0  0  0  0  0  0  0
    6.1640   -2.3120    6.7207 H   0  0  0  0  0  0  0  0  0  0  0  0
    4.3510   -2.6750    7.8824 H   0  0  0  0  0  0  0  0  0  0  0  0
    2.4831   -2.8056    7.1918 H   0  0  0  0  0  0  0  0  0  0  0  0
  1  2  1  0
  1 42  1  0
  1 43  1  0
  1 44  1  0
  2 37  1  0
  2  3  1  0
  2 45  1  1
  3  4  1  0
  3 46  1  0
  3 47  1  0
  4 27  1  0
  4  5  1  0
  4 48  1  1
  5 23  1  0
  5  6  1  0
  5 49  1  0
  6  7  1  0
  6 50  1  0
  6 51  1  0
  7  8  1  0
  7 52  1  0
  7 53  1  0
  8 10  1  1
  8  9  1  0
  8 11  1  0
  9 10  1  0
  9 54  1  0
  9 55  1  0
 11 15  1  0
 11 12  1  0
 11 56  1  6
 12 19  1  0
 12 13  1  0
 12 57  1  6
 13 14  1  0
 14 15  1  0
 14 24  1  0
 14 58  1  6
 15 16  1  0
 15 59  1  1
 16 20  1  0
 16 17  1  0
 16 60  1  1
 17 18  1  0
 17 23  1  0
 17 61  1  1
 18 19  1  0
 18 62  1  0
 18 63  1  0
 19 20  1  0
 19 64  1  6
 20 21  1  0
 20 22  1  0
 21 65  1  0
 21 66  1  0
 21 67  1  0
 22 68  1  0
 22 69  1  0
 22 70  1  0
 24 32  1  0
 24 40  1  1
 24 25  1  0
 25 26  1  0
 25 71  1  0
 25 72  1  0
 27 26  1  6
 26 73  1  0
 26 74  1  0
 27 38  1  0
 27 28  1  0
 28 29  1  0
 28 30  1  0
 28 75  1  6
 29 76  1  0
 29 77  1  0
 29 78  1  0
 30 31  1  0
 30 79  1  0
 30 80  1  0
 31 32  1  0
 31 81  1  0
 31 82  1  0
 32 33  1  0
 32 83  1  6
 33 34  1  0
 33 35  1  0
 33 84  1  6
 34 85  1  0
 34 86  1  0
 34 87  1  0
 35 36  1  0
 35 88  1  0
 35 89  1  0
 36 37  1  0
 36 90  1  0
 36 91  1  0
 37 38  1  0
 37 92  1  1
 38 39  1  0
 38 93  1  1
 39 40  1  0
 40 41  2  0
M  END
>  <i_m_ct_stereo_status>  (199) 
1

>  <s_m_source_file>  (199) 
/var/tmp/pbs.5076255.sched01/tmpxnahmhzs/434e81vi2s.sdf

>  <i_m_source_file_index>  (199) 
39

>  <i_lp_mmshare_version>  (199) 
48012

>  <i_f3d_flags>  (199) 
0

>  <s_epik_input>  (199) 
W0NIM11bQ0BIXTFbQ0gyXVtDSDJdW0NAQEhdKFtDQEhdMk9DMz1PKVtDQEhdKFtDSDNdKVtDSDJdW0NASF0oW0NAQEhdKE80KVtDSDJdW0NIMl01KVtDQEBdMihbQ0gyXVtDSDJdNilbQ0BASF0oW0NIM10pW0NIMl1bQ0gyXVtDQEBIXTFbQ0BdMzZbQ0BASF0oTzcpW0NIXThbQ0BIXShDOShbQ0gzXSlbQ0gzXSlbQ0BASF00W0NIMl1bQ0BIXTlbQ0BIXTdbQ0BIXThbQ0BdMTVbQ0gyXU8x

>  <s_epik_cmdline>  (199) 
J2VwaWtfcHl0aG9uJywgJy1waHQnLCAnMi4wJywgJy1waCcsICc3LjAnLCAnLXRuJywgJzgnLCAnLW1hJywgJzIwMCcsICctaW1hZScsICc8aW5maWxlLm1hZT4nLCAnLW9tYWUnLCAnPG91dGZpbGUubWFlPic=

>  <r_lp_tautomer_probability>  (199) 
1

>  <r_epik_Ionization_Penalty>  (199) 
7.00227e-11

>  <r_epik_Ionization_Penalty_Charging>  (199) 
0

>  <r_epik_Ionization_Penalty_Neutral>  (199) 
7.00227e-11

>  <r_epik_State_Penalty>  (199) 
-0

>  <r_epik_Charging_Adjusted_Penalty>  (199) 
0

>  <i_epik_Tot_Q>  (199) 
0

>  <i_epik_Tot_abs_Q>  (199) 
0

>  <s_epik_Chemistry_Notes>  (199) 
This compound has an ester and may undergo hydrolysis at high or low pH.

>  <s_lp_Force_Field>  (199) 
OPLS3e

>  <r_lp_Energy>  (199) 
855.603

>  <b_lp_Chiralities_Consistent>  (199) 
1

>  <s_lp_Variant>  (199) 
59:0-4

>  <s_i_glide_gridfile>  (199) 
pfpi4k_grid

>  <i_i_glide_lignum>  (199) 
39

>  <i_i_glide_rotatable_bonds>  (199) 
0

>  <r_i_docking_score>  (199) 
-1.97953

>  <r_i_glide_ligand_efficiency>  (199) 
-0.0482811

>  <r_i_glide_ligand_efficiency_sa>  (199) 
-0.166484

>  <r_i_glide_ligand_efficiency_ln>  (199) 
-0.419963

>  <r_i_glide_gscore>  (199) 
-1.97953

>  <r_i_glide_lipo>  (199) 
-0.215314

>  <r_i_glide_hbond>  (199) 
-0.0948177

>  <r_i_glide_metal>  (199) 
-0

>  <r_i_glide_rewards>  (199) 
-0.000949735

>  <r_i_glide_evdw>  (199) 
-32.9981

>  <r_i_glide_ecoul>  (199) 
-0.123616

>  <r_i_glide_erotb>  (199) 
0

>  <r_i_glide_esite>  (199) 
0

>  <r_i_glide_emodel>  (199) 
-37.512

>  <r_i_glide_energy>  (199) 
-33.1217

>  <r_i_glide_einternal>  (199) 
0

>  <r_i_glide_intrahb_reward>  (199) 
-0

>  <i_i_glide_confnum>  (199) 
1

>  <i_i_glide_posenum>  (199) 
33

>  <r_i_glide_eff_state_penalty>  (199) 
0

>  <ligand_id>  (199) 
59

>  <original_smiles>  (199) 
CC1CC2C3CCC4(CO4)C4C5OC(C4C4C(CC5C4(C)C)O3)C34CCC25C(C)CCC3C(C)CCC1C5OC4=O

>  <smiles>  (199) 
[H]C([H])([H])C1([H])C([H])([H])C2([H])C3([H])OC4([H])C([H])([H])C5([H])C6([H])OC([H])(C([H])(C6([H])C6(OC6([H])[H])C([H])([H])C3([H])[H])C4([H])C5(C([H])([H])[H])C([H])([H])[H])C34C(=O)OC5([H])C1([H])C([H])([H])C([H])([H])C([H])(C([H])([H])[H])C3([H])C([H])([H])C([H])([H])C([H])(C([H])([H])[H])C52C([H])([H])C4([H])[H]

$$$$
59:3:2
     RDKit          3D

 93102  0  0  1  0  0  0  0  0999 V2000
    6.3512   -4.8677    8.1264 C   0  0  0  0  0  0  0  0  0  0  0  0
    4.8168   -4.8268    8.2474 C   0  0  2  0  0  0  0  0  0  0  0  0
    4.1980   -6.3185    8.0266 C   0  0  0  0  0  0  0  0  0  0  0  0
    2.7025   -6.5156    7.5204 C   0  0  2  0  0  0  0  0  0  0  0  0
    2.2698   -7.8149    6.5603 C   0  0  0  0  0  0  0  0  0  0  0  0
    0.7945   -8.2731    6.4933 C   0  0  0  0  0  0  0  0  0  0  0  0
    0.3704   -9.0170    5.1721 C   0  0  0  0  0  0  0  0  0  0  0  0
   -0.0341   -8.3517    3.7809 C   0  0  1  0  0  0  0  0  0  0  0  0
   -1.0335   -9.1235    2.9428 C   0  0  0  0  0  0  0  0  0  0  0  0
   -1.4374   -8.0155    3.7463 O   0  0  0  0  0  0  0  0  0  0  0  0
    0.8208   -7.3336    2.9026 C   0  0  2  0  0  0  0  0  0  0  0  0
    1.4902   -7.5349    1.5511 C   0  0  1  0  0  0  0  0  0  0  0  0
    1.9969   -6.1070    1.3292 O   0  0  0  0  0  0  0  0  0  0  0  0
    1.9074   -5.2767    2.5450 C   0  0  1  0  0  0  0  0  0  0  0  0
    2.0445   -6.6083    3.3543 C   0  0  2  0  0  0  0  0  0  0  0  0
    3.4730   -7.4352    3.3403 C   0  0  1  0  0  0  0  0  0  0  0  0
    3.2631   -8.6936    4.1870 C   0  0  2  0  0  0  0  0  0  0  0  0
    2.5798   -9.5589    3.0229 C   0  0  0  0  0  0  0  0  0  0  0  0
    2.6341   -8.6614    1.6936 C   0  0  2  0  0  0  0  0  0  0  0  0
    3.9593   -7.9543    1.9393 C   0  0  0  0  0  0  0  0  0  0  0  0
    4.4332   -6.8783    0.9094 C   0  0  0  0  0  0  0  0  0  0  0  0
    5.1930   -8.9280    1.9387 C   0  0  0  0  0  0  0  0  0  0  0  0
    3.1349   -8.6690    5.6990 O   0  0  0  0  0  0  0  0  0  0  0  0
    2.5275   -3.9409    3.4072 C   0  0  1  0  0  0  0  0  0  0  0  0
    3.8162   -4.5400    4.1029 C   0  0  0  0  0  0  0  0  0  0  0  0
    3.6357   -5.4300    5.5105 C   0  0  0  0  0  0  0  0  0  0  0  0
    2.3827   -5.1921    6.7574 C   0  0  1  0  0  0  0  0  0  0  0  0
    0.7192   -4.5545    6.9770 C   0  0  1  0  0  0  0  0  0  0  0  0
    0.2026   -4.7346    8.4276 C   0  0  0  0  0  0  0  0  0  0  0  0
    0.2066   -2.9068    6.4793 C   0  0  0  0  0  0  0  0  0  0  0  0
    0.6574   -1.9370    5.0608 C   0  0  0  0  0  0  0  0  0  0  0  0
    1.9623   -2.3149    3.8497 C   0  0  1  0  0  0  0  0  0  0  0  0
    3.3021   -1.4238    4.2170 C   0  0  1  0  0  0  0  0  0  0  0  0
    3.0521    0.0357    3.7721 C   0  0  0  0  0  0  0  0  0  0  0  0
    4.0314   -1.3672    5.6948 C   0  0  0  0  0  0  0  0  0  0  0  0
    4.8857   -2.5363    6.4675 C   0  0  0  0  0  0  0  0  0  0  0  0
    4.1796   -3.5279    7.5307 C   0  0  1  0  0  0  0  0  0  0  0  0
    2.7664   -3.8383    7.1328 C   0  0  1  0  0  0  0  0  0  0  0  0
    2.5268   -3.4438    5.7839 O   0  0  0  0  0  0  0  0  0  0  0  0
    1.7402   -4.0866    4.5410 C   0  0  0  0  0  0  0  0  0  0  0  0
    0.5570   -4.4969    4.4329 O   0  0  0  0  0  0  0  0  0  0  0  0
    6.6605   -5.0892    7.1053 H   0  0  0  0  0  0  0  0  0  0  0  0
    6.7727   -5.6452    8.7649 H   0  0  0  0  0  0  0  0  0  0  0  0
    6.8106   -3.9232    8.4194 H   0  0  0  0  0  0  0  0  0  0  0  0
    4.6389   -4.6396    9.3086 H   0  0  0  0  0  0  0  0  0  0  0  0
    4.8650   -6.8853    7.3732 H   0  0  0  0  0  0  0  0  0  0  0  0
    4.2875   -6.8499    8.9713 H   0  0  0  0  0  0  0  0  0  0  0  0
    2.0960   -6.5688    8.4190 H   0  0  0  0  0  0  0  0  0  0  0  0
    2.0357   -7.2059    5.8058 H   0  0  0  0  0  0  0  0  0  0  0  0
    0.6568   -8.9684    7.3229 H   0  0  0  0  0  0  0  0  0  0  0  0
    0.1100   -7.4492    6.6936 H   0  0  0  0  0  0  0  0  0  0  0  0
    1.0112   -9.8869    5.0596 H   0  0  0  0  0  0  0  0  0  0  0  0
   -0.5514   -9.5015    5.4890 H   0  0  0  0  0  0  0  0  0  0  0  0
   -1.0682   -8.9497    1.8675 H   0  0  0  0  0  0  0  0  0  0  0  0
   -1.3732  -10.0939    3.2768 H   0  0  0  0  0  0  0  0  0  0  0  0
    0.0106   -6.6342    2.6986 H   0  0  0  0  0  0  0  0  0  0  0  0
    0.7639   -7.8126    0.7917 H   0  0  0  0  0  0  0  0  0  0  0  0
    0.9181   -4.9250    2.2653 H   0  0  0  0  0  0  0  0  0  0  0  0
    1.6459   -6.4314    4.2786 H   0  0  0  0  0  0  0  0  0  0  0  0
    4.3876   -6.9658    3.6577 H   0  0  0  0  0  0  0  0  0  0  0  0
    4.2486   -9.1462    4.2531 H   0  0  0  0  0  0  0  0  0  0  0  0
    3.1488  -10.4774    2.8795 H   0  0  0  0  0  0  0  0  0  0  0  0
    1.5964   -9.9812    3.1438 H   0  0  0  0  0  0  0  0  0  0  0  0
    2.6725   -9.2855    0.7993 H   0  0  0  0  0  0  0  0  0  0  0  0
    3.9045   -6.9671   -0.0404 H   0  0  0  0  0  0  0  0  0  0  0  0
    5.4924   -6.9493    0.6644 H   0  0  0  0  0  0  0  0  0  0  0  0
    4.3166   -5.8597    1.2711 H   0  0  0  0  0  0  0  0  0  0  0  0
    5.4530   -9.2210    0.9195 H   0  0  0  0  0  0  0  0  0  0  0  0
    5.0909   -9.8716    2.4654 H   0  0  0  0  0  0  0  0  0  0  0  0
    6.0675   -8.4362    2.3664 H   0  0  0  0  0  0  0  0  0  0  0  0
    4.4132   -5.0274    3.3430 H   0  0  0  0  0  0  0  0  0  0  0  0
    4.4937   -3.7212    4.2601 H   0  0  0  0  0  0  0  0  0  0  0  0
    3.9052   -6.4505    5.4362 H   0  0  0  0  0  0  0  0  0  0  0  0
    4.6204   -5.1920    5.8739 H   0  0  0  0  0  0  0  0  0  0  0  0
    0.0533   -5.2624    6.4825 H   0  0  0  0  0  0  0  0  0  0  0  0
    0.8477   -4.2663    9.1723 H   0  0  0  0  0  0  0  0  0  0  0  0
    0.0974   -5.7869    8.6890 H   0  0  0  0  0  0  0  0  0  0  0  0
   -0.7905   -4.2973    8.5388 H   0  0  0  0  0  0  0  0  0  0  0  0
   -0.8833   -2.9501    6.4543 H   0  0  0  0  0  0  0  0  0  0  0  0
    0.4027   -2.2505    7.3290 H   0  0  0  0  0  0  0  0  0  0  0  0
   -0.2585   -1.8439    4.4735 H   0  0  0  0  0  0  0  0  0  0  0  0
    0.8347   -0.9238    5.4242 H   0  0  0  0  0  0  0  0  0  0  0  0
    1.5773   -1.9090    2.9096 H   0  0  0  0  0  0  0  0  0  0  0  0
    4.0720   -1.7528    3.5183 H   0  0  0  0  0  0  0  0  0  0  0  0
    2.3235    0.5401    4.4073 H   0  0  0  0  0  0  0  0  0  0  0  0
    2.6899    0.0926    2.7445 H   0  0  0  0  0  0  0  0  0  0  0  0
    3.9695    0.6256    3.8041 H   0  0  0  0  0  0  0  0  0  0  0  0
    4.7567   -0.5576    5.6020 H   0  0  0  0  0  0  0  0  0  0  0  0
    3.3045   -0.9705    6.4045 H   0  0  0  0  0  0  0  0  0  0  0  0
    5.5725   -3.0582    5.8084 H   0  0  0  0  0  0  0  0  0  0  0  0
    5.5954   -1.9812    7.0814 H   0  0  0  0  0  0  0  0  0  0  0  0
    4.0544   -2.8394    8.3688 H   0  0  0  0  0  0  0  0  0  0  0  0
    2.1760   -3.2876    7.8673 H   0  0  0  0  0  0  0  0  0  0  0  0
  1  2  1  0
  1 42  1  0
  1 43  1  0
  1 44  1  0
  2 37  1  0
  2  3  1  0
  2 45  1  1
  3  4  1  0
  3 46  1  0
  3 47  1  0
  4 27  1  0
  4  5  1  0
  4 48  1  1
  5 23  1  0
  5  6  1  0
  5 49  1  0
  6  7  1  0
  6 50  1  0
  6 51  1  0
  7  8  1  0
  7 52  1  0
  7 53  1  0
  8 10  1  1
  8  9  1  0
  8 11  1  0
  9 10  1  0
  9 54  1  0
  9 55  1  0
 11 15  1  0
 11 12  1  0
 11 56  1  6
 12 19  1  0
 12 13  1  0
 12 57  1  6
 13 14  1  0
 14 15  1  0
 14 24  1  0
 14 58  1  6
 15 16  1  0
 15 59  1  1
 16 20  1  0
 16 17  1  0
 16 60  1  1
 17 18  1  0
 17 23  1  0
 17 61  1  1
 18 19  1  0
 18 62  1  0
 18 63  1  0
 19 20  1  0
 19 64  1  6
 20 21  1  0
 20 22  1  0
 21 65  1  0
 21 66  1  0
 21 67  1  0
 22 68  1  0
 22 69  1  0
 22 70  1  0
 24 32  1  0
 24 40  1  1
 24 25  1  0
 25 26  1  0
 25 71  1  0
 25 72  1  0
 27 26  1  6
 26 73  1  0
 26 74  1  0
 27 38  1  0
 27 28  1  0
 28 29  1  0
 28 30  1  0
 28 75  1  6
 29 76  1  0
 29 77  1  0
 29 78  1  0
 30 31  1  0
 30 79  1  0
 30 80  1  0
 31 32  1  0
 31 81  1  0
 31 82  1  0
 32 33  1  0
 32 83  1  6
 33 34  1  0
 33 35  1  0
 33 84  1  6
 34 85  1  0
 34 86  1  0
 34 87  1  0
 35 36  1  0
 35 88  1  0
 35 89  1  0
 36 37  1  0
 36 90  1  0
 36 91  1  0
 37 38  1  0
 37 92  1  1
 38 39  1  0
 38 93  1  1
 39 40  1  0
 40 41  2  0
M  END
>  <i_m_ct_stereo_status>  (200) 
1

>  <s_m_source_file>  (200) 
/var/tmp/pbs.5076255.sched01/tmpxnahmhzs/434e81vi2s.sdf

>  <i_m_source_file_index>  (200) 
39

>  <i_lp_mmshare_version>  (200) 
48012

>  <i_f3d_flags>  (200) 
0

>  <s_epik_input>  (200) 
W0NIM11bQ0BIXTFbQ0gyXVtDSDJdW0NAQEhdKFtDQEhdMk9DMz1PKVtDQEhdKFtDSDNdKVtDSDJdW0NASF0oW0NAQEhdKE80KVtDSDJdW0NIMl01KVtDQEBdMihbQ0gyXVtDSDJdNilbQ0BASF0oW0NIM10pW0NIMl1bQ0gyXVtDQEBIXTFbQ0BdMzZbQ0BASF0oTzcpW0NIXThbQ0BIXShDOShbQ0gzXSlbQ0gzXSlbQ0BASF00W0NIMl1bQ0BIXTlbQ0BIXTdbQ0BIXThbQ0BdMTVbQ0gyXU8x

>  <s_epik_cmdline>  (200) 
J2VwaWtfcHl0aG9uJywgJy1waHQnLCAnMi4wJywgJy1waCcsICc3LjAnLCAnLXRuJywgJzgnLCAnLW1hJywgJzIwMCcsICctaW1hZScsICc8aW5maWxlLm1hZT4nLCAnLW9tYWUnLCAnPG91dGZpbGUubWFlPic=

>  <r_lp_tautomer_probability>  (200) 
1

>  <r_epik_Ionization_Penalty>  (200) 
7.00227e-11

>  <r_epik_Ionization_Penalty_Charging>  (200) 
0

>  <r_epik_Ionization_Penalty_Neutral>  (200) 
7.00227e-11

>  <r_epik_State_Penalty>  (200) 
-0

>  <r_epik_Charging_Adjusted_Penalty>  (200) 
0

>  <i_epik_Tot_Q>  (200) 
0

>  <i_epik_Tot_abs_Q>  (200) 
0

>  <s_epik_Chemistry_Notes>  (200) 
This compound has an ester and may undergo hydrolysis at high or low pH.

>  <s_lp_Force_Field>  (200) 
OPLS3e

>  <r_lp_Energy>  (200) 
855.603

>  <b_lp_Chiralities_Consistent>  (200) 
1

>  <s_lp_Variant>  (200) 
59:0-4

>  <s_i_glide_gridfile>  (200) 
pfpi4k_grid

>  <i_i_glide_lignum>  (200) 
39

>  <i_i_glide_rotatable_bonds>  (200) 
0

>  <r_i_docking_score>  (200) 
-1.78275

>  <r_i_glide_ligand_efficiency>  (200) 
-0.0434816

>  <r_i_glide_ligand_efficiency_sa>  (200) 
-0.149934

>  <r_i_glide_ligand_efficiency_ln>  (200) 
-0.378216

>  <r_i_glide_gscore>  (200) 
-1.78275

>  <r_i_glide_lipo>  (200) 
-0.117981

>  <r_i_glide_hbond>  (200) 
0

>  <r_i_glide_metal>  (200) 
-0

>  <r_i_glide_rewards>  (200) 
-0.00477032

>  <r_i_glide_evdw>  (200) 
-31.121

>  <r_i_glide_ecoul>  (200) 
-0.692965

>  <r_i_glide_erotb>  (200) 
0

>  <r_i_glide_esite>  (200) 
0

>  <r_i_glide_emodel>  (200) 
-35.7335

>  <r_i_glide_energy>  (200) 
-31.814

>  <r_i_glide_einternal>  (200) 
0

>  <r_i_glide_intrahb_reward>  (200) 
-0

>  <i_i_glide_confnum>  (200) 
1

>  <i_i_glide_posenum>  (200) 
39

>  <r_i_glide_eff_state_penalty>  (200) 
0

>  <ligand_id>  (200) 
59

>  <original_smiles>  (200) 
CC1CC2C3CCC4(CO4)C4C5OC(C4C4C(CC5C4(C)C)O3)C34CCC25C(C)CCC3C(C)CCC1C5OC4=O

>  <smiles>  (200) 
[H]C([H])([H])C1([H])C([H])([H])C2([H])C3([H])OC4([H])C([H])([H])C5([H])C6([H])OC([H])(C([H])(C6([H])C6(OC6([H])[H])C([H])([H])C3([H])[H])C4([H])C5(C([H])([H])[H])C([H])([H])[H])C34C(=O)OC5([H])C1([H])C([H])([H])C([H])([H])C([H])(C([H])([H])[H])C3([H])C([H])([H])C([H])([H])C([H])(C([H])([H])[H])C52C([H])([H])C4([H])[H]

$$$$
59:4:0
     RDKit          3D

 93102  0  0  1  0  0  0  0  0999 V2000
    6.8129  -11.3937    6.5172 C   0  0  0  0  0  0  0  0  0  0  0  0
    5.4091  -10.9279    6.0669 C   0  0  2  0  0  0  0  0  0  0  0  0
    5.4484  -10.6705    4.4476 C   0  0  0  0  0  0  0  0  0  0  0  0
    4.2042   -9.9670    3.7009 C   0  0  2  0  0  0  0  0  0  0  0  0
    4.3845   -9.1344    2.2452 C   0  0  1  0  0  0  0  0  0  0  0  0
    3.1606   -8.9525    1.3301 C   0  0  0  0  0  0  0  0  0  0  0  0
    1.9758   -8.0629    1.7777 C   0  0  0  0  0  0  0  0  0  0  0  0
    1.8738   -6.5852    1.4408 C   0  0  2  0  0  0  0  0  0  0  0  0
    1.3433   -5.9811    0.1364 C   0  0  0  0  0  0  0  0  0  0  0  0
    0.4666   -6.2487    1.1745 O   0  0  0  0  0  0  0  0  0  0  0  0
    2.3679   -5.6359    2.5854 C   0  0  2  0  0  0  0  0  0  0  0  0
    2.7061   -4.2305    2.3610 C   0  0  1  0  0  0  0  0  0  0  0  0
    2.6865   -3.9985    3.8714 O   0  0  0  0  0  0  0  0  0  0  0  0
    3.4397   -4.9943    4.6781 C   0  0  2  0  0  0  0  0  0  0  0  0
    3.6697   -5.8449    3.3944 C   0  0  2  0  0  0  0  0  0  0  0  0
    5.1095   -5.5648    2.8000 C   0  0  1  0  0  0  0  0  0  0  0  0
    5.2159   -6.5497    1.6417 C   0  0  2  0  0  0  0  0  0  0  0  0
    4.4316   -5.6530    0.6087 C   0  0  0  0  0  0  0  0  0  0  0  0
    4.0184   -4.2601    1.3623 C   0  0  2  0  0  0  0  0  0  0  0  0
    5.2718   -4.1256    2.2031 C   0  0  0  0  0  0  0  0  0  0  0  0
    5.2911   -2.8852    3.1468 C   0  0  0  0  0  0  0  0  0  0  0  0
    6.5955   -3.9177    1.3849 C   0  0  0  0  0  0  0  0  0  0  0  0
    5.3252   -8.0371    1.8584 O   0  0  0  0  0  0  0  0  0  0  0  0
    3.4064   -5.8962    6.1234 C   0  0  1  0  0  0  0  0  0  0  0  0
    4.8315   -6.6048    5.8878 C   0  0  0  0  0  0  0  0  0  0  0  0
    4.8406   -7.9365    4.9044 C   0  0  0  0  0  0  0  0  0  0  0  0
    3.5642   -9.1321    4.8141 C   0  0  1  0  0  0  0  0  0  0  0  0
    1.7855   -9.3946    5.1033 C   0  0  1  0  0  0  0  0  0  0  0  0
    1.3741  -10.8664    4.8271 C   0  0  0  0  0  0  0  0  0  0  0  0
    0.8871   -8.8951    6.5317 C   0  0  0  0  0  0  0  0  0  0  0  0
    0.9733   -7.4024    7.4242 C   0  0  0  0  0  0  0  0  0  0  0  0
    2.3667   -6.2850    7.5060 C   0  0  1  0  0  0  0  0  0  0  0  0
    3.2431   -6.7536    8.8293 C   0  0  1  0  0  0  0  0  0  0  0  0
    2.3705   -6.7852   10.1071 C   0  0  0  0  0  0  0  0  0  0  0  0
    4.4202   -7.9076    8.9735 C   0  0  0  0  0  0  0  0  0  0  0  0
    4.5373   -9.4447    8.4315 C   0  0  0  0  0  0  0  0  0  0  0  0
    4.9492   -9.6622    6.9113 C   0  0  2  0  0  0  0  0  0  0  0  0
    3.6361   -9.4340    6.2348 C   0  0  1  0  0  0  0  0  0  0  0  0
    3.2502   -8.1391    6.5513 O   0  0  0  0  0  0  0  0  0  0  0  0
    2.6958   -6.9630    5.7202 C   0  0  0  0  0  0  0  0  0  0  0  0
    1.6850   -6.7968    5.0139 O   0  0  0  0  0  0  0  0  0  0  0  0
    7.5684  -10.6326    6.3008 H   0  0  0  0  0  0  0  0  0  0  0  0
    7.1180  -12.3058    6.0010 H   0  0  0  0  0  0  0  0  0  0  0  0
    6.8462  -11.5938    7.5898 H   0  0  0  0  0  0  0  0  0  0  0  0
    4.7294  -11.7512    6.2734 H   0  0  0  0  0  0  0  0  0  0  0  0
    6.3789  -10.2268    4.1293 H   0  0  0  0  0  0  0  0  0  0  0  0
    5.5112  -11.6711    3.9928 H   0  0  0  0  0  0  0  0  0  0  0  0
    3.5470  -10.7857    3.4447 H   0  0  0  0  0  0  0  0  0  0  0  0
    4.9206   -9.9175    1.7067 H   0  0  0  0  0  0  0  0  0  0  0  0
    3.5511   -8.6553    0.3704 H   0  0  0  0  0  0  0  0  0  0  0  0
    2.7536   -9.9540    1.1383 H   0  0  0  0  0  0  0  0  0  0  0  0
    1.0551   -8.5479    1.4401 H   0  0  0  0  0  0  0  0  0  0  0  0
    1.9580   -8.1330    2.8306 H   0  0  0  0  0  0  0  0  0  0  0  0
    1.4860   -4.9225   -0.0875 H   0  0  0  0  0  0  0  0  0  0  0  0
    1.2810   -6.6165   -0.7057 H   0  0  0  0  0  0  0  0  0  0  0  0
    1.4580   -5.5582    3.1730 H   0  0  0  0  0  0  0  0  0  0  0  0
    1.8832   -3.6842    1.8961 H   0  0  0  0  0  0  0  0  0  0  0  0
    4.3101   -4.3783    4.8759 H   0  0  0  0  0  0  0  0  0  0  0  0
    3.5045   -6.8930    3.4096 H   0  0  0  0  0  0  0  0  0  0  0  0
    5.9282   -5.7312    3.4913 H   0  0  0  0  0  0  0  0  0  0  0  0
    6.2435   -6.4625    1.3054 H   0  0  0  0  0  0  0  0  0  0  0  0
    5.1033   -5.4030   -0.2141 H   0  0  0  0  0  0  0  0  0  0  0  0
    3.7139   -6.1923    0.0150 H   0  0  0  0  0  0  0  0  0  0  0  0
    3.9513   -3.4334    0.6489 H   0  0  0  0  0  0  0  0  0  0  0  0
    5.7213   -2.0103    2.6591 H   0  0  0  0  0  0  0  0  0  0  0  0
    5.8955   -3.0808    4.0264 H   0  0  0  0  0  0  0  0  0  0  0  0
    4.3403   -2.5241    3.5131 H   0  0  0  0  0  0  0  0  0  0  0  0
    6.6221   -2.9431    0.8947 H   0  0  0  0  0  0  0  0  0  0  0  0
    6.8442   -4.6248    0.5998 H   0  0  0  0  0  0  0  0  0  0  0  0
    7.4485   -3.9594    2.0573 H   0  0  0  0  0  0  0  0  0  0  0  0
    5.5842   -5.9000    5.5432 H   0  0  0  0  0  0  0  0  0  0  0  0
    5.2858   -6.8378    6.8324 H   0  0  0  0  0  0  0  0  0  0  0  0
    5.2191   -7.6550    3.9710 H   0  0  0  0  0  0  0  0  0  0  0  0
    5.8275   -8.3579    5.0456 H   0  0  0  0  0  0  0  0  0  0  0  0
    1.1621   -8.9514    4.3335 H   0  0  0  0  0  0  0  0  0  0  0  0
    1.9583  -11.5833    5.4024 H   0  0  0  0  0  0  0  0  0  0  0  0
    1.4607  -11.1333    3.7728 H   0  0  0  0  0  0  0  0  0  0  0  0
    0.3231  -11.0324    5.0866 H   0  0  0  0  0  0  0  0  0  0  0  0
   -0.1722   -9.0083    6.2682 H   0  0  0  0  0  0  0  0  0  0  0  0
    1.0368   -9.6766    7.2763 H   0  0  0  0  0  0  0  0  0  0  0  0
    0.1531   -6.7918    7.0377 H   0  0  0  0  0  0  0  0  0  0  0  0
    0.6145   -7.6292    8.4305 H   0  0  0  0  0  0  0  0  0  0  0  0
    1.9173   -5.3283    7.7987 H   0  0  0  0  0  0  0  0  0  0  0  0
    3.8291   -5.8457    8.9980 H   0  0  0  0  0  0  0  0  0  0  0  0
    1.8784   -7.7494   10.2366 H   0  0  0  0  0  0  0  0  0  0  0  0
    1.6063   -6.0076   10.1016 H   0  0  0  0  0  0  0  0  0  0  0  0
    2.9736   -6.6188   11.0009 H   0  0  0  0  0  0  0  0  0  0  0  0
    5.3764   -7.4277    8.7689 H   0  0  0  0  0  0  0  0  0  0  0  0
    4.5151   -8.0340   10.0509 H   0  0  0  0  0  0  0  0  0  0  0  0
    5.3365   -9.9037    9.0229 H   0  0  0  0  0  0  0  0  0  0  0  0
    3.6405  -10.0094    8.6957 H   0  0  0  0  0  0  0  0  0  0  0  0
    5.7704   -8.9619    6.8752 H   0  0  0  0  0  0  0  0  0  0  0  0
    3.0059  -10.2369    6.6128 H   0  0  0  0  0  0  0  0  0  0  0  0
  1  2  1  0
  1 42  1  0
  1 43  1  0
  1 44  1  0
  2 37  1  0
  2  3  1  0
  2 45  1  6
  3  4  1  0
  3 46  1  0
  3 47  1  0
  4 27  1  0
  4  5  1  0
  4 48  1  6
  5 23  1  0
  5  6  1  0
  5 49  1  6
  6  7  1  0
  6 50  1  0
  6 51  1  0
  7  8  1  0
  7 52  1  0
  7 53  1  0
  8 10  1  1
  8  9  1  0
  8 11  1  0
  9 10  1  0
  9 54  1  0
  9 55  1  0
 11 15  1  0
 11 12  1  0
 11 56  1  1
 12 19  1  0
 12 13  1  0
 12 57  1  6
 13 14  1  0
 14 15  1  0
 14 24  1  0
 14 58  1  1
 15 16  1  0
 15 59  1  1
 16 20  1  0
 16 17  1  0
 16 60  1  1
 17 18  1  0
 17 23  1  0
 17 61  1  6
 18 19  1  0
 18 62  1  0
 18 63  1  0
 19 20  1  0
 19 64  1  6
 20 21  1  0
 20 22  1  0
 21 65  1  0
 21 66  1  0
 21 67  1  0
 22 68  1  0
 22 69  1  0
 22 70  1  0
 24 32  1  0
 24 40  1  6
 24 25  1  0
 25 26  1  0
 25 71  1  0
 25 72  1  0
 27 26  1  1
 26 73  1  0
 26 74  1  0
 27 38  1  0
 27 28  1  0
 28 29  1  0
 28 30  1  0
 28 75  1  6
 29 76  1  0
 29 77  1  0
 29 78  1  0
 30 31  1  0
 30 79  1  0
 30 80  1  0
 31 32  1  0
 31 81  1  0
 31 82  1  0
 32 33  1  0
 32 83  1  1
 33 34  1  0
 33 35  1  0
 33 84  1  1
 34 85  1  0
 34 86  1  0
 34 87  1  0
 35 36  1  0
 35 88  1  0
 35 89  1  0
 36 37  1  0
 36 90  1  0
 36 91  1  0
 37 38  1  0
 37 92  1  6
 38 39  1  0
 38 93  1  6
 39 40  1  0
 40 41  2  0
M  END
>  <i_m_ct_stereo_status>  (201) 
1

>  <s_m_source_file>  (201) 
/var/tmp/pbs.5076255.sched01/tmpxnahmhzs/434e81vi2s.sdf

>  <i_m_source_file_index>  (201) 
40

>  <i_lp_mmshare_version>  (201) 
48012

>  <i_f3d_flags>  (201) 
0

>  <s_epik_input>  (201) 
W0NIM11bQ0BIXTFbQ0gyXVtDSDJdW0NAQEhdKFtDQEhdMk9DMz1PKVtDQEhdKFtDSDNdKVtDSDJdW0NASF0oW0NAQEhdKE80KVtDSDJdW0NIMl01KVtDQEBdMihbQ0gyXVtDSDJdNilbQ0BASF0oW0NIM10pW0NIMl1bQ0gyXVtDQEBIXTFbQ0BdMzZbQ0BASF0oTzcpW0NIXThbQ0BIXShDOShbQ0gzXSlbQ0gzXSlbQ0BASF00W0NIMl1bQ0BIXTlbQ0BIXTdbQ0BIXThbQ0BdMTVbQ0gyXU8x

>  <s_epik_cmdline>  (201) 
J2VwaWtfcHl0aG9uJywgJy1waHQnLCAnMi4wJywgJy1waCcsICc3LjAnLCAnLXRuJywgJzgnLCAnLW1hJywgJzIwMCcsICctaW1hZScsICc8aW5maWxlLm1hZT4nLCAnLW9tYWUnLCAnPG91dGZpbGUubWFlPic=

>  <r_lp_tautomer_probability>  (201) 
1

>  <r_epik_Ionization_Penalty>  (201) 
7.00227e-11

>  <r_epik_Ionization_Penalty_Charging>  (201) 
0

>  <r_epik_Ionization_Penalty_Neutral>  (201) 
7.00227e-11

>  <r_epik_State_Penalty>  (201) 
-0

>  <r_epik_Charging_Adjusted_Penalty>  (201) 
0

>  <i_epik_Tot_Q>  (201) 
0

>  <i_epik_Tot_abs_Q>  (201) 
0

>  <s_epik_Chemistry_Notes>  (201) 
This compound has an ester and may undergo hydrolysis at high or low pH.

>  <s_lp_Force_Field>  (201) 
OPLS3e

>  <r_lp_Energy>  (201) 
816.164

>  <b_lp_Chiralities_Consistent>  (201) 
1

>  <s_lp_Variant>  (201) 
59:0-5

>  <s_i_glide_gridfile>  (201) 
pfpi4k_grid

>  <i_i_glide_lignum>  (201) 
40

>  <i_i_glide_rotatable_bonds>  (201) 
0

>  <r_i_docking_score>  (201) 
-2.00907

>  <r_i_glide_ligand_efficiency>  (201) 
-0.0490018

>  <r_i_glide_ligand_efficiency_sa>  (201) 
-0.168969

>  <r_i_glide_ligand_efficiency_ln>  (201) 
-0.426232

>  <r_i_glide_gscore>  (201) 
-2.00907

>  <r_i_glide_lipo>  (201) 
-0.317462

>  <r_i_glide_hbond>  (201) 
-0.16

>  <r_i_glide_metal>  (201) 
-0

>  <r_i_glide_rewards>  (201) 
0

>  <r_i_glide_evdw>  (201) 
-21.5444

>  <r_i_glide_ecoul>  (201) 
-3.02929

>  <r_i_glide_erotb>  (201) 
0

>  <r_i_glide_esite>  (201) 
0

>  <r_i_glide_emodel>  (201) 
-28.2059

>  <r_i_glide_energy>  (201) 
-24.5736

>  <r_i_glide_einternal>  (201) 
0

>  <r_i_glide_intrahb_reward>  (201) 
-0

>  <i_i_glide_confnum>  (201) 
1

>  <i_i_glide_posenum>  (201) 
14

>  <r_i_glide_eff_state_penalty>  (201) 
0

>  <ligand_id>  (201) 
59

>  <original_smiles>  (201) 
CC1CC2C3CCC4(CO4)C4C5OC(C4C4C(CC5C4(C)C)O3)C34CCC25C(C)CCC3C(C)CCC1C5OC4=O

>  <smiles>  (201) 
[H]C([H])([H])C1([H])C([H])([H])C2([H])C3([H])OC4([H])C([H])([H])C5([H])C6([H])OC([H])(C([H])(C6([H])C6(OC6([H])[H])C([H])([H])C3([H])[H])C4([H])C5(C([H])([H])[H])C([H])([H])[H])C34C(=O)OC5([H])C1([H])C([H])([H])C([H])([H])C([H])(C([H])([H])[H])C3([H])C([H])([H])C([H])([H])C([H])(C([H])([H])[H])C52C([H])([H])C4([H])[H]

$$$$
59:4:1
     RDKit          3D

 93102  0  0  1  0  0  0  0  0999 V2000
    7.1572   -7.7752    2.0706 C   0  0  0  0  0  0  0  0  0  0  0  0
    5.7368   -7.1971    1.9404 C   0  0  2  0  0  0  0  0  0  0  0  0
    5.7446   -5.6191    2.4043 C   0  0  0  0  0  0  0  0  0  0  0  0
    4.3675   -4.8102    2.6307 C   0  0  2  0  0  0  0  0  0  0  0  0
    4.2319   -3.4769    3.6687 C   0  0  1  0  0  0  0  0  0  0  0  0
    3.1178   -2.4111    3.4354 C   0  0  0  0  0  0  0  0  0  0  0  0
    1.6363   -2.8237    3.5959 C   0  0  0  0  0  0  0  0  0  0  0  0
    0.8527   -2.6670    4.9146 C   0  0  1  0  0  0  0  0  0  0  0  0
    0.2342   -1.3538    5.3886 C   0  0  0  0  0  0  0  0  0  0  0  0
   -0.4970   -2.2501    4.5864 O   0  0  0  0  0  0  0  0  0  0  0  0
    0.8074   -3.9460    5.7923 C   0  0  2  0  0  0  0  0  0  0  0  0
    0.4822   -3.9401    7.2120 C   0  0  1  0  0  0  0  0  0  0  0  0
    0.2583   -5.4579    7.1615 O   0  0  0  0  0  0  0  0  0  0  0  0
    1.3352   -6.2393    6.5041 C   0  0  2  0  0  0  0  0  0  0  0  0
    2.0069   -4.9043    6.0500 C   0  0  2  0  0  0  0  0  0  0  0  0
    3.1992   -4.5475    7.0336 C   0  0  1  0  0  0  0  0  0  0  0  0
    3.8168   -3.3041    6.4053 C   0  0  2  0  0  0  0  0  0  0  0  0
    2.7792   -2.2817    7.0088 C   0  0  0  0  0  0  0  0  0  0  0  0
    1.7283   -3.1319    7.9375 C   0  0  2  0  0  0  0  0  0  0  0  0
    2.7283   -4.1494    8.4767 C   0  0  0  0  0  0  0  0  0  0  0  0
    2.1288   -5.2286    9.4300 C   0  0  0  0  0  0  0  0  0  0  0  0
    3.8612   -3.5563    9.3864 C   0  0  0  0  0  0  0  0  0  0  0  0
    4.5892   -3.3616    5.1124 O   0  0  0  0  0  0  0  0  0  0  0  0
    1.6185   -7.5595    5.4751 C   0  0  1  0  0  0  0  0  0  0  0  0
    3.2384   -7.4280    5.5108 C   0  0  0  0  0  0  0  0  0  0  0  0
    3.9325   -6.3058    4.4943 C   0  0  0  0  0  0  0  0  0  0  0  0
    3.3451   -5.9159    2.8807 C   0  0  1  0  0  0  0  0  0  0  0  0
    1.8701   -5.9350    1.8111 C   0  0  1  0  0  0  0  0  0  0  0  0
    2.2127   -5.4598    0.3780 C   0  0  0  0  0  0  0  0  0  0  0  0
    0.7485   -7.2946    1.6259 C   0  0  0  0  0  0  0  0  0  0  0  0
    0.0691   -8.3674    2.8296 C   0  0  0  0  0  0  0  0  0  0  0  0
    0.7809   -8.7534    4.4357 C   0  0  1  0  0  0  0  0  0  0  0  0
    1.7050  -10.1096    4.2011 C   0  0  1  0  0  0  0  0  0  0  0  0
    0.8704  -11.2467    3.5776 C   0  0  0  0  0  0  0  0  0  0  0  0
    3.2716  -10.2720    3.6842 C   0  0  0  0  0  0  0  0  0  0  0  0
    4.1226   -9.5892    2.4658 C   0  0  0  0  0  0  0  0  0  0  0  0
    4.6812   -8.1170    2.6929 C   0  0  2  0  0  0  0  0  0  0  0  0
    3.4643   -7.2937    2.4350 C   0  0  1  0  0  0  0  0  0  0  0  0
    2.4839   -7.7242    3.3186 O   0  0  0  0  0  0  0  0  0  0  0  0
    1.5021   -6.9574    4.2729 C   0  0  0  0  0  0  0  0  0  0  0  0
    0.5960   -6.1339    4.0576 O   0  0  0  0  0  0  0  0  0  0  0  0
    7.4872   -7.7456    3.1113 H   0  0  0  0  0  0  0  0  0  0  0  0
    7.8812   -7.2064    1.4849 H   0  0  0  0  0  0  0  0  0  0  0  0
    7.2037   -8.8132    1.7387 H   0  0  0  0  0  0  0  0  0  0  0  0
    5.4841   -7.2217    0.8788 H   0  0  0  0  0  0  0  0  0  0  0  0
    6.3666   -5.5081    3.2940 H   0  0  0  0  0  0  0  0  0  0  0  0
    6.3027   -5.0779    1.6432 H   0  0  0  0  0  0  0  0  0  0  0  0
    4.1757   -4.3903    1.6491 H   0  0  0  0  0  0  0  0  0  0  0  0
    5.1045   -2.9414    3.3009 H   0  0  0  0  0  0  0  0  0  0  0  0
    3.3150   -1.5191    4.0281 H   0  0  0  0  0  0  0  0  0  0  0  0
    3.2372   -2.0742    2.4024 H   0  0  0  0  0  0  0  0  0  0  0  0
    1.0679   -2.3315    2.8037 H   0  0  0  0  0  0  0  0  0  0  0  0
    1.6062   -3.8586    3.3667 H   0  0  0  0  0  0  0  0  0  0  0  0
   -0.1466   -1.2724    6.4024 H   0  0  0  0  0  0  0  0  0  0  0  0
    0.5488   -0.4343    4.9088 H   0  0  0  0  0  0  0  0  0  0  0  0
   -0.0580   -4.4205    5.3353 H   0  0  0  0  0  0  0  0  0  0  0  0
   -0.4668   -3.4330    7.3932 H   0  0  0  0  0  0  0  0  0  0  0  0
    1.8089   -6.6157    7.3991 H   0  0  0  0  0  0  0  0  0  0  0  0
    2.3462   -4.7875    5.0518 H   0  0  0  0  0  0  0  0  0  0  0  0
    3.9564   -5.3175    7.1382 H   0  0  0  0  0  0  0  0  0  0  0  0
    4.7155   -3.1215    6.9866 H   0  0  0  0  0  0  0  0  0  0  0  0
    3.3154   -1.5969    7.6614 H   0  0  0  0  0  0  0  0  0  0  0  0
    2.4164   -1.5551    6.3048 H   0  0  0  0  0  0  0  0  0  0  0  0
    1.3330   -2.5151    8.7443 H   0  0  0  0  0  0  0  0  0  0  0  0
    2.1089   -4.8812   10.4626 H   0  0  0  0  0  0  0  0  0  0  0  0
    2.7456   -6.1262    9.4278 H   0  0  0  0  0  0  0  0  0  0  0  0
    1.1021   -5.5179    9.2549 H   0  0  0  0  0  0  0  0  0  0  0  0
    3.4567   -3.1653   10.3216 H   0  0  0  0  0  0  0  0  0  0  0  0
    4.4552   -2.7357    8.9928 H   0  0  0  0  0  0  0  0  0  0  0  0
    4.5758   -4.3355    9.6502 H   0  0  0  0  0  0  0  0  0  0  0  0
    3.5980   -7.2714    6.5239 H   0  0  0  0  0  0  0  0  0  0  0  0
    3.6774   -8.3982    5.3535 H   0  0  0  0  0  0  0  0  0  0  0  0
    4.1832   -5.4700    5.0634 H   0  0  0  0  0  0  0  0  0  0  0  0
    4.9869   -6.5369    4.5398 H   0  0  0  0  0  0  0  0  0  0  0  0
    1.1735   -5.1542    2.0642 H   0  0  0  0  0  0  0  0  0  0  0  0
    3.0249   -6.0263   -0.0762 H   0  0  0  0  0  0  0  0  0  0  0  0
    2.4787   -4.4041    0.3532 H   0  0  0  0  0  0  0  0  0  0  0  0
    1.3494   -5.5670   -0.2813 H   0  0  0  0  0  0  0  0  0  0  0  0
   -0.1163   -6.8953    1.0938 H   0  0  0  0  0  0  0  0  0  0  0  0
    1.2007   -7.9668    0.8948 H   0  0  0  0  0  0  0  0  0  0  0  0
   -0.9048   -7.9396    3.0709 H   0  0  0  0  0  0  0  0  0  0  0  0
   -0.1977   -9.2840    2.3107 H   0  0  0  0  0  0  0  0  0  0  0  0
   -0.0713   -9.0876    5.0335 H   0  0  0  0  0  0  0  0  0  0  0  0
    1.7947  -10.4527    5.2342 H   0  0  0  0  0  0  0  0  0  0  0  0
    0.8605  -11.1984    2.4888 H   0  0  0  0  0  0  0  0  0  0  0  0
   -0.1623  -11.2196    3.9329 H   0  0  0  0  0  0  0  0  0  0  0  0
    1.2677  -12.2246    3.8498 H   0  0  0  0  0  0  0  0  0  0  0  0
    3.9100  -10.2533    4.5655 H   0  0  0  0  0  0  0  0  0  0  0  0
    3.3442  -11.3322    3.4385 H   0  0  0  0  0  0  0  0  0  0  0  0
    4.9990  -10.2235    2.3251 H   0  0  0  0  0  0  0  0  0  0  0  0
    3.5646   -9.6716    1.5309 H   0  0  0  0  0  0  0  0  0  0  0  0
    5.0867   -8.2637    3.6856 H   0  0  0  0  0  0  0  0  0  0  0  0
    3.2447   -7.5106    1.3873 H   0  0  0  0  0  0  0  0  0  0  0  0
  1  2  1  0
  1 42  1  0
  1 43  1  0
  1 44  1  0
  2 37  1  0
  2  3  1  0
  2 45  1  6
  3  4  1  0
  3 46  1  0
  3 47  1  0
  4 27  1  0
  4  5  1  0
  4 48  1  6
  5 23  1  0
  5  6  1  0
  5 49  1  6
  6  7  1  0
  6 50  1  0
  6 51  1  0
  7  8  1  0
  7 52  1  0
  7 53  1  0
  8 10  1  6
  8  9  1  0
  8 11  1  0
  9 10  1  0
  9 54  1  0
  9 55  1  0
 11 15  1  0
 11 12  1  0
 11 56  1  6
 12 19  1  0
 12 13  1  0
 12 57  1  6
 13 14  1  0
 14 15  1  0
 14 24  1  0
 14 58  1  1
 15 16  1  0
 15 59  1  6
 16 20  1  0
 16 17  1  0
 16 60  1  1
 17 18  1  0
 17 23  1  0
 17 61  1  1
 18 19  1  0
 18 62  1  0
 18 63  1  0
 19 20  1  0
 19 64  1  1
 20 21  1  0
 20 22  1  0
 21 65  1  0
 21 66  1  0
 21 67  1  0
 22 68  1  0
 22 69  1  0
 22 70  1  0
 24 32  1  0
 24 40  1  6
 24 25  1  0
 25 26  1  0
 25 71  1  0
 25 72  1  0
 27 26  1  1
 26 73  1  0
 26 74  1  0
 27 38  1  0
 27 28  1  0
 28 29  1  0
 28 30  1  0
 28 75  1  1
 29 76  1  0
 29 77  1  0
 29 78  1  0
 30 31  1  0
 30 79  1  0
 30 80  1  0
 31 32  1  0
 31 81  1  0
 31 82  1  0
 32 33  1  0
 32 83  1  1
 33 34  1  0
 33 35  1  0
 33 84  1  1
 34 85  1  0
 34 86  1  0
 34 87  1  0
 35 36  1  0
 35 88  1  0
 35 89  1  0
 36 37  1  0
 36 90  1  0
 36 91  1  0
 37 38  1  0
 37 92  1  1
 38 39  1  0
 38 93  1  6
 39 40  1  0
 40 41  2  0
M  END
>  <i_m_ct_stereo_status>  (202) 
1

>  <s_m_source_file>  (202) 
/var/tmp/pbs.5076255.sched01/tmpxnahmhzs/434e81vi2s.sdf

>  <i_m_source_file_index>  (202) 
40

>  <i_lp_mmshare_version>  (202) 
48012

>  <i_f3d_flags>  (202) 
0

>  <s_epik_input>  (202) 
W0NIM11bQ0BIXTFbQ0gyXVtDSDJdW0NAQEhdKFtDQEhdMk9DMz1PKVtDQEhdKFtDSDNdKVtDSDJdW0NASF0oW0NAQEhdKE80KVtDSDJdW0NIMl01KVtDQEBdMihbQ0gyXVtDSDJdNilbQ0BASF0oW0NIM10pW0NIMl1bQ0gyXVtDQEBIXTFbQ0BdMzZbQ0BASF0oTzcpW0NIXThbQ0BIXShDOShbQ0gzXSlbQ0gzXSlbQ0BASF00W0NIMl1bQ0BIXTlbQ0BIXTdbQ0BIXThbQ0BdMTVbQ0gyXU8x

>  <s_epik_cmdline>  (202) 
J2VwaWtfcHl0aG9uJywgJy1waHQnLCAnMi4wJywgJy1waCcsICc3LjAnLCAnLXRuJywgJzgnLCAnLW1hJywgJzIwMCcsICctaW1hZScsICc8aW5maWxlLm1hZT4nLCAnLW9tYWUnLCAnPG91dGZpbGUubWFlPic=

>  <r_lp_tautomer_probability>  (202) 
1

>  <r_epik_Ionization_Penalty>  (202) 
7.00227e-11

>  <r_epik_Ionization_Penalty_Charging>  (202) 
0

>  <r_epik_Ionization_Penalty_Neutral>  (202) 
7.00227e-11

>  <r_epik_State_Penalty>  (202) 
-0

>  <r_epik_Charging_Adjusted_Penalty>  (202) 
0

>  <i_epik_Tot_Q>  (202) 
0

>  <i_epik_Tot_abs_Q>  (202) 
0

>  <s_epik_Chemistry_Notes>  (202) 
This compound has an ester and may undergo hydrolysis at high or low pH.

>  <s_lp_Force_Field>  (202) 
OPLS3e

>  <r_lp_Energy>  (202) 
816.164

>  <b_lp_Chiralities_Consistent>  (202) 
1

>  <s_lp_Variant>  (202) 
59:0-5

>  <s_i_glide_gridfile>  (202) 
pfpi4k_grid

>  <i_i_glide_lignum>  (202) 
40

>  <i_i_glide_rotatable_bonds>  (202) 
0

>  <r_i_docking_score>  (202) 
-1.91164

>  <r_i_glide_ligand_efficiency>  (202) 
-0.0466255

>  <r_i_glide_ligand_efficiency_sa>  (202) 
-0.160775

>  <r_i_glide_ligand_efficiency_ln>  (202) 
-0.405562

>  <r_i_glide_gscore>  (202) 
-1.91164

>  <r_i_glide_lipo>  (202) 
-0.335271

>  <r_i_glide_hbond>  (202) 
0

>  <r_i_glide_metal>  (202) 
-0

>  <r_i_glide_rewards>  (202) 
0

>  <r_i_glide_evdw>  (202) 
-31.7091

>  <r_i_glide_ecoul>  (202) 
0.101883

>  <r_i_glide_erotb>  (202) 
0

>  <r_i_glide_esite>  (202) 
-0.00619978

>  <r_i_glide_emodel>  (202) 
-35.4245

>  <r_i_glide_energy>  (202) 
-31.6072

>  <r_i_glide_einternal>  (202) 
0

>  <r_i_glide_intrahb_reward>  (202) 
-0

>  <i_i_glide_confnum>  (202) 
2

>  <i_i_glide_posenum>  (202) 
1

>  <r_i_glide_eff_state_penalty>  (202) 
0

>  <ligand_id>  (202) 
59

>  <original_smiles>  (202) 
CC1CC2C3CCC4(CO4)C4C5OC(C4C4C(CC5C4(C)C)O3)C34CCC25C(C)CCC3C(C)CCC1C5OC4=O

>  <smiles>  (202) 
[H]C([H])([H])C1([H])C([H])([H])C2([H])C3([H])OC4([H])C([H])([H])C5([H])C6([H])OC([H])(C([H])(C6([H])C6(OC6([H])[H])C([H])([H])C3([H])[H])C4([H])C5(C([H])([H])[H])C([H])([H])[H])C34C(=O)OC5([H])C1([H])C([H])([H])C([H])([H])C([H])(C([H])([H])[H])C3([H])C([H])([H])C([H])([H])C([H])(C([H])([H])[H])C52C([H])([H])C4([H])[H]

$$$$
59:4:2
     RDKit          3D

 93102  0  0  1  0  0  0  0  0999 V2000
    5.0169  -10.4671    5.2634 C   0  0  0  0  0  0  0  0  0  0  0  0
    4.5667   -9.2567    4.4066 C   0  0  2  0  0  0  0  0  0  0  0  0
    5.2685   -7.8998    5.0089 C   0  0  0  0  0  0  0  0  0  0  0  0
    4.8257   -6.4436    4.4789 C   0  0  2  0  0  0  0  0  0  0  0  0
    5.0028   -5.0376    5.4138 C   0  0  1  0  0  0  0  0  0  0  0  0
    5.0723   -3.6429    4.7319 C   0  0  0  0  0  0  0  0  0  0  0  0
    3.8476   -3.1135    3.9612 C   0  0  0  0  0  0  0  0  0  0  0  0
    2.8265   -2.1926    4.6111 C   0  0  1  0  0  0  0  0  0  0  0  0
    2.9832   -0.6720    4.7664 C   0  0  0  0  0  0  0  0  0  0  0  0
    2.3804   -1.2033    3.6307 O   0  0  0  0  0  0  0  0  0  0  0  0
    1.5525   -2.9505    5.1301 C   0  0  2  0  0  0  0  0  0  0  0  0
    0.6284   -2.3702    6.1004 C   0  0  1  0  0  0  0  0  0  0  0  0
   -0.4003   -3.4520    5.7639 O   0  0  0  0  0  0  0  0  0  0  0  0
    0.1343   -4.8392    5.7312 C   0  0  2  0  0  0  0  0  0  0  0  0
    1.5726   -4.2895    5.9173 C   0  0  2  0  0  0  0  0  0  0  0  0
    2.0045   -4.3955    7.4345 C   0  0  1  0  0  0  0  0  0  0  0  0
    3.4518   -3.9323    7.4252 C   0  0  2  0  0  0  0  0  0  0  0  0
    3.1207   -2.3884    7.4454 C   0  0  0  0  0  0  0  0  0  0  0  0
    1.4941   -2.2235    7.4944 C   0  0  2  0  0  0  0  0  0  0  0  0
    1.2120   -3.4283    8.3799 C   0  0  0  0  0  0  0  0  0  0  0  0
   -0.2900   -3.6929    8.6905 C   0  0  0  0  0  0  0  0  0  0  0  0
    1.7904   -3.3422    9.8397 C   0  0  0  0  0  0  0  0  0  0  0  0
    4.5525   -4.7526    6.8060 O   0  0  0  0  0  0  0  0  0  0  0  0
    0.0482   -6.3213    4.9007 C   0  0  1  0  0  0  0  0  0  0  0  0
    1.0712   -7.0955    5.8672 C   0  0  0  0  0  0  0  0  0  0  0  0
    2.6890   -6.8783    5.5720 C   0  0  0  0  0  0  0  0  0  0  0  0
    3.4036   -6.6842    3.9792 C   0  0  1  0  0  0  0  0  0  0  0  0
    3.0474   -6.1818    2.2654 C   0  0  1  0  0  0  0  0  0  0  0  0
    4.2787   -6.3781    1.3382 C   0  0  0  0  0  0  0  0  0  0  0  0
    1.6488   -6.6810    1.3196 C   0  0  0  0  0  0  0  0  0  0  0  0
   -0.0163   -6.8268    1.7881 C   0  0  0  0  0  0  0  0  0  0  0  0
   -0.6458   -7.0658    3.4500 C   0  0  1  0  0  0  0  0  0  0  0  0
   -0.7939   -8.6950    3.6179 C   0  0  1  0  0  0  0  0  0  0  0  0
   -1.6724   -9.2785    2.4985 C   0  0  0  0  0  0  0  0  0  0  0  0
    0.3212   -9.8352    4.0569 C   0  0  0  0  0  0  0  0  0  0  0  0
    1.8770  -10.1031    3.6369 C   0  0  0  0  0  0  0  0  0  0  0  0
    2.9821   -9.1951    4.3236 C   0  0  2  0  0  0  0  0  0  0  0  0
    2.8722   -7.9521    3.5063 C   0  0  1  0  0  0  0  0  0  0  0  0
    1.5770   -7.5009    3.6514 O   0  0  0  0  0  0  0  0  0  0  0  0
    0.9610   -6.1058    3.9413 C   0  0  0  0  0  0  0  0  0  0  0  0
    1.0020   -5.0194    3.3425 O   0  0  0  0  0  0  0  0  0  0  0  0
    4.6922  -10.3437    6.3030 H   0  0  0  0  0  0  0  0  0  0  0  0
    6.0986  -10.5742    5.2679 H   0  0  0  0  0  0  0  0  0  0  0  0
    4.5856  -11.3996    4.8982 H   0  0  0  0  0  0  0  0  0  0  0  0
    4.9536   -9.4317    3.4060 H   0  0  0  0  0  0  0  0  0  0  0  0
    5.2919   -7.9153    6.0913 H   0  0  0  0  0  0  0  0  0  0  0  0
    6.3268   -7.9889    4.7504 H   0  0  0  0  0  0  0  0  0  0  0  0
    5.4737   -6.2718    3.6279 H   0  0  0  0  0  0  0  0  0  0  0  0
    6.0485   -5.1878    5.6741 H   0  0  0  0  0  0  0  0  0  0  0  0
    5.4498   -2.8879    5.4186 H   0  0  0  0  0  0  0  0  0  0  0  0
    5.8491   -3.7418    3.9720 H   0  0  0  0  0  0  0  0  0  0  0  0
    4.2143   -2.6150    3.0604 H   0  0  0  0  0  0  0  0  0  0  0  0
    3.3284   -3.9684    3.6222 H   0  0  0  0  0  0  0  0  0  0  0  0
    2.2823   -0.1244    5.3954 H   0  0  0  0  0  0  0  0  0  0  0  0
    3.9698   -0.2635    4.6691 H   0  0  0  0  0  0  0  0  0  0  0  0
    0.9612   -2.9538    4.2228 H   0  0  0  0  0  0  0  0  0  0  0  0
    0.2634   -1.3948    5.7702 H   0  0  0  0  0  0  0  0  0  0  0  0
   -0.2694   -5.1584    6.6854 H   0  0  0  0  0  0  0  0  0  0  0  0
    2.3677   -4.6470    5.3119 H   0  0  0  0  0  0  0  0  0  0  0  0
    1.9460   -5.3879    7.8579 H   0  0  0  0  0  0  0  0  0  0  0  0
    3.8079   -4.1162    8.4351 H   0  0  0  0  0  0  0  0  0  0  0  0
    3.5326   -1.9646    8.3653 H   0  0  0  0  0  0  0  0  0  0  0  0
    3.7154   -1.8020    6.7588 H   0  0  0  0  0  0  0  0  0  0  0  0
    1.2172   -1.2967    8.0008 H   0  0  0  0  0  0  0  0  0  0  0  0
   -0.6220   -3.1301    9.5656 H   0  0  0  0  0  0  0  0  0  0  0  0
   -0.4542   -4.7443    8.9368 H   0  0  0  0  0  0  0  0  0  0  0  0
   -0.9994   -3.4108    7.9273 H   0  0  0  0  0  0  0  0  0  0  0  0
    1.2981   -2.5551   10.4181 H   0  0  0  0  0  0  0  0  0  0  0  0
    2.8504   -3.1291    9.9580 H   0  0  0  0  0  0  0  0  0  0  0  0
    1.6177   -4.2752   10.3684 H   0  0  0  0  0  0  0  0  0  0  0  0
    0.8672   -6.8988    6.9135 H   0  0  0  0  0  0  0  0  0  0  0  0
    0.8367   -8.1457    5.8784 H   0  0  0  0  0  0  0  0  0  0  0  0
    3.0598   -6.2054    6.2772 H   0  0  0  0  0  0  0  0  0  0  0  0
    3.1682   -7.6237    6.1865 H   0  0  0  0  0  0  0  0  0  0  0  0
    2.9726   -5.1024    2.1516 H   0  0  0  0  0  0  0  0  0  0  0  0
    4.6654   -7.3918    1.3549 H   0  0  0  0  0  0  0  0  0  0  0  0
    5.0869   -5.6955    1.6013 H   0  0  0  0  0  0  0  0  0  0  0  0
    4.0203   -6.1414    0.3021 H   0  0  0  0  0  0  0  0  0  0  0  0
    1.6425   -6.0297    0.4328 H   0  0  0  0  0  0  0  0  0  0  0  0
    1.8891   -7.6621    0.9107 H   0  0  0  0  0  0  0  0  0  0  0  0
   -0.4832   -5.8991    1.4521 H   0  0  0  0  0  0  0  0  0  0  0  0
   -0.4694   -7.5438    1.0997 H   0  0  0  0  0  0  0  0  0  0  0  0
   -1.6773   -6.7054    3.4101 H   0  0  0  0  0  0  0  0  0  0  0  0
   -1.4814   -8.7412    4.4723 H   0  0  0  0  0  0  0  0  0  0  0  0
   -1.0646   -9.5659    1.6604 H   0  0  0  0  0  0  0  0  0  0  0  0
   -2.4724   -8.6096    2.1731 H   0  0  0  0  0  0  0  0  0  0  0  0
   -2.1442  -10.1869    2.8300 H   0  0  0  0  0  0  0  0  0  0  0  0
    0.2647   -9.9499    5.1376 H   0  0  0  0  0  0  0  0  0  0  0  0
   -0.1576  -10.7802    3.7690 H   0  0  0  0  0  0  0  0  0  0  0  0
    2.0928  -11.1323    3.9502 H   0  0  0  0  0  0  0  0  0  0  0  0
    1.9743  -10.1211    2.5453 H   0  0  0  0  0  0  0  0  0  0  0  0
    2.6293   -9.2757    5.3438 H   0  0  0  0  0  0  0  0  0  0  0  0
    3.1629   -8.2821    2.5093 H   0  0  0  0  0  0  0  0  0  0  0  0
  1  2  1  0
  1 42  1  0
  1 43  1  0
  1 44  1  0
  2 37  1  0
  2  3  1  0
  2 45  1  6
  3  4  1  0
  3 46  1  0
  3 47  1  0
  4 27  1  0
  4  5  1  0
  4 48  1  6
  5 23  1  0
  5  6  1  0
  5 49  1  1
  6  7  1  0
  6 50  1  0
  6 51  1  0
  7  8  1  0
  7 52  1  0
  7 53  1  0
  8 10  1  6
  8  9  1  0
  8 11  1  0
  9 10  1  0
  9 54  1  0
  9 55  1  0
 11 15  1  0
 11 12  1  0
 11 56  1  6
 12 19  1  0
 12 13  1  0
 12 57  1  6
 13 14  1  0
 14 15  1  0
 14 24  1  0
 14 58  1  1
 15 16  1  0
 15 59  1  6
 16 20  1  0
 16 17  1  0
 16 60  1  1
 17 18  1  0
 17 23  1  0
 17 61  1  1
 18 19  1  0
 18 62  1  0
 18 63  1  0
 19 20  1  0
 19 64  1  1
 20 21  1  0
 20 22  1  0
 21 65  1  0
 21 66  1  0
 21 67  1  0
 22 68  1  0
 22 69  1  0
 22 70  1  0
 24 32  1  0
 24 40  1  6
 24 25  1  0
 25 26  1  0
 25 71  1  0
 25 72  1  0
 27 26  1  1
 26 73  1  0
 26 74  1  0
 27 38  1  0
 27 28  1  0
 28 29  1  0
 28 30  1  0
 28 75  1  1
 29 76  1  0
 29 77  1  0
 29 78  1  0
 30 31  1  0
 30 79  1  0
 30 80  1  0
 31 32  1  0
 31 81  1  0
 31 82  1  0
 32 33  1  0
 32 83  1  6
 33 34  1  0
 33 35  1  0
 33 84  1  1
 34 85  1  0
 34 86  1  0
 34 87  1  0
 35 36  1  0
 35 88  1  0
 35 89  1  0
 36 37  1  0
 36 90  1  0
 36 91  1  0
 37 38  1  0
 37 92  1  1
 38 39  1  0
 38 93  1  6
 39 40  1  0
 40 41  2  0
M  END
>  <i_m_ct_stereo_status>  (203) 
1

>  <s_m_source_file>  (203) 
/var/tmp/pbs.5076255.sched01/tmpxnahmhzs/434e81vi2s.sdf

>  <i_m_source_file_index>  (203) 
40

>  <i_lp_mmshare_version>  (203) 
48012

>  <i_f3d_flags>  (203) 
0

>  <s_epik_input>  (203) 
W0NIM11bQ0BIXTFbQ0gyXVtDSDJdW0NAQEhdKFtDQEhdMk9DMz1PKVtDQEhdKFtDSDNdKVtDSDJdW0NASF0oW0NAQEhdKE80KVtDSDJdW0NIMl01KVtDQEBdMihbQ0gyXVtDSDJdNilbQ0BASF0oW0NIM10pW0NIMl1bQ0gyXVtDQEBIXTFbQ0BdMzZbQ0BASF0oTzcpW0NIXThbQ0BIXShDOShbQ0gzXSlbQ0gzXSlbQ0BASF00W0NIMl1bQ0BIXTlbQ0BIXTdbQ0BIXThbQ0BdMTVbQ0gyXU8x

>  <s_epik_cmdline>  (203) 
J2VwaWtfcHl0aG9uJywgJy1waHQnLCAnMi4wJywgJy1waCcsICc3LjAnLCAnLXRuJywgJzgnLCAnLW1hJywgJzIwMCcsICctaW1hZScsICc8aW5maWxlLm1hZT4nLCAnLW9tYWUnLCAnPG91dGZpbGUubWFlPic=

>  <r_lp_tautomer_probability>  (203) 
1

>  <r_epik_Ionization_Penalty>  (203) 
7.00227e-11

>  <r_epik_Ionization_Penalty_Charging>  (203) 
0

>  <r_epik_Ionization_Penalty_Neutral>  (203) 
7.00227e-11

>  <r_epik_State_Penalty>  (203) 
-0

>  <r_epik_Charging_Adjusted_Penalty>  (203) 
0

>  <i_epik_Tot_Q>  (203) 
0

>  <i_epik_Tot_abs_Q>  (203) 
0

>  <s_epik_Chemistry_Notes>  (203) 
This compound has an ester and may undergo hydrolysis at high or low pH.

>  <s_lp_Force_Field>  (203) 
OPLS3e

>  <r_lp_Energy>  (203) 
816.164

>  <b_lp_Chiralities_Consistent>  (203) 
1

>  <s_lp_Variant>  (203) 
59:0-5

>  <s_i_glide_gridfile>  (203) 
pfpi4k_grid

>  <i_i_glide_lignum>  (203) 
40

>  <i_i_glide_rotatable_bonds>  (203) 
0

>  <r_i_docking_score>  (203) 
-1.46797

>  <r_i_glide_ligand_efficiency>  (203) 
-0.0358042

>  <r_i_glide_ligand_efficiency_sa>  (203) 
-0.123461

>  <r_i_glide_ligand_efficiency_ln>  (203) 
-0.311435

>  <r_i_glide_gscore>  (203) 
-1.46797

>  <r_i_glide_lipo>  (203) 
-0.350555

>  <r_i_glide_hbond>  (203) 
0

>  <r_i_glide_metal>  (203) 
-0

>  <r_i_glide_rewards>  (203) 
0

>  <r_i_glide_evdw>  (203) 
-28.2505

>  <r_i_glide_ecoul>  (203) 
2.089

>  <r_i_glide_erotb>  (203) 
0

>  <r_i_glide_esite>  (203) 
-0.0182403

>  <r_i_glide_emodel>  (203) 
-28.8377

>  <r_i_glide_energy>  (203) 
-26.1615

>  <r_i_glide_einternal>  (203) 
0

>  <r_i_glide_intrahb_reward>  (203) 
-0

>  <i_i_glide_confnum>  (203) 
2

>  <i_i_glide_posenum>  (203) 
6

>  <r_i_glide_eff_state_penalty>  (203) 
0

>  <ligand_id>  (203) 
59

>  <original_smiles>  (203) 
CC1CC2C3CCC4(CO4)C4C5OC(C4C4C(CC5C4(C)C)O3)C34CCC25C(C)CCC3C(C)CCC1C5OC4=O

>  <smiles>  (203) 
[H]C([H])([H])C1([H])C([H])([H])C2([H])C3([H])OC4([H])C([H])([H])C5([H])C6([H])OC([H])(C([H])(C6([H])C6(OC6([H])[H])C([H])([H])C3([H])[H])C4([H])C5(C([H])([H])[H])C([H])([H])[H])C34C(=O)OC5([H])C1([H])C([H])([H])C([H])([H])C([H])(C([H])([H])[H])C3([H])C([H])([H])C([H])([H])C([H])(C([H])([H])[H])C52C([H])([H])C4([H])[H]

$$$$
59:5:0
     RDKit          3D

 93102  0  0  1  0  0  0  0  0999 V2000
    5.3290   -3.3077    8.7674 C   0  0  0  0  0  0  0  0  0  0  0  0
    4.0746   -3.4007    7.8829 C   0  0  2  0  0  0  0  0  0  0  0  0
    3.4192   -4.9105    8.0156 C   0  0  0  0  0  0  0  0  0  0  0  0
    2.2287   -5.3432    7.0249 C   0  0  2  0  0  0  0  0  0  0  0  0
    1.8300   -6.8513    6.3972 C   0  0  2  0  0  0  0  0  0  0  0  0
    0.3689   -7.2803    6.3584 C   0  0  0  0  0  0  0  0  0  0  0  0
    0.0468   -8.1980    5.1370 C   0  0  0  0  0  0  0  0  0  0  0  0
    0.2265   -7.7532    3.6182 C   0  0  1  0  0  0  0  0  0  0  0  0
   -0.9108   -8.1701    2.7001 C   0  0  0  0  0  0  0  0  0  0  0  0
   -0.8204   -6.8435    3.2282 O   0  0  0  0  0  0  0  0  0  0  0  0
    1.5937   -7.4696    2.7933 C   0  0  2  0  0  0  0  0  0  0  0  0
    2.1981   -8.2599    1.6872 C   0  0  1  0  0  0  0  0  0  0  0  0
    2.9445   -7.0330    1.1420 O   0  0  0  0  0  0  0  0  0  0  0  0
    3.6939   -6.2315    2.1307 C   0  0  2  0  0  0  0  0  0  0  0  0
    3.0392   -7.0874    3.2525 C   0  0  2  0  0  0  0  0  0  0  0  0
    3.9839   -8.1812    3.8397 C   0  0  1  0  0  0  0  0  0  0  0  0
    3.0945   -8.8462    4.9065 C   0  0  2  0  0  0  0  0  0  0  0  0
    2.3442   -9.8504    3.8850 C   0  0  0  0  0  0  0  0  0  0  0  0
    2.8873   -9.5484    2.4086 C   0  0  2  0  0  0  0  0  0  0  0  0
    4.3417   -9.2754    2.7745 C   0  0  0  0  0  0  0  0  0  0  0  0
    5.2351   -8.9252    1.5506 C   0  0  0  0  0  0  0  0  0  0  0  0
    5.1127  -10.4973    3.3777 C   0  0  0  0  0  0  0  0  0  0  0  0
    2.6900   -8.0703    6.1662 O   0  0  0  0  0  0  0  0  0  0  0  0
    4.0215   -4.6136    2.6033 C   0  0  1  0  0  0  0  0  0  0  0  0
    4.8718   -4.9837    3.9409 C   0  0  0  0  0  0  0  0  0  0  0  0
    3.9986   -5.3361    5.3208 C   0  0  0  0  0  0  0  0  0  0  0  0
    2.5037   -4.4977    5.7909 C   0  0  1  0  0  0  0  0  0  0  0  0
    1.0288   -3.7442    5.1002 C   0  0  1  0  0  0  0  0  0  0  0  0
    0.0227   -3.2919    6.1833 C   0  0  0  0  0  0  0  0  0  0  0  0
    1.0544   -2.3930    3.9399 C   0  0  0  0  0  0  0  0  0  0  0  0
    2.0806   -2.1007    2.5373 C   0  0  0  0  0  0  0  0  0  0  0  0
    3.6482   -2.9094    2.1756 C   0  0  1  0  0  0  0  0  0  0  0  0
    4.8146   -1.9019    2.7994 C   0  0  1  0  0  0  0  0  0  0  0  0
    5.1729   -0.8665    1.7098 C   0  0  0  0  0  0  0  0  0  0  0  0
    4.6195   -1.0853    4.2208 C   0  0  0  0  0  0  0  0  0  0  0  0
    4.9108   -1.5439    5.7725 C   0  0  0  0  0  0  0  0  0  0  0  0
    4.3862   -2.9138    6.3956 C   0  0  2  0  0  0  0  0  0  0  0  0
    3.0592   -3.1754    5.7654 C   0  0  1  0  0  0  0  0  0  0  0  0
    3.3055   -3.3045    4.4040 O   0  0  0  0  0  0  0  0  0  0  0  0
    2.8972   -4.3247    3.2698 C   0  0  0  0  0  0  0  0  0  0  0  0
    1.7901   -4.6688    2.7993 O   0  0  0  0  0  0  0  0  0  0  0  0
    6.0884   -4.0134    8.4355 H   0  0  0  0  0  0  0  0  0  0  0  0
    5.1038   -3.5381    9.8098 H   0  0  0  0  0  0  0  0  0  0  0  0
    5.7696   -2.3112    8.7411 H   0  0  0  0  0  0  0  0  0  0  0  0
    3.3509   -2.6943    8.3022 H   0  0  0  0  0  0  0  0  0  0  0  0
    4.1962   -5.6835    8.0591 H   0  0  0  0  0  0  0  0  0  0  0  0
    2.9950   -4.9515    9.0101 H   0  0  0  0  0  0  0  0  0  0  0  0
    1.3381   -4.9939    7.5390 H   0  0  0  0  0  0  0  0  0  0  0  0
    1.5793   -6.4842    5.4457 H   0  0  0  0  0  0  0  0  0  0  0  0
    0.1326   -7.8133    7.2862 H   0  0  0  0  0  0  0  0  0  0  0  0
   -0.2773   -6.3995    6.3476 H   0  0  0  0  0  0  0  0  0  0  0  0
    0.4301   -9.1754    5.3833 H   0  0  0  0  0  0  0  0  0  0  0  0
   -1.0115   -8.3767    5.2348 H   0  0  0  0  0  0  0  0  0  0  0  0
   -0.7452   -8.2301    1.6235 H   0  0  0  0  0  0  0  0  0  0  0  0
   -1.7162   -8.7763    3.0958 H   0  0  0  0  0  0  0  0  0  0  0  0
    1.1622   -6.6805    2.1836 H   0  0  0  0  0  0  0  0  0  0  0  0
    1.4435   -8.5848    0.9799 H   0  0  0  0  0  0  0  0  0  0  0  0
    4.6992   -6.5569    1.9399 H   0  0  0  0  0  0  0  0  0  0  0  0
    2.6651   -6.5430    4.0071 H   0  0  0  0  0  0  0  0  0  0  0  0
    4.9080   -7.8010    4.2669 H   0  0  0  0  0  0  0  0  0  0  0  0
    3.7644   -9.5191    5.4372 H   0  0  0  0  0  0  0  0  0  0  0  0
    2.5850  -10.8720    4.1691 H   0  0  0  0  0  0  0  0  0  0  0  0
    1.2773   -9.9389    3.8163 H   0  0  0  0  0  0  0  0  0  0  0  0
    2.8039  -10.4235    1.7639 H   0  0  0  0  0  0  0  0  0  0  0  0
    5.6203   -9.8273    1.0742 H   0  0  0  0  0  0  0  0  0  0  0  0
    6.1041   -8.3447    1.8556 H   0  0  0  0  0  0  0  0  0  0  0  0
    4.7351   -8.4127    0.7353 H   0  0  0  0  0  0  0  0  0  0  0  0
    5.1821  -11.3123    2.6552 H   0  0  0  0  0  0  0  0  0  0  0  0
    4.7018  -10.9529    4.2730 H   0  0  0  0  0  0  0  0  0  0  0  0
    6.1315  -10.2079    3.6336 H   0  0  0  0  0  0  0  0  0  0  0  0
    5.5601   -5.7970    3.7395 H   0  0  0  0  0  0  0  0  0  0  0  0
    5.5804   -4.1780    4.1368 H   0  0  0  0  0  0  0  0  0  0  0  0
    3.9648   -6.3834    5.4609 H   0  0  0  0  0  0  0  0  0  0  0  0
    4.7704   -5.3383    6.0722 H   0  0  0  0  0  0  0  0  0  0  0  0
    0.4620   -4.5568    4.6440 H   0  0  0  0  0  0  0  0  0  0  0  0
    0.4713   -2.6191    6.9151 H   0  0  0  0  0  0  0  0  0  0  0  0
   -0.4149   -4.1332    6.7131 H   0  0  0  0  0  0  0  0  0  0  0  0
   -0.8163   -2.7691    5.7270 H   0  0  0  0  0  0  0  0  0  0  0  0
    0.0380   -2.3344    3.5560 H   0  0  0  0  0  0  0  0  0  0  0  0
    1.1452   -1.4814    4.5318 H   0  0  0  0  0  0  0  0  0  0  0  0
    1.4550   -2.3225    1.6780 H   0  0  0  0  0  0  0  0  0  0  0  0
    2.2269   -1.0322    2.4531 H   0  0  0  0  0  0  0  0  0  0  0  0
    3.7422   -2.8780    1.0971 H   0  0  0  0  0  0  0  0  0  0  0  0
    5.7326   -2.4807    2.8825 H   0  0  0  0  0  0  0  0  0  0  0  0
    4.3554   -0.1706    1.5118 H   0  0  0  0  0  0  0  0  0  0  0  0
    5.4301   -1.3453    0.7648 H   0  0  0  0  0  0  0  0  0  0  0  0
    6.0413   -0.2713    1.9952 H   0  0  0  0  0  0  0  0  0  0  0  0
    5.2443   -0.2005    4.1241 H   0  0  0  0  0  0  0  0  0  0  0  0
    3.6159   -0.6613    4.2131 H   0  0  0  0  0  0  0  0  0  0  0  0
    5.9901   -1.5138    5.9270 H   0  0  0  0  0  0  0  0  0  0  0  0
    4.5287   -0.7450    6.4043 H   0  0  0  0  0  0  0  0  0  0  0  0
    5.2587   -3.4809    6.1099 H   0  0  0  0  0  0  0  0  0  0  0  0
    2.4069   -2.3439    6.0401 H   0  0  0  0  0  0  0  0  0  0  0  0
  1  2  1  0
  1 42  1  0
  1 43  1  0
  1 44  1  0
  2 37  1  0
  2  3  1  0
  2 45  1  1
  3  4  1  0
  3 46  1  0
  3 47  1  0
  4 27  1  0
  4  5  1  0
  4 48  1  1
  5 23  1  0
  5  6  1  0
  5 49  1  6
  6  7  1  0
  6 50  1  0
  6 51  1  0
  7  8  1  0
  7 52  1  0
  7 53  1  0
  8 10  1  1
  8  9  1  0
  8 11  1  0
  9 10  1  0
  9 54  1  0
  9 55  1  0
 11 15  1  0
 11 12  1  0
 11 56  1  6
 12 19  1  0
 12 13  1  0
 12 57  1  6
 13 14  1  0
 14 15  1  0
 14 24  1  0
 14 58  1  6
 15 16  1  0
 15 59  1  1
 16 20  1  0
 16 17  1  0
 16 60  1  1
 17 18  1  0
 17 23  1  0
 17 61  1  1
 18 19  1  0
 18 62  1  0
 18 63  1  0
 19 20  1  0
 19 64  1  6
 20 21  1  0
 20 22  1  0
 21 65  1  0
 21 66  1  0
 21 67  1  0
 22 68  1  0
 22 69  1  0
 22 70  1  0
 24 32  1  0
 24 40  1  1
 24 25  1  0
 25 26  1  0
 25 71  1  0
 25 72  1  0
 27 26  1  6
 26 73  1  0
 26 74  1  0
 27 38  1  0
 27 28  1  0
 28 29  1  0
 28 30  1  0
 28 75  1  6
 29 76  1  0
 29 77  1  0
 29 78  1  0
 30 31  1  0
 30 79  1  0
 30 80  1  0
 31 32  1  0
 31 81  1  0
 31 82  1  0
 32 33  1  0
 32 83  1  6
 33 34  1  0
 33 35  1  0
 33 84  1  1
 34 85  1  0
 34 86  1  0
 34 87  1  0
 35 36  1  0
 35 88  1  0
 35 89  1  0
 36 37  1  0
 36 90  1  0
 36 91  1  0
 37 38  1  0
 37 92  1  6
 38 39  1  0
 38 93  1  6
 39 40  1  0
 40 41  2  0
M  END
>  <i_m_ct_stereo_status>  (204) 
1

>  <s_m_source_file>  (204) 
/var/tmp/pbs.5076255.sched01/tmpxnahmhzs/434e81vi2s.sdf

>  <i_m_source_file_index>  (204) 
41

>  <i_lp_mmshare_version>  (204) 
48012

>  <i_f3d_flags>  (204) 
0

>  <s_epik_input>  (204) 
W0NIM11bQ0BIXTFbQ0gyXVtDSDJdW0NAQEhdKFtDQEhdMk9DMz1PKVtDQEhdKFtDSDNdKVtDSDJdW0NASF0oW0NAQEhdKE80KVtDSDJdW0NIMl01KVtDQEBdMihbQ0gyXVtDSDJdNilbQ0BASF0oW0NIM10pW0NIMl1bQ0gyXVtDQEBIXTFbQ0BdMzZbQ0BASF0oTzcpW0NIXThbQ0BIXShDOShbQ0gzXSlbQ0gzXSlbQ0BASF00W0NIMl1bQ0BIXTlbQ0BIXTdbQ0BIXThbQ0BdMTVbQ0gyXU8x

>  <s_epik_cmdline>  (204) 
J2VwaWtfcHl0aG9uJywgJy1waHQnLCAnMi4wJywgJy1waCcsICc3LjAnLCAnLXRuJywgJzgnLCAnLW1hJywgJzIwMCcsICctaW1hZScsICc8aW5maWxlLm1hZT4nLCAnLW9tYWUnLCAnPG91dGZpbGUubWFlPic=

>  <r_lp_tautomer_probability>  (204) 
1

>  <r_epik_Ionization_Penalty>  (204) 
7.00227e-11

>  <r_epik_Ionization_Penalty_Charging>  (204) 
0

>  <r_epik_Ionization_Penalty_Neutral>  (204) 
7.00227e-11

>  <r_epik_State_Penalty>  (204) 
-0

>  <r_epik_Charging_Adjusted_Penalty>  (204) 
0

>  <i_epik_Tot_Q>  (204) 
0

>  <i_epik_Tot_abs_Q>  (204) 
0

>  <s_epik_Chemistry_Notes>  (204) 
This compound has an ester and may undergo hydrolysis at high or low pH.

>  <s_lp_Force_Field>  (204) 
OPLS3e

>  <r_lp_Energy>  (204) 
851.971

>  <b_lp_Chiralities_Consistent>  (204) 
1

>  <s_lp_Variant>  (204) 
59:0-6

>  <s_i_glide_gridfile>  (204) 
pfpi4k_grid

>  <i_i_glide_lignum>  (204) 
41

>  <i_i_glide_rotatable_bonds>  (204) 
0

>  <r_i_docking_score>  (204) 
-2.32895

>  <r_i_glide_ligand_efficiency>  (204) 
-0.0568037

>  <r_i_glide_ligand_efficiency_sa>  (204) 
-0.195871

>  <r_i_glide_ligand_efficiency_ln>  (204) 
-0.494095

>  <r_i_glide_gscore>  (204) 
-2.32895

>  <r_i_glide_lipo>  (204) 
-0.289614

>  <r_i_glide_hbond>  (204) 
-0.16

>  <r_i_glide_metal>  (204) 
-0

>  <r_i_glide_rewards>  (204) 
0

>  <r_i_glide_evdw>  (204) 
-31.348

>  <r_i_glide_ecoul>  (204) 
-2.07782

>  <r_i_glide_erotb>  (204) 
0

>  <r_i_glide_esite>  (204) 
-0.00026239

>  <r_i_glide_emodel>  (204) 
-38.6562

>  <r_i_glide_energy>  (204) 
-33.4258

>  <r_i_glide_einternal>  (204) 
0

>  <r_i_glide_intrahb_reward>  (204) 
-0

>  <i_i_glide_confnum>  (204) 
2

>  <i_i_glide_posenum>  (204) 
7

>  <r_i_glide_eff_state_penalty>  (204) 
0

>  <ligand_id>  (204) 
59

>  <original_smiles>  (204) 
CC1CC2C3CCC4(CO4)C4C5OC(C4C4C(CC5C4(C)C)O3)C34CCC25C(C)CCC3C(C)CCC1C5OC4=O

>  <smiles>  (204) 
[H]C([H])([H])C1([H])C([H])([H])C2([H])C3([H])OC4([H])C([H])([H])C5([H])C6([H])OC([H])(C([H])(C6([H])C6(OC6([H])[H])C([H])([H])C3([H])[H])C4([H])C5(C([H])([H])[H])C([H])([H])[H])C34C(=O)OC5([H])C1([H])C([H])([H])C([H])([H])C([H])(C([H])([H])[H])C3([H])C([H])([H])C([H])([H])C([H])(C([H])([H])[H])C52C([H])([H])C4([H])[H]

$$$$
59:5:1
     RDKit          3D

 93102  0  0  1  0  0  0  0  0999 V2000
    7.4807   -8.6492    6.0197 C   0  0  0  0  0  0  0  0  0  0  0  0
    6.3946   -8.5440    4.9365 C   0  0  2  0  0  0  0  0  0  0  0  0
    6.9009   -7.5148    3.7490 C   0  0  0  0  0  0  0  0  0  0  0  0
    5.8629   -7.0600    2.6080 C   0  0  2  0  0  0  0  0  0  0  0  0
    5.7493   -5.6254    1.7417 C   0  0  2  0  0  0  0  0  0  0  0  0
    5.4816   -5.6796    0.2537 C   0  0  0  0  0  0  0  0  0  0  0  0
    4.6607   -4.4486   -0.2469 C   0  0  0  0  0  0  0  0  0  0  0  0
    3.1973   -4.0891    0.2904 C   0  0  1  0  0  0  0  0  0  0  0  0
    2.2672   -3.6855   -0.8405 C   0  0  0  0  0  0  0  0  0  0  0  0
    2.2160   -4.9914   -0.2773 O   0  0  0  0  0  0  0  0  0  0  0  0
    2.7453   -3.5530    1.7318 C   0  0  2  0  0  0  0  0  0  0  0  0
    2.2069   -2.2267    2.0960 C   0  0  1  0  0  0  0  0  0  0  0  0
    1.4544   -2.7896    3.3108 O   0  0  0  0  0  0  0  0  0  0  0  0
    2.2398   -3.7091    4.1902 C   0  0  2  0  0  0  0  0  0  0  0  0
    3.3848   -3.6641    3.1346 C   0  0  2  0  0  0  0  0  0  0  0  0
    4.5670   -2.7287    3.5146 C   0  0  1  0  0  0  0  0  0  0  0  0
    5.4921   -2.9042    2.3060 C   0  0  2  0  0  0  0  0  0  0  0  0
    4.7763   -1.8073    1.3629 C   0  0  0  0  0  0  0  0  0  0  0  0
    3.5097   -1.2480    2.1584 C   0  0  2  0  0  0  0  0  0  0  0  0
    4.1261   -1.2240    3.5534 C   0  0  0  0  0  0  0  0  0  0  0  0
    3.1520   -0.7173    4.6507 C   0  0  0  0  0  0  0  0  0  0  0  0
    5.3291   -0.2394    3.7308 C   0  0  0  0  0  0  0  0  0  0  0  0
    6.2228   -4.2304    2.0694 O   0  0  0  0  0  0  0  0  0  0  0  0
    2.1453   -5.1889    5.0416 C   0  0  1  0  0  0  0  0  0  0  0  0
    3.6957   -5.2228    5.5298 C   0  0  0  0  0  0  0  0  0  0  0  0
    4.8160   -5.7875    4.4351 C   0  0  0  0  0  0  0  0  0  0  0  0
    4.5220   -7.1465    3.3291 C   0  0  1  0  0  0  0  0  0  0  0  0
    3.2323   -7.9038    2.3414 C   0  0  1  0  0  0  0  0  0  0  0  0
    3.7589   -9.0637    1.4598 C   0  0  0  0  0  0  0  0  0  0  0  0
    1.7040   -8.5286    3.0109 C   0  0  0  0  0  0  0  0  0  0  0  0
    0.6332   -7.8452    4.2288 C   0  0  0  0  0  0  0  0  0  0  0  0
    1.0353   -6.5550    5.4022 C   0  0  1  0  0  0  0  0  0  0  0  0
    1.5262   -7.3332    6.7800 C   0  0  1  0  0  0  0  0  0  0  0  0
    0.2765   -7.6281    7.6381 C   0  0  0  0  0  0  0  0  0  0  0  0
    2.4269   -8.7177    6.7437 C   0  0  0  0  0  0  0  0  0  0  0  0
    4.0537   -8.9341    6.6556 C   0  0  0  0  0  0  0  0  0  0  0  0
    4.9736   -8.2035    5.5807 C   0  0  2  0  0  0  0  0  0  0  0  0
    4.1552   -8.0943    4.3386 C   0  0  1  0  0  0  0  0  0  0  0  0
    3.0658   -7.2825    4.6800 O   0  0  0  0  0  0  0  0  0  0  0  0
    2.3343   -6.0644    4.0326 C   0  0  0  0  0  0  0  0  0  0  0  0
    1.7257   -5.8754    2.9690 O   0  0  0  0  0  0  0  0  0  0  0  0
    7.6534   -7.6789    6.4876 H   0  0  0  0  0  0  0  0  0  0  0  0
    8.4338   -8.9817    5.6030 H   0  0  0  0  0  0  0  0  0  0  0  0
    7.2039   -9.3526    6.8075 H   0  0  0  0  0  0  0  0  0  0  0  0
    6.3119   -9.5411    4.4915 H   0  0  0  0  0  0  0  0  0  0  0  0
    7.4413   -6.6537    4.1612 H   0  0  0  0  0  0  0  0  0  0  0  0
    7.6838   -8.0493    3.2263 H   0  0  0  0  0  0  0  0  0  0  0  0
    5.9532   -7.8493    1.8644 H   0  0  0  0  0  0  0  0  0  0  0  0
    4.6992   -5.5948    1.7653 H   0  0  0  0  0  0  0  0  0  0  0  0
    6.4386   -5.6991   -0.2691 H   0  0  0  0  0  0  0  0  0  0  0  0
    4.9692   -6.6048   -0.0183 H   0  0  0  0  0  0  0  0  0  0  0  0
    5.3564   -3.6175   -0.3021 H   0  0  0  0  0  0  0  0  0  0  0  0
    4.5303   -4.6613   -1.3091 H   0  0  0  0  0  0  0  0  0  0  0  0
    1.4145   -3.0634   -0.6037 H   0  0  0  0  0  0  0  0  0  0  0  0
    2.6195   -3.6326   -1.8643 H   0  0  0  0  0  0  0  0  0  0  0  0
    1.8143   -4.0854    1.7102 H   0  0  0  0  0  0  0  0  0  0  0  0
    1.4979   -1.8566    1.3601 H   0  0  0  0  0  0  0  0  0  0  0  0
    2.4603   -3.0457    5.0135 H   0  0  0  0  0  0  0  0  0  0  0  0
    3.7452   -4.5762    2.9079 H   0  0  0  0  0  0  0  0  0  0  0  0
    5.0615   -2.9706    4.4545 H   0  0  0  0  0  0  0  0  0  0  0  0
    6.3913   -2.3620    2.5635 H   0  0  0  0  0  0  0  0  0  0  0  0
    5.4869   -1.0037    1.1722 H   0  0  0  0  0  0  0  0  0  0  0  0
    4.4627   -2.0153    0.3540 H   0  0  0  0  0  0  0  0  0  0  0  0
    3.2417   -0.2458    1.8206 H   0  0  0  0  0  0  0  0  0  0  0  0
    3.1684    0.3707    4.7205 H   0  0  0  0  0  0  0  0  0  0  0  0
    3.4360   -1.0944    5.6322 H   0  0  0  0  0  0  0  0  0  0  0  0
    2.1027   -0.9355    4.4829 H   0  0  0  0  0  0  0  0  0  0  0  0
    5.0058    0.7914    3.5837 H   0  0  0  0  0  0  0  0  0  0  0  0
    6.1829   -0.3642    3.0721 H   0  0  0  0  0  0  0  0  0  0  0  0
    5.7220   -0.3049    4.7454 H   0  0  0  0  0  0  0  0  0  0  0  0
    4.0074   -4.2445    5.8750 H   0  0  0  0  0  0  0  0  0  0  0  0
    3.7625   -5.7788    6.4608 H   0  0  0  0  0  0  0  0  0  0  0  0
    5.3326   -4.9820    3.9878 H   0  0  0  0  0  0  0  0  0  0  0  0
    5.6912   -5.8965    5.0511 H   0  0  0  0  0  0  0  0  0  0  0  0
    2.9801   -7.1801    1.5664 H   0  0  0  0  0  0  0  0  0  0  0  0
    4.2746   -9.8334    2.0368 H   0  0  0  0  0  0  0  0  0  0  0  0
    4.4295   -8.7224    0.6730 H   0  0  0  0  0  0  0  0  0  0  0  0
    2.9362   -9.5585    0.9411 H   0  0  0  0  0  0  0  0  0  0  0  0
    1.0658   -8.7110    2.1408 H   0  0  0  0  0  0  0  0  0  0  0  0
    1.9147   -9.5389    3.3687 H   0  0  0  0  0  0  0  0  0  0  0  0
   -0.2189   -7.4572    3.6628 H   0  0  0  0  0  0  0  0  0  0  0  0
    0.1922   -8.6821    4.7762 H   0  0  0  0  0  0  0  0  0  0  0  0
    0.0814   -6.0707    5.6336 H   0  0  0  0  0  0  0  0  0  0  0  0
    2.0619   -6.6153    7.3970 H   0  0  0  0  0  0  0  0  0  0  0  0
   -0.3507   -8.3895    7.1736 H   0  0  0  0  0  0  0  0  0  0  0  0
   -0.3234   -6.7301    7.7986 H   0  0  0  0  0  0  0  0  0  0  0  0
    0.5398   -7.9998    8.6287 H   0  0  0  0  0  0  0  0  0  0  0  0
    2.1776   -9.2437    7.6674 H   0  0  0  0  0  0  0  0  0  0  0  0
    1.9898   -9.3698    5.9889 H   0  0  0  0  0  0  0  0  0  0  0  0
    4.4651   -8.7117    7.6417 H   0  0  0  0  0  0  0  0  0  0  0  0
    4.2110  -10.0061    6.5355 H   0  0  0  0  0  0  0  0  0  0  0  0
    5.1654   -7.3414    6.2028 H   0  0  0  0  0  0  0  0  0  0  0  0
    3.9176   -9.1132    4.0244 H   0  0  0  0  0  0  0  0  0  0  0  0
  1  2  1  0
  1 42  1  0
  1 43  1  0
  1 44  1  0
  2 37  1  0
  2  3  1  0
  2 45  1  6
  3  4  1  0
  3 46  1  0
  3 47  1  0
  4 27  1  0
  4  5  1  0
  4 48  1  6
  5 23  1  0
  5  6  1  0
  5 49  1  1
  6  7  1  0
  6 50  1  0
  6 51  1  0
  7  8  1  0
  7 52  1  0
  7 53  1  0
  8 10  1  1
  8  9  1  0
  8 11  1  0
  9 10  1  0
  9 54  1  0
  9 55  1  0
 11 15  1  0
 11 12  1  0
 11 56  1  1
 12 19  1  0
 12 13  1  0
 12 57  1  6
 13 14  1  0
 14 15  1  0
 14 24  1  0
 14 58  1  1
 15 16  1  0
 15 59  1  6
 16 20  1  0
 16 17  1  0
 16 60  1  1
 17 18  1  0
 17 23  1  0
 17 61  1  1
 18 19  1  0
 18 62  1  0
 18 63  1  0
 19 20  1  0
 19 64  1  6
 20 21  1  0
 20 22  1  0
 21 65  1  0
 21 66  1  0
 21 67  1  0
 22 68  1  0
 22 69  1  0
 22 70  1  0
 24 32  1  0
 24 40  1  6
 24 25  1  0
 25 26  1  0
 25 71  1  0
 25 72  1  0
 27 26  1  1
 26 73  1  0
 26 74  1  0
 27 38  1  0
 27 28  1  0
 28 29  1  0
 28 30  1  0
 28 75  1  6
 29 76  1  0
 29 77  1  0
 29 78  1  0
 30 31  1  0
 30 79  1  0
 30 80  1  0
 31 32  1  0
 31 81  1  0
 31 82  1  0
 32 33  1  0
 32 83  1  1
 33 34  1  0
 33 35  1  0
 33 84  1  1
 34 85  1  0
 34 86  1  0
 34 87  1  0
 35 36  1  0
 35 88  1  0
 35 89  1  0
 36 37  1  0
 36 90  1  0
 36 91  1  0
 37 38  1  0
 37 92  1  1
 38 39  1  0
 38 93  1  6
 39 40  1  0
 40 41  2  0
M  END
>  <i_m_ct_stereo_status>  (205) 
1

>  <s_m_source_file>  (205) 
/var/tmp/pbs.5076255.sched01/tmpxnahmhzs/434e81vi2s.sdf

>  <i_m_source_file_index>  (205) 
41

>  <i_lp_mmshare_version>  (205) 
48012

>  <i_f3d_flags>  (205) 
0

>  <s_epik_input>  (205) 
W0NIM11bQ0BIXTFbQ0gyXVtDSDJdW0NAQEhdKFtDQEhdMk9DMz1PKVtDQEhdKFtDSDNdKVtDSDJdW0NASF0oW0NAQEhdKE80KVtDSDJdW0NIMl01KVtDQEBdMihbQ0gyXVtDSDJdNilbQ0BASF0oW0NIM10pW0NIMl1bQ0gyXVtDQEBIXTFbQ0BdMzZbQ0BASF0oTzcpW0NIXThbQ0BIXShDOShbQ0gzXSlbQ0gzXSlbQ0BASF00W0NIMl1bQ0BIXTlbQ0BIXTdbQ0BIXThbQ0BdMTVbQ0gyXU8x

>  <s_epik_cmdline>  (205) 
J2VwaWtfcHl0aG9uJywgJy1waHQnLCAnMi4wJywgJy1waCcsICc3LjAnLCAnLXRuJywgJzgnLCAnLW1hJywgJzIwMCcsICctaW1hZScsICc8aW5maWxlLm1hZT4nLCAnLW9tYWUnLCAnPG91dGZpbGUubWFlPic=

>  <r_lp_tautomer_probability>  (205) 
1

>  <r_epik_Ionization_Penalty>  (205) 
7.00227e-11

>  <r_epik_Ionization_Penalty_Charging>  (205) 
0

>  <r_epik_Ionization_Penalty_Neutral>  (205) 
7.00227e-11

>  <r_epik_State_Penalty>  (205) 
-0

>  <r_epik_Charging_Adjusted_Penalty>  (205) 
0

>  <i_epik_Tot_Q>  (205) 
0

>  <i_epik_Tot_abs_Q>  (205) 
0

>  <s_epik_Chemistry_Notes>  (205) 
This compound has an ester and may undergo hydrolysis at high or low pH.

>  <s_lp_Force_Field>  (205) 
OPLS3e

>  <r_lp_Energy>  (205) 
851.971

>  <b_lp_Chiralities_Consistent>  (205) 
1

>  <s_lp_Variant>  (205) 
59:0-6

>  <s_i_glide_gridfile>  (205) 
pfpi4k_grid

>  <i_i_glide_lignum>  (205) 
41

>  <i_i_glide_rotatable_bonds>  (205) 
0

>  <r_i_docking_score>  (205) 
-1.75638

>  <r_i_glide_ligand_efficiency>  (205) 
-0.0428386

>  <r_i_glide_ligand_efficiency_sa>  (205) 
-0.147717

>  <r_i_glide_ligand_efficiency_ln>  (205) 
-0.372622

>  <r_i_glide_gscore>  (205) 
-1.75638

>  <r_i_glide_lipo>  (205) 
-0.388953

>  <r_i_glide_hbond>  (205) 
0

>  <r_i_glide_metal>  (205) 
-0

>  <r_i_glide_rewards>  (205) 
0

>  <r_i_glide_evdw>  (205) 
-27.4779

>  <r_i_glide_ecoul>  (205) 
0.0449123

>  <r_i_glide_erotb>  (205) 
0

>  <r_i_glide_esite>  (205) 
-0.000272843

>  <r_i_glide_emodel>  (205) 
-31.2818

>  <r_i_glide_energy>  (205) 
-27.4329

>  <r_i_glide_einternal>  (205) 
0

>  <r_i_glide_intrahb_reward>  (205) 
-0

>  <i_i_glide_confnum>  (205) 
1

>  <i_i_glide_posenum>  (205) 
36

>  <r_i_glide_eff_state_penalty>  (205) 
0

>  <ligand_id>  (205) 
59

>  <original_smiles>  (205) 
CC1CC2C3CCC4(CO4)C4C5OC(C4C4C(CC5C4(C)C)O3)C34CCC25C(C)CCC3C(C)CCC1C5OC4=O

>  <smiles>  (205) 
[H]C([H])([H])C1([H])C([H])([H])C2([H])C3([H])OC4([H])C([H])([H])C5([H])C6([H])OC([H])(C([H])(C6([H])C6(OC6([H])[H])C([H])([H])C3([H])[H])C4([H])C5(C([H])([H])[H])C([H])([H])[H])C34C(=O)OC5([H])C1([H])C([H])([H])C([H])([H])C([H])(C([H])([H])[H])C3([H])C([H])([H])C([H])([H])C([H])(C([H])([H])[H])C52C([H])([H])C4([H])[H]

$$$$
59:5:2
     RDKit          3D

 93102  0  0  1  0  0  0  0  0999 V2000
    4.2153  -11.4829    6.2706 C   0  0  0  0  0  0  0  0  0  0  0  0
    4.2240  -10.2037    5.4203 C   0  0  2  0  0  0  0  0  0  0  0  0
    4.8838   -8.9677    6.2923 C   0  0  0  0  0  0  0  0  0  0  0  0
    4.8073   -7.4694    5.7181 C   0  0  2  0  0  0  0  0  0  0  0  0
    4.7056   -5.9970    6.5219 C   0  0  2  0  0  0  0  0  0  0  0  0
    5.5666   -4.8328    6.0534 C   0  0  0  0  0  0  0  0  0  0  0  0
    4.8483   -3.4506    6.2722 C   0  0  0  0  0  0  0  0  0  0  0  0
    3.4593   -3.0473    5.6084 C   0  0  1  0  0  0  0  0  0  0  0  0
    3.4228   -1.6290    5.0564 C   0  0  0  0  0  0  0  0  0  0  0  0
    3.6628   -2.7500    4.2139 O   0  0  0  0  0  0  0  0  0  0  0  0
    1.9700   -3.6291    5.8997 C   0  0  2  0  0  0  0  0  0  0  0  0
    0.8391   -2.9429    6.5480 C   0  0  1  0  0  0  0  0  0  0  0  0
   -0.1865   -3.8395    5.8474 O   0  0  0  0  0  0  0  0  0  0  0  0
    0.1022   -5.3067    5.8804 C   0  0  2  0  0  0  0  0  0  0  0  0
    1.4848   -4.9673    6.5117 C   0  0  2  0  0  0  0  0  0  0  0  0
    1.5462   -5.1945    8.0509 C   0  0  1  0  0  0  0  0  0  0  0  0
    2.9936   -4.8079    8.3838 C   0  0  2  0  0  0  0  0  0  0  0  0
    2.7099   -3.2169    8.4924 C   0  0  0  0  0  0  0  0  0  0  0  0
    1.1678   -2.9634    8.1455 C   0  0  2  0  0  0  0  0  0  0  0  0
    0.6024   -4.2068    8.8236 C   0  0  0  0  0  0  0  0  0  0  0  0
   -0.9428   -4.3330    8.7022 C   0  0  0  0  0  0  0  0  0  0  0  0
    0.7921   -4.2587   10.3783 C   0  0  0  0  0  0  0  0  0  0  0  0
    4.1685   -5.6662    7.8952 O   0  0  0  0  0  0  0  0  0  0  0  0
    0.1151   -6.7137    4.9115 C   0  0  1  0  0  0  0  0  0  0  0  0
    0.7465   -7.7079    6.0322 C   0  0  0  0  0  0  0  0  0  0  0  0
    2.4083   -7.6744    6.2183 C   0  0  0  0  0  0  0  0  0  0  0  0
    3.5511   -7.5082    4.8597 C   0  0  1  0  0  0  0  0  0  0  0  0
    3.7465   -6.6985    3.2719 C   0  0  1  0  0  0  0  0  0  0  0  0
    5.1503   -6.9171    2.6589 C   0  0  0  0  0  0  0  0  0  0  0  0
    2.6371   -6.9245    1.8971 C   0  0  0  0  0  0  0  0  0  0  0  0
    0.8779   -7.0031    1.8494 C   0  0  0  0  0  0  0  0  0  0  0  0
   -0.2148   -7.2928    3.2458 C   0  0  1  0  0  0  0  0  0  0  0  0
   -0.4901   -8.9210    3.2589 C   0  0  1  0  0  0  0  0  0  0  0  0
   -1.6954   -9.1824    2.3388 C   0  0  0  0  0  0  0  0  0  0  0  0
    0.6778  -10.0323    2.8858 C   0  0  0  0  0  0  0  0  0  0  0  0
    1.8198  -10.7400    3.8309 C   0  0  0  0  0  0  0  0  0  0  0  0
    2.7826   -9.9173    4.7979 C   0  0  2  0  0  0  0  0  0  0  0  0
    3.0570   -8.6239    4.1085 C   0  0  1  0  0  0  0  0  0  0  0  0
    1.8247   -7.9914    3.9895 O   0  0  0  0  0  0  0  0  0  0  0  0
    1.2688   -6.5442    4.2526 C   0  0  0  0  0  0  0  0  0  0  0  0
    1.5360   -5.4282    3.7878 O   0  0  0  0  0  0  0  0  0  0  0  0
    3.5850  -11.3576    7.1555 H   0  0  0  0  0  0  0  0  0  0  0  0
    5.2149  -11.7509    6.6182 H   0  0  0  0  0  0  0  0  0  0  0  0
    3.8184  -12.3392    5.7201 H   0  0  0  0  0  0  0  0  0  0  0  0
    4.8985  -10.4048    4.5761 H   0  0  0  0  0  0  0  0  0  0  0  0
    4.5593   -9.0039    7.3432 H   0  0  0  0  0  0  0  0  0  0  0  0
    5.9361   -9.1981    6.3660 H   0  0  0  0  0  0  0  0  0  0  0  0
    5.6983   -7.3978    5.0911 H   0  0  0  0  0  0  0  0  0  0  0  0
    4.0318   -5.5714    5.8364 H   0  0  0  0  0  0  0  0  0  0  0  0
    6.5185   -4.8398    6.5957 H   0  0  0  0  0  0  0  0  0  0  0  0
    5.8227   -4.9501    4.9988 H   0  0  0  0  0  0  0  0  0  0  0  0
    4.9551   -3.2272    7.3274 H   0  0  0  0  0  0  0  0  0  0  0  0
    5.5736   -2.7466    5.8515 H   0  0  0  0  0  0  0  0  0  0  0  0
    2.4667   -1.1429    4.8916 H   0  0  0  0  0  0  0  0  0  0  0  0
    4.2740   -0.9705    5.2021 H   0  0  0  0  0  0  0  0  0  0  0  0
    1.6473   -3.5167    4.8778 H   0  0  0  0  0  0  0  0  0  0  0  0
    0.7257   -1.9174    6.2072 H   0  0  0  0  0  0  0  0  0  0  0  0
   -0.5923   -5.6245    6.6396 H   0  0  0  0  0  0  0  0  0  0  0  0
    2.2470   -5.4576    6.0793 H   0  0  0  0  0  0  0  0  0  0  0  0
    1.3201   -6.2075    8.3720 H   0  0  0  0  0  0  0  0  0  0  0  0
    3.1212   -5.0866    9.4276 H   0  0  0  0  0  0  0  0  0  0  0  0
    2.9251   -2.8997    9.5116 H   0  0  0  0  0  0  0  0  0  0  0  0
    3.2804   -2.4773    7.9598 H   0  0  0  0  0  0  0  0  0  0  0  0
    0.8040   -2.0532    8.6205 H   0  0  0  0  0  0  0  0  0  0  0  0
   -1.4510   -3.7982    9.5056 H   0  0  0  0  0  0  0  0  0  0  0  0
   -1.2544   -5.3725    8.7910 H   0  0  0  0  0  0  0  0  0  0  0  0
   -1.3799   -3.9161    7.8011 H   0  0  0  0  0  0  0  0  0  0  0  0
    0.2605   -3.4434   10.8720 H   0  0  0  0  0  0  0  0  0  0  0  0
    1.8075   -4.2001   10.7594 H   0  0  0  0  0  0  0  0  0  0  0  0
    0.3841   -5.1895   10.7759 H   0  0  0  0  0  0  0  0  0  0  0  0
    0.2900   -7.5393    6.9929 H   0  0  0  0  0  0  0  0  0  0  0  0
    0.4136   -8.7220    5.8367 H   0  0  0  0  0  0  0  0  0  0  0  0
    2.6674   -7.1041    7.0554 H   0  0  0  0  0  0  0  0  0  0  0  0
    2.5764   -8.5308    6.8362 H   0  0  0  0  0  0  0  0  0  0  0  0
    3.7951   -5.6305    3.4801 H   0  0  0  0  0  0  0  0  0  0  0  0
    5.4133   -7.9717    2.5683 H   0  0  0  0  0  0  0  0  0  0  0  0
    5.9322   -6.4191    3.2292 H   0  0  0  0  0  0  0  0  0  0  0  0
    5.2063   -6.4821    1.6600 H   0  0  0  0  0  0  0  0  0  0  0  0
    2.9010   -6.1366    1.1848 H   0  0  0  0  0  0  0  0  0  0  0  0
    2.9613   -7.8315    1.3851 H   0  0  0  0  0  0  0  0  0  0  0  0
    0.5734   -6.0356    1.4534 H   0  0  0  0  0  0  0  0  0  0  0  0
    0.6044   -7.6908    1.0523 H   0  0  0  0  0  0  0  0  0  0  0  0
   -1.1575   -6.8189    2.9804 H   0  0  0  0  0  0  0  0  0  0  0  0
   -0.8853   -9.1857    4.2374 H   0  0  0  0  0  0  0  0  0  0  0  0
   -1.4624   -8.9936    1.2935 H   0  0  0  0  0  0  0  0  0  0  0  0
   -2.5558   -8.5727    2.6099 H   0  0  0  0  0  0  0  0  0  0  0  0
   -2.0117  -10.2204    2.3981 H   0  0  0  0  0  0  0  0  0  0  0  0
    0.1399  -10.8958    2.4954 H   0  0  0  0  0  0  0  0  0  0  0  0
    1.1968   -9.6723    1.9979 H   0  0  0  0  0  0  0  0  0  0  0  0
    1.3184  -11.4989    4.4372 H   0  0  0  0  0  0  0  0  0  0  0  0
    2.4569  -11.3176    3.1587 H   0  0  0  0  0  0  0  0  0  0  0  0
    2.1141   -9.9702    5.6497 H   0  0  0  0  0  0  0  0  0  0  0  0
    3.5648   -8.8694    3.1695 H   0  0  0  0  0  0  0  0  0  0  0  0
  1  2  1  0
  1 42  1  0
  1 43  1  0
  1 44  1  0
  2 37  1  0
  2  3  1  0
  2 45  1  6
  3  4  1  0
  3 46  1  0
  3 47  1  0
  4 27  1  0
  4  5  1  0
  4 48  1  6
  5 23  1  0
  5  6  1  0
  5 49  1  6
  6  7  1  0
  6 50  1  0
  6 51  1  0
  7  8  1  0
  7 52  1  0
  7 53  1  0
  8 10  1  6
  8  9  1  0
  8 11  1  0
  9 10  1  0
  9 54  1  0
  9 55  1  0
 11 15  1  0
 11 12  1  0
 11 56  1  6
 12 19  1  0
 12 13  1  0
 12 57  1  6
 13 14  1  0
 14 15  1  0
 14 24  1  0
 14 58  1  1
 15 16  1  0
 15 59  1  6
 16 20  1  0
 16 17  1  0
 16 60  1  6
 17 18  1  0
 17 23  1  0
 17 61  1  1
 18 19  1  0
 18 62  1  0
 18 63  1  0
 19 20  1  0
 19 64  1  1
 20 21  1  0
 20 22  1  0
 21 65  1  0
 21 66  1  0
 21 67  1  0
 22 68  1  0
 22 69  1  0
 22 70  1  0
 24 32  1  0
 24 40  1  6
 24 25  1  0
 25 26  1  0
 25 71  1  0
 25 72  1  0
 27 26  1  1
 26 73  1  0
 26 74  1  0
 27 38  1  0
 27 28  1  0
 28 29  1  0
 28 30  1  0
 28 75  1  1
 29 76  1  0
 29 77  1  0
 29 78  1  0
 30 31  1  0
 30 79  1  0
 30 80  1  0
 31 32  1  0
 31 81  1  0
 31 82  1  0
 32 33  1  0
 32 83  1  6
 33 34  1  0
 33 35  1  0
 33 84  1  1
 34 85  1  0
 34 86  1  0
 34 87  1  0
 35 36  1  0
 35 88  1  0
 35 89  1  0
 36 37  1  0
 36 90  1  0
 36 91  1  0
 37 38  1  0
 37 92  1  1
 38 39  1  0
 38 93  1  6
 39 40  1  0
 40 41  2  0
M  END
>  <i_m_ct_stereo_status>  (206) 
1

>  <s_m_source_file>  (206) 
/var/tmp/pbs.5076255.sched01/tmpxnahmhzs/434e81vi2s.sdf

>  <i_m_source_file_index>  (206) 
41

>  <i_lp_mmshare_version>  (206) 
48012

>  <i_f3d_flags>  (206) 
0

>  <s_epik_input>  (206) 
W0NIM11bQ0BIXTFbQ0gyXVtDSDJdW0NAQEhdKFtDQEhdMk9DMz1PKVtDQEhdKFtDSDNdKVtDSDJdW0NASF0oW0NAQEhdKE80KVtDSDJdW0NIMl01KVtDQEBdMihbQ0gyXVtDSDJdNilbQ0BASF0oW0NIM10pW0NIMl1bQ0gyXVtDQEBIXTFbQ0BdMzZbQ0BASF0oTzcpW0NIXThbQ0BIXShDOShbQ0gzXSlbQ0gzXSlbQ0BASF00W0NIMl1bQ0BIXTlbQ0BIXTdbQ0BIXThbQ0BdMTVbQ0gyXU8x

>  <s_epik_cmdline>  (206) 
J2VwaWtfcHl0aG9uJywgJy1waHQnLCAnMi4wJywgJy1waCcsICc3LjAnLCAnLXRuJywgJzgnLCAnLW1hJywgJzIwMCcsICctaW1hZScsICc8aW5maWxlLm1hZT4nLCAnLW9tYWUnLCAnPG91dGZpbGUubWFlPic=

>  <r_lp_tautomer_probability>  (206) 
1

>  <r_epik_Ionization_Penalty>  (206) 
7.00227e-11

>  <r_epik_Ionization_Penalty_Charging>  (206) 
0

>  <r_epik_Ionization_Penalty_Neutral>  (206) 
7.00227e-11

>  <r_epik_State_Penalty>  (206) 
-0

>  <r_epik_Charging_Adjusted_Penalty>  (206) 
0

>  <i_epik_Tot_Q>  (206) 
0

>  <i_epik_Tot_abs_Q>  (206) 
0

>  <s_epik_Chemistry_Notes>  (206) 
This compound has an ester and may undergo hydrolysis at high or low pH.

>  <s_lp_Force_Field>  (206) 
OPLS3e

>  <r_lp_Energy>  (206) 
851.971

>  <b_lp_Chiralities_Consistent>  (206) 
1

>  <s_lp_Variant>  (206) 
59:0-6

>  <s_i_glide_gridfile>  (206) 
pfpi4k_grid

>  <i_i_glide_lignum>  (206) 
41

>  <i_i_glide_rotatable_bonds>  (206) 
0

>  <r_i_docking_score>  (206) 
-1.74534

>  <r_i_glide_ligand_efficiency>  (206) 
-0.0425692

>  <r_i_glide_ligand_efficiency_sa>  (206) 
-0.146788

>  <r_i_glide_ligand_efficiency_ln>  (206) 
-0.370279

>  <r_i_glide_gscore>  (206) 
-1.74534

>  <r_i_glide_lipo>  (206) 
-0.406867

>  <r_i_glide_hbond>  (206) 
0

>  <r_i_glide_metal>  (206) 
-0

>  <r_i_glide_rewards>  (206) 
0

>  <r_i_glide_evdw>  (206) 
-30.4815

>  <r_i_glide_ecoul>  (206) 
1.29056

>  <r_i_glide_erotb>  (206) 
0

>  <r_i_glide_esite>  (206) 
-0.00797537

>  <r_i_glide_emodel>  (206) 
-33.0471

>  <r_i_glide_energy>  (206) 
-29.191

>  <r_i_glide_einternal>  (206) 
0

>  <r_i_glide_intrahb_reward>  (206) 
-0

>  <i_i_glide_confnum>  (206) 
2

>  <i_i_glide_posenum>  (206) 
29

>  <r_i_glide_eff_state_penalty>  (206) 
0

>  <ligand_id>  (206) 
59

>  <original_smiles>  (206) 
CC1CC2C3CCC4(CO4)C4C5OC(C4C4C(CC5C4(C)C)O3)C34CCC25C(C)CCC3C(C)CCC1C5OC4=O

>  <smiles>  (206) 
[H]C([H])([H])C1([H])C([H])([H])C2([H])C3([H])OC4([H])C([H])([H])C5([H])C6([H])OC([H])(C([H])(C6([H])C6(OC6([H])[H])C([H])([H])C3([H])[H])C4([H])C5(C([H])([H])[H])C([H])([H])[H])C34C(=O)OC5([H])C1([H])C([H])([H])C([H])([H])C([H])(C([H])([H])[H])C3([H])C([H])([H])C([H])([H])C([H])(C([H])([H])[H])C52C([H])([H])C4([H])[H]

$$$$
59:6:0
     RDKit          3D

 93102  0  0  1  0  0  0  0  0999 V2000
    7.1047   -7.5197    2.6256 C   0  0  0  0  0  0  0  0  0  0  0  0
    5.6730   -7.0205    2.3579 C   0  0  2  0  0  0  0  0  0  0  0  0
    5.5602   -5.4436    2.8165 C   0  0  0  0  0  0  0  0  0  0  0  0
    4.1284   -4.7037    2.8760 C   0  0  2  0  0  0  0  0  0  0  0  0
    3.7975   -3.3759    3.8826 C   0  0  1  0  0  0  0  0  0  0  0  0
    2.5805   -2.4150    3.6263 C   0  0  0  0  0  0  0  0  0  0  0  0
    1.0762   -2.7571    3.9152 C   0  0  0  0  0  0  0  0  0  0  0  0
    0.4086   -2.5969    5.3162 C   0  0  2  0  0  0  0  0  0  0  0  0
   -0.1597   -1.2893    5.8764 C   0  0  0  0  0  0  0  0  0  0  0  0
   -0.9624   -2.1476    5.1280 O   0  0  0  0  0  0  0  0  0  0  0  0
    0.3519   -3.9233    6.1339 C   0  0  2  0  0  0  0  0  0  0  0  0
    0.2626   -4.0724    7.6319 C   0  0  1  0  0  0  0  0  0  0  0  0
    0.2871   -5.6061    7.6782 O   0  0  0  0  0  0  0  0  0  0  0  0
    0.6574   -6.2022    6.3839 C   0  0  1  0  0  0  0  0  0  0  0  0
    1.5094   -4.8885    6.1405 C   0  0  2  0  0  0  0  0  0  0  0  0
    2.8096   -4.6144    7.1215 C   0  0  1  0  0  0  0  0  0  0  0  0
    3.4221   -3.3157    6.6076 C   0  0  2  0  0  0  0  0  0  0  0  0
    2.4553   -2.3522    7.3762 C   0  0  0  0  0  0  0  0  0  0  0  0
    1.5158   -3.2983    8.3144 C   0  0  2  0  0  0  0  0  0  0  0  0
    2.5507   -4.3659    8.6457 C   0  0  0  0  0  0  0  0  0  0  0  0
    2.1196   -5.6032    9.4954 C   0  0  0  0  0  0  0  0  0  0  0  0
    3.7568   -3.8333    9.5000 C   0  0  0  0  0  0  0  0  0  0  0  0
    4.1634   -3.1807    5.3112 O   0  0  0  0  0  0  0  0  0  0  0  0
    1.2828   -7.5438    5.5755 C   0  0  1  0  0  0  0  0  0  0  0  0
    2.8656   -7.3194    5.7208 C   0  0  0  0  0  0  0  0  0  0  0  0
    3.5942   -6.1951    4.7142 C   0  0  0  0  0  0  0  0  0  0  0  0
    3.1616   -5.8680    3.0574 C   0  0  1  0  0  0  0  0  0  0  0  0
    1.7990   -5.9225    1.8912 C   0  0  1  0  0  0  0  0  0  0  0  0
    2.2247   -5.4724    0.4720 C   0  0  0  0  0  0  0  0  0  0  0  0
    0.7377   -7.3194    1.6354 C   0  0  0  0  0  0  0  0  0  0  0  0
    0.0290   -8.4229    2.7916 C   0  0  0  0  0  0  0  0  0  0  0  0
    0.6238   -8.7744    4.4470 C   0  0  1  0  0  0  0  0  0  0  0  0
    1.6192  -10.0917    4.3202 C   0  0  1  0  0  0  0  0  0  0  0  0
    0.9006  -11.2701    3.6324 C   0  0  0  0  0  0  0  0  0  0  0  0
    3.2303  -10.1868    3.9519 C   0  0  0  0  0  0  0  0  0  0  0  0
    4.1488   -9.4856    2.7953 C   0  0  0  0  0  0  0  0  0  0  0  0
    4.6029   -7.9814    3.0378 C   0  0  2  0  0  0  0  0  0  0  0  0
    3.3760   -7.2355    2.6426 C   0  0  1  0  0  0  0  0  0  0  0  0
    2.3542   -7.6908    3.4795 O   0  0  0  0  0  0  0  0  0  0  0  0
    1.2581   -6.9492    4.3179 C   0  0  0  0  0  0  0  0  0  0  0  0
    0.3618   -6.1312    3.9931 O   0  0  0  0  0  0  0  0  0  0  0  0
    7.3420   -7.4629    3.6905 H   0  0  0  0  0  0  0  0  0  0  0  0
    7.8537   -6.9233    2.0969 H   0  0  0  0  0  0  0  0  0  0  0  0
    7.2401   -8.5584    2.3180 H   0  0  0  0  0  0  0  0  0  0  0  0
    5.5254   -7.0689    1.2733 H   0  0  0  0  0  0  0  0  0  0  0  0
    6.1036   -5.2779    3.7554 H   0  0  0  0  0  0  0  0  0  0  0  0
    6.1492   -4.8905    2.0954 H   0  0  0  0  0  0  0  0  0  0  0  0
    4.0151   -4.3004    1.8719 H   0  0  0  0  0  0  0  0  0  0  0  0
    4.6056   -2.7544    3.5034 H   0  0  0  0  0  0  0  0  0  0  0  0
    2.7933   -1.4600    4.1108 H   0  0  0  0  0  0  0  0  0  0  0  0
    2.6272   -2.1863    2.5629 H   0  0  0  0  0  0  0  0  0  0  0  0
    0.5207   -2.0823    3.2646 H   0  0  0  0  0  0  0  0  0  0  0  0
    0.8161   -3.7284    3.5239 H   0  0  0  0  0  0  0  0  0  0  0  0
   -0.4470   -1.2376    6.9128 H   0  0  0  0  0  0  0  0  0  0  0  0
    0.1616   -0.3651    5.4022 H   0  0  0  0  0  0  0  0  0  0  0  0
   -0.5677   -4.3437    5.7197 H   0  0  0  0  0  0  0  0  0  0  0  0
   -0.6783   -3.6831    8.0219 H   0  0  0  0  0  0  0  0  0  0  0  0
   -0.4001   -6.2645    6.1058 H   0  0  0  0  0  0  0  0  0  0  0  0
    1.8302   -4.7052    5.1427 H   0  0  0  0  0  0  0  0  0  0  0  0
    3.6078   -5.3352    7.1512 H   0  0  0  0  0  0  0  0  0  0  0  0
    4.3448   -3.2106    7.1703 H   0  0  0  0  0  0  0  0  0  0  0  0
    3.0390   -1.6878    8.0109 H   0  0  0  0  0  0  0  0  0  0  0  0
    2.0075   -1.5999    6.7583 H   0  0  0  0  0  0  0  0  0  0  0  0
    1.1976   -2.7723    9.2134 H   0  0  0  0  0  0  0  0  0  0  0  0
    1.1601   -5.4501    9.9875 H   0  0  0  0  0  0  0  0  0  0  0  0
    2.8240   -5.8464   10.2919 H   0  0  0  0  0  0  0  0  0  0  0  0
    2.0724   -6.5098    8.8967 H   0  0  0  0  0  0  0  0  0  0  0  0
    3.4691   -3.7023   10.5449 H   0  0  0  0  0  0  0  0  0  0  0  0
    4.1994   -2.8783    9.2277 H   0  0  0  0  0  0  0  0  0  0  0  0
    4.5782   -4.5512    9.4885 H   0  0  0  0  0  0  0  0  0  0  0  0
    3.0735   -7.1866    6.7701 H   0  0  0  0  0  0  0  0  0  0  0  0
    3.3623   -8.2642    5.6110 H   0  0  0  0  0  0  0  0  0  0  0  0
    3.7414   -5.2966    5.1726 H   0  0  0  0  0  0  0  0  0  0  0  0
    4.6452   -6.3630    4.8859 H   0  0  0  0  0  0  0  0  0  0  0  0
    1.1391   -5.1032    2.1209 H   0  0  0  0  0  0  0  0  0  0  0  0
    3.0799   -6.0281    0.0831 H   0  0  0  0  0  0  0  0  0  0  0  0
    2.4682   -4.4119    0.4338 H   0  0  0  0  0  0  0  0  0  0  0  0
    1.4138   -5.6117   -0.2439 H   0  0  0  0  0  0  0  0  0  0  0  0
   -0.1054   -6.9505    1.0457 H   0  0  0  0  0  0  0  0  0  0  0  0
    1.2568   -7.9684    0.9293 H   0  0  0  0  0  0  0  0  0  0  0  0
   -0.9940   -8.0660    2.9399 H   0  0  0  0  0  0  0  0  0  0  0  0
   -0.1372   -9.3593    2.2554 H   0  0  0  0  0  0  0  0  0  0  0  0
   -0.2640   -9.1516    4.9643 H   0  0  0  0  0  0  0  0  0  0  0  0
    1.6227  -10.4288    5.3587 H   0  0  0  0  0  0  0  0  0  0  0  0
    0.9945  -11.2324    2.5473 H   0  0  0  0  0  0  0  0  0  0  0  0
   -0.1588  -11.2838    3.8855 H   0  0  0  0  0  0  0  0  0  0  0  0
    1.3071  -12.2308    3.9546 H   0  0  0  0  0  0  0  0  0  0  0  0
    3.7827  -10.1122    4.8861 H   0  0  0  0  0  0  0  0  0  0  0  0
    3.3761  -11.2496    3.7472 H   0  0  0  0  0  0  0  0  0  0  0  0
    5.0644  -10.0750    2.7530 H   0  0  0  0  0  0  0  0  0  0  0  0
    3.6847   -9.6211    1.8161 H   0  0  0  0  0  0  0  0  0  0  0  0
    4.9274   -8.0884    4.0680 H   0  0  0  0  0  0  0  0  0  0  0  0
    3.2433   -7.4740    1.5858 H   0  0  0  0  0  0  0  0  0  0  0  0
  1  2  1  0
  1 42  1  0
  1 43  1  0
  1 44  1  0
  2 37  1  0
  2  3  1  0
  2 45  1  6
  3  4  1  0
  3 46  1  0
  3 47  1  0
  4 27  1  0
  4  5  1  0
  4 48  1  6
  5 23  1  0
  5  6  1  0
  5 49  1  6
  6  7  1  0
  6 50  1  0
  6 51  1  0
  7  8  1  0
  7 52  1  0
  7 53  1  0
  8 10  1  6
  8  9  1  0
  8 11  1  0
  9 10  1  0
  9 54  1  0
  9 55  1  0
 11 15  1  0
 11 12  1  0
 11 56  1  6
 12 19  1  0
 12 13  1  0
 12 57  1  1
 13 14  1  0
 14 15  1  0
 14 24  1  0
 14 58  1  6
 15 16  1  0
 15 59  1  6
 16 20  1  0
 16 17  1  0
 16 60  1  1
 17 18  1  0
 17 23  1  0
 17 61  1  1
 18 19  1  0
 18 62  1  0
 18 63  1  0
 19 20  1  0
 19 64  1  1
 20 21  1  0
 20 22  1  0
 21 65  1  0
 21 66  1  0
 21 67  1  0
 22 68  1  0
 22 69  1  0
 22 70  1  0
 24 32  1  0
 24 40  1  6
 24 25  1  0
 25 26  1  0
 25 71  1  0
 25 72  1  0
 27 26  1  1
 26 73  1  0
 26 74  1  0
 27 38  1  0
 27 28  1  0
 28 29  1  0
 28 30  1  0
 28 75  1  1
 29 76  1  0
 29 77  1  0
 29 78  1  0
 30 31  1  0
 30 79  1  0
 30 80  1  0
 31 32  1  0
 31 81  1  0
 31 82  1  0
 32 33  1  0
 32 83  1  1
 33 34  1  0
 33 35  1  0
 33 84  1  1
 34 85  1  0
 34 86  1  0
 34 87  1  0
 35 36  1  0
 35 88  1  0
 35 89  1  0
 36 37  1  0
 36 90  1  0
 36 91  1  0
 37 38  1  0
 37 92  1  1
 38 39  1  0
 38 93  1  6
 39 40  1  0
 40 41  2  0
M  END
>  <i_m_ct_stereo_status>  (207) 
1

>  <s_m_source_file>  (207) 
/var/tmp/pbs.5076255.sched01/tmpxnahmhzs/434e81vi2s.sdf

>  <i_m_source_file_index>  (207) 
42

>  <i_lp_mmshare_version>  (207) 
48012

>  <i_f3d_flags>  (207) 
0

>  <s_epik_input>  (207) 
W0NIM11bQ0BIXTFbQ0gyXVtDSDJdW0NAQEhdKFtDQEhdMk9DMz1PKVtDQEhdKFtDSDNdKVtDSDJdW0NASF0oW0NAQEhdKE80KVtDSDJdW0NIMl01KVtDQEBdMihbQ0gyXVtDSDJdNilbQ0BASF0oW0NIM10pW0NIMl1bQ0gyXVtDQEBIXTFbQ0BdMzZbQ0BASF0oTzcpW0NIXThbQ0BIXShDOShbQ0gzXSlbQ0gzXSlbQ0BASF00W0NIMl1bQ0BIXTlbQ0BIXTdbQ0BIXThbQ0BdMTVbQ0gyXU8x

>  <s_epik_cmdline>  (207) 
J2VwaWtfcHl0aG9uJywgJy1waHQnLCAnMi4wJywgJy1waCcsICc3LjAnLCAnLXRuJywgJzgnLCAnLW1hJywgJzIwMCcsICctaW1hZScsICc8aW5maWxlLm1hZT4nLCAnLW9tYWUnLCAnPG91dGZpbGUubWFlPic=

>  <r_lp_tautomer_probability>  (207) 
1

>  <r_epik_Ionization_Penalty>  (207) 
7.00227e-11

>  <r_epik_Ionization_Penalty_Charging>  (207) 
0

>  <r_epik_Ionization_Penalty_Neutral>  (207) 
7.00227e-11

>  <r_epik_State_Penalty>  (207) 
-0

>  <r_epik_Charging_Adjusted_Penalty>  (207) 
0

>  <i_epik_Tot_Q>  (207) 
0

>  <i_epik_Tot_abs_Q>  (207) 
0

>  <s_epik_Chemistry_Notes>  (207) 
This compound has an ester and may undergo hydrolysis at high or low pH.

>  <s_lp_Force_Field>  (207) 
OPLS3e

>  <r_lp_Energy>  (207) 
845.284

>  <b_lp_Chiralities_Consistent>  (207) 
1

>  <s_lp_Variant>  (207) 
59:0-7

>  <s_i_glide_gridfile>  (207) 
pfpi4k_grid

>  <i_i_glide_lignum>  (207) 
42

>  <i_i_glide_rotatable_bonds>  (207) 
0

>  <r_i_docking_score>  (207) 
-2.00852

>  <r_i_glide_ligand_efficiency>  (207) 
-0.0489884

>  <r_i_glide_ligand_efficiency_sa>  (207) 
-0.168923

>  <r_i_glide_ligand_efficiency_ln>  (207) 
-0.426115

>  <r_i_glide_gscore>  (207) 
-2.00852

>  <r_i_glide_lipo>  (207) 
-0.249068

>  <r_i_glide_hbond>  (207) 
0

>  <r_i_glide_metal>  (207) 
-0

>  <r_i_glide_rewards>  (207) 
0

>  <r_i_glide_evdw>  (207) 
-31.9025

>  <r_i_glide_ecoul>  (207) 
-1.04147

>  <r_i_glide_erotb>  (207) 
0

>  <r_i_glide_esite>  (207) 
-0.0081135

>  <r_i_glide_emodel>  (207) 
-36.9606

>  <r_i_glide_energy>  (207) 
-32.9439

>  <r_i_glide_einternal>  (207) 
0

>  <r_i_glide_intrahb_reward>  (207) 
-0

>  <i_i_glide_confnum>  (207) 
2

>  <i_i_glide_posenum>  (207) 
19

>  <r_i_glide_eff_state_penalty>  (207) 
0

>  <ligand_id>  (207) 
59

>  <original_smiles>  (207) 
CC1CC2C3CCC4(CO4)C4C5OC(C4C4C(CC5C4(C)C)O3)C34CCC25C(C)CCC3C(C)CCC1C5OC4=O

>  <smiles>  (207) 
[H]C([H])([H])C1([H])C([H])([H])C2([H])C3([H])OC4([H])C([H])([H])C5([H])C6([H])OC([H])(C([H])(C6([H])C6(OC6([H])[H])C([H])([H])C3([H])[H])C4([H])C5(C([H])([H])[H])C([H])([H])[H])C34C(=O)OC5([H])C1([H])C([H])([H])C([H])([H])C([H])(C([H])([H])[H])C3([H])C([H])([H])C([H])([H])C([H])(C([H])([H])[H])C52C([H])([H])C4([H])[H]

$$$$
59:6:1
     RDKit          3D

 93102  0  0  1  0  0  0  0  0999 V2000
    7.5525   -7.9905    5.6047 C   0  0  0  0  0  0  0  0  0  0  0  0
    6.5549   -7.9122    4.4270 C   0  0  2  0  0  0  0  0  0  0  0  0
    7.1099   -6.8286    3.3216 C   0  0  0  0  0  0  0  0  0  0  0  0
    6.1805   -6.3444    2.0923 C   0  0  2  0  0  0  0  0  0  0  0  0
    6.3550   -4.8493    1.3050 C   0  0  1  0  0  0  0  0  0  0  0  0
    5.7544   -4.5781   -0.1070 C   0  0  0  0  0  0  0  0  0  0  0  0
    4.2434   -4.3327   -0.4086 C   0  0  0  0  0  0  0  0  0  0  0  0
    3.5592   -2.9768   -0.2965 C   0  0  2  0  0  0  0  0  0  0  0  0
    3.5631   -1.8832   -1.3727 C   0  0  0  0  0  0  0  0  0  0  0  0
    2.6088   -2.8959   -1.3941 O   0  0  0  0  0  0  0  0  0  0  0  0
    2.7700   -2.7616    1.0491 C   0  0  2  0  0  0  0  0  0  0  0  0
    2.4374   -1.4587    1.7461 C   0  0  1  0  0  0  0  0  0  0  0  0
    1.7554   -2.0719    2.9744 O   0  0  0  0  0  0  0  0  0  0  0  0
    1.9813   -3.5250    3.0828 C   0  0  1  0  0  0  0  0  0  0  0  0
    3.3532   -3.2594    2.3463 C   0  0  2  0  0  0  0  0  0  0  0  0
    4.4912   -2.3623    3.1359 C   0  0  1  0  0  0  0  0  0  0  0  0
    5.6645   -2.3304    2.1624 C   0  0  2  0  0  0  0  0  0  0  0  0
    5.1661   -1.1363    1.2912 C   0  0  0  0  0  0  0  0  0  0  0  0
    3.7973   -0.6216    1.9917 C   0  0  2  0  0  0  0  0  0  0  0  0
    4.1757   -0.8615    3.4485 C   0  0  0  0  0  0  0  0  0  0  0  0
    3.1186   -0.5809    4.5638 C   0  0  0  0  0  0  0  0  0  0  0  0
    5.3665    0.0337    3.9459 C   0  0  0  0  0  0  0  0  0  0  0  0
    6.5563   -3.4905    1.8581 O   0  0  0  0  0  0  0  0  0  0  0  0
    2.0198   -4.8801    4.1002 C   0  0  1  0  0  0  0  0  0  0  0  0
    3.4978   -4.7770    4.7161 C   0  0  0  0  0  0  0  0  0  0  0  0
    4.7800   -5.2714    3.7610 C   0  0  0  0  0  0  0  0  0  0  0  0
    4.7694   -6.5875    2.6312 C   0  0  1  0  0  0  0  0  0  0  0  0
    3.6965   -7.5672    1.5691 C   0  0  1  0  0  0  0  0  0  0  0  0
    4.4675   -8.7073    0.8479 C   0  0  0  0  0  0  0  0  0  0  0  0
    2.1619   -8.3028    2.0590 C   0  0  0  0  0  0  0  0  0  0  0  0
    0.8807   -7.6620    3.0668 C   0  0  0  0  0  0  0  0  0  0  0  0
    1.0255   -6.3581    4.2912 C   0  0  1  0  0  0  0  0  0  0  0  0
    1.3152   -7.1130    5.7391 C   0  0  1  0  0  0  0  0  0  0  0  0
    0.2420   -8.1810    6.0430 C   0  0  0  0  0  0  0  0  0  0  0  0
    2.7445   -7.6087    6.4197 C   0  0  0  0  0  0  0  0  0  0  0  0
    4.0289   -8.4312    5.8295 C   0  0  0  0  0  0  0  0  0  0  0  0
    5.0847   -7.6131    4.9620 C   0  0  2  0  0  0  0  0  0  0  0  0
    4.3930   -7.5610    3.6406 C   0  0  1  0  0  0  0  0  0  0  0  0
    3.1698   -6.9162    3.8549 O   0  0  0  0  0  0  0  0  0  0  0  0
    2.4386   -5.7734    3.1058 C   0  0  0  0  0  0  0  0  0  0  0  0
    2.0531   -5.6348    1.9181 O   0  0  0  0  0  0  0  0  0  0  0  0
    7.6422   -7.0226    6.1004 H   0  0  0  0  0  0  0  0  0  0  0  0
    8.5482   -8.2762    5.2632 H   0  0  0  0  0  0  0  0  0  0  0  0
    7.2357   -8.7191    6.3531 H   0  0  0  0  0  0  0  0  0  0  0  0
    6.5495   -8.8919    3.9644 H   0  0  0  0  0  0  0  0  0  0  0  0
    7.5324   -5.9696    3.8156 H   0  0  0  0  0  0  0  0  0  0  0  0
    7.9996   -7.2885    2.8638 H   0  0  0  0  0  0  0  0  0  0  0  0
    6.3889   -7.0691    1.3250 H   0  0  0  0  0  0  0  0  0  0  0  0
    7.4012   -4.9998    1.0430 H   0  0  0  0  0  0  0  0  0  0  0  0
    6.3135   -3.7689   -0.5716 H   0  0  0  0  0  0  0  0  0  0  0  0
    5.9955   -5.4663   -0.6873 H   0  0  0  0  0  0  0  0  0  0  0  0
    4.1926   -4.5773   -1.4767 H   0  0  0  0  0  0  0  0  0  0  0  0
    3.6216   -5.0863    0.0417 H   0  0  0  0  0  0  0  0  0  0  0  0
    3.1503   -0.9066   -1.1261 H   0  0  0  0  0  0  0  0  0  0  0  0
    4.3416   -1.9076   -2.1214 H   0  0  0  0  0  0  0  0  0  0  0  0
    1.8339   -3.2313    0.7733 H   0  0  0  0  0  0  0  0  0  0  0  0
    1.7358   -0.8469    1.1888 H   0  0  0  0  0  0  0  0  0  0  0  0
    1.0619   -3.7091    2.5294 H   0  0  0  0  0  0  0  0  0  0  0  0
    3.8464   -4.1183    1.9533 H   0  0  0  0  0  0  0  0  0  0  0  0
    4.8721   -2.7080    4.0877 H   0  0  0  0  0  0  0  0  0  0  0  0
    6.4474   -1.8487    2.7282 H   0  0  0  0  0  0  0  0  0  0  0  0
    5.9064   -0.3371    1.3098 H   0  0  0  0  0  0  0  0  0  0  0  0
    5.1906   -1.3364    0.2379 H   0  0  0  0  0  0  0  0  0  0  0  0
    3.6261    0.4387    1.7918 H   0  0  0  0  0  0  0  0  0  0  0  0
    2.2765    0.0035    4.1891 H   0  0  0  0  0  0  0  0  0  0  0  0
    3.5127   -0.0218    5.4111 H   0  0  0  0  0  0  0  0  0  0  0  0
    2.7407   -1.5013    5.0076 H   0  0  0  0  0  0  0  0  0  0  0  0
    5.0253    1.0553    4.1260 H   0  0  0  0  0  0  0  0  0  0  0  0
    6.2222    0.1536    3.2881 H   0  0  0  0  0  0  0  0  0  0  0  0
    5.7628   -0.3446    4.8880 H   0  0  0  0  0  0  0  0  0  0  0  0
    3.6044   -3.7802    5.1444 H   0  0  0  0  0  0  0  0  0  0  0  0
    3.5237   -5.3101    5.6497 H   0  0  0  0  0  0  0  0  0  0  0  0
    5.2782   -4.4796    3.3136 H   0  0  0  0  0  0  0  0  0  0  0  0
    5.6218   -5.2672    4.4615 H   0  0  0  0  0  0  0  0  0  0  0  0
    3.4578   -6.9698    0.6887 H   0  0  0  0  0  0  0  0  0  0  0  0
    5.0228   -9.3570    1.5238 H   0  0  0  0  0  0  0  0  0  0  0  0
    5.1537   -8.3085    0.1077 H   0  0  0  0  0  0  0  0  0  0  0  0
    3.7852   -9.3457    0.2802 H   0  0  0  0  0  0  0  0  0  0  0  0
    1.6716   -8.6048    1.1304 H   0  0  0  0  0  0  0  0  0  0  0  0
    2.4205   -9.2583    2.5192 H   0  0  0  0  0  0  0  0  0  0  0  0
    0.1243   -7.3075    2.3602 H   0  0  0  0  0  0  0  0  0  0  0  0
    0.3787   -8.5398    3.5058 H   0  0  0  0  0  0  0  0  0  0  0  0
   -0.0076   -5.9741    4.3857 H   0  0  0  0  0  0  0  0  0  0  0  0
    1.0332   -6.3135    6.4288 H   0  0  0  0  0  0  0  0  0  0  0  0
    0.5002   -9.1564    5.6273 H   0  0  0  0  0  0  0  0  0  0  0  0
   -0.7298   -7.8969    5.6444 H   0  0  0  0  0  0  0  0  0  0  0  0
    0.1174   -8.3209    7.1177 H   0  0  0  0  0  0  0  0  0  0  0  0
    3.1414   -6.7765    6.9986 H   0  0  0  0  0  0  0  0  0  0  0  0
    2.4196   -8.2516    7.2375 H   0  0  0  0  0  0  0  0  0  0  0  0
    4.5770   -8.7920    6.7050 H   0  0  0  0  0  0  0  0  0  0  0  0
    3.6926   -9.3340    5.3180 H   0  0  0  0  0  0  0  0  0  0  0  0
    5.1781   -6.7587    5.6089 H   0  0  0  0  0  0  0  0  0  0  0  0
    4.3127   -8.5998    3.3416 H   0  0  0  0  0  0  0  0  0  0  0  0
  1  2  1  0
  1 42  1  0
  1 43  1  0
  1 44  1  0
  2 37  1  0
  2  3  1  0
  2 45  1  6
  3  4  1  0
  3 46  1  0
  3 47  1  0
  4 27  1  0
  4  5  1  0
  4 48  1  6
  5 23  1  0
  5  6  1  0
  5 49  1  6
  6  7  1  0
  6 50  1  0
  6 51  1  0
  7  8  1  0
  7 52  1  0
  7 53  1  0
  8 10  1  6
  8  9  1  0
  8 11  1  0
  9 10  1  0
  9 54  1  0
  9 55  1  0
 11 15  1  0
 11 12  1  0
 11 56  1  6
 12 19  1  0
 12 13  1  0
 12 57  1  6
 13 14  1  0
 14 15  1  0
 14 24  1  0
 14 58  1  6
 15 16  1  0
 15 59  1  6
 16 20  1  0
 16 17  1  0
 16 60  1  1
 17 18  1  0
 17 23  1  0
 17 61  1  1
 18 19  1  0
 18 62  1  0
 18 63  1  0
 19 20  1  0
 19 64  1  1
 20 21  1  0
 20 22  1  0
 21 65  1  0
 21 66  1  0
 21 67  1  0
 22 68  1  0
 22 69  1  0
 22 70  1  0
 24 32  1  0
 24 40  1  6
 24 25  1  0
 25 26  1  0
 25 71  1  0
 25 72  1  0
 27 26  1  1
 26 73  1  0
 26 74  1  0
 27 38  1  0
 27 28  1  0
 28 29  1  0
 28 30  1  0
 28 75  1  6
 29 76  1  0
 29 77  1  0
 29 78  1  0
 30 31  1  0
 30 79  1  0
 30 80  1  0
 31 32  1  0
 31 81  1  0
 31 82  1  0
 32 33  1  0
 32 83  1  1
 33 34  1  0
 33 35  1  0
 33 84  1  1
 34 85  1  0
 34 86  1  0
 34 87  1  0
 35 36  1  0
 35 88  1  0
 35 89  1  0
 36 37  1  0
 36 90  1  0
 36 91  1  0
 37 38  1  0
 37 92  1  1
 38 39  1  0
 38 93  1  6
 39 40  1  0
 40 41  2  0
M  END
>  <i_m_ct_stereo_status>  (208) 
1

>  <s_m_source_file>  (208) 
/var/tmp/pbs.5076255.sched01/tmpxnahmhzs/434e81vi2s.sdf

>  <i_m_source_file_index>  (208) 
42

>  <i_lp_mmshare_version>  (208) 
48012

>  <i_f3d_flags>  (208) 
0

>  <s_epik_input>  (208) 
W0NIM11bQ0BIXTFbQ0gyXVtDSDJdW0NAQEhdKFtDQEhdMk9DMz1PKVtDQEhdKFtDSDNdKVtDSDJdW0NASF0oW0NAQEhdKE80KVtDSDJdW0NIMl01KVtDQEBdMihbQ0gyXVtDSDJdNilbQ0BASF0oW0NIM10pW0NIMl1bQ0gyXVtDQEBIXTFbQ0BdMzZbQ0BASF0oTzcpW0NIXThbQ0BIXShDOShbQ0gzXSlbQ0gzXSlbQ0BASF00W0NIMl1bQ0BIXTlbQ0BIXTdbQ0BIXThbQ0BdMTVbQ0gyXU8x

>  <s_epik_cmdline>  (208) 
J2VwaWtfcHl0aG9uJywgJy1waHQnLCAnMi4wJywgJy1waCcsICc3LjAnLCAnLXRuJywgJzgnLCAnLW1hJywgJzIwMCcsICctaW1hZScsICc8aW5maWxlLm1hZT4nLCAnLW9tYWUnLCAnPG91dGZpbGUubWFlPic=

>  <r_lp_tautomer_probability>  (208) 
1

>  <r_epik_Ionization_Penalty>  (208) 
7.00227e-11

>  <r_epik_Ionization_Penalty_Charging>  (208) 
0

>  <r_epik_Ionization_Penalty_Neutral>  (208) 
7.00227e-11

>  <r_epik_State_Penalty>  (208) 
-0

>  <r_epik_Charging_Adjusted_Penalty>  (208) 
0

>  <i_epik_Tot_Q>  (208) 
0

>  <i_epik_Tot_abs_Q>  (208) 
0

>  <s_epik_Chemistry_Notes>  (208) 
This compound has an ester and may undergo hydrolysis at high or low pH.

>  <s_lp_Force_Field>  (208) 
OPLS3e

>  <r_lp_Energy>  (208) 
845.284

>  <b_lp_Chiralities_Consistent>  (208) 
1

>  <s_lp_Variant>  (208) 
59:0-7

>  <s_i_glide_gridfile>  (208) 
pfpi4k_grid

>  <i_i_glide_lignum>  (208) 
42

>  <i_i_glide_rotatable_bonds>  (208) 
0

>  <r_i_docking_score>  (208) 
-1.92749

>  <r_i_glide_ligand_efficiency>  (208) 
-0.047012

>  <r_i_glide_ligand_efficiency_sa>  (208) 
-0.162108

>  <r_i_glide_ligand_efficiency_ln>  (208) 
-0.408924

>  <r_i_glide_gscore>  (208) 
-1.92749

>  <r_i_glide_lipo>  (208) 
-0.540333

>  <r_i_glide_hbond>  (208) 
0

>  <r_i_glide_metal>  (208) 
-0

>  <r_i_glide_rewards>  (208) 
0

>  <r_i_glide_evdw>  (208) 
-28.8385

>  <r_i_glide_ecoul>  (208) 
0.384668

>  <r_i_glide_erotb>  (208) 
0

>  <r_i_glide_esite>  (208) 
-0.00293592

>  <r_i_glide_emodel>  (208) 
-32.1544

>  <r_i_glide_energy>  (208) 
-28.4538

>  <r_i_glide_einternal>  (208) 
0

>  <r_i_glide_intrahb_reward>  (208) 
-0

>  <i_i_glide_confnum>  (208) 
1

>  <i_i_glide_posenum>  (208) 
8

>  <r_i_glide_eff_state_penalty>  (208) 
0

>  <ligand_id>  (208) 
59

>  <original_smiles>  (208) 
CC1CC2C3CCC4(CO4)C4C5OC(C4C4C(CC5C4(C)C)O3)C34CCC25C(C)CCC3C(C)CCC1C5OC4=O

>  <smiles>  (208) 
[H]C([H])([H])C1([H])C([H])([H])C2([H])C3([H])OC4([H])C([H])([H])C5([H])C6([H])OC([H])(C([H])(C6([H])C6(OC6([H])[H])C([H])([H])C3([H])[H])C4([H])C5(C([H])([H])[H])C([H])([H])[H])C34C(=O)OC5([H])C1([H])C([H])([H])C([H])([H])C([H])(C([H])([H])[H])C3([H])C([H])([H])C([H])([H])C([H])(C([H])([H])[H])C52C([H])([H])C4([H])[H]

$$$$
59:6:2
     RDKit          3D

 93102  0  0  1  0  0  0  0  0999 V2000
    6.3876   -2.5684    7.7005 C   0  0  0  0  0  0  0  0  0  0  0  0
    4.9366   -2.5759    7.1942 C   0  0  2  0  0  0  0  0  0  0  0  0
    4.2254   -4.0005    7.6133 C   0  0  0  0  0  0  0  0  0  0  0  0
    2.7807   -4.4112    7.0233 C   0  0  2  0  0  0  0  0  0  0  0  0
    2.2547   -6.0171    6.8471 C   0  0  1  0  0  0  0  0  0  0  0  0
    0.7351   -6.3854    6.6885 C   0  0  0  0  0  0  0  0  0  0  0  0
   -0.1193   -6.1664    5.3949 C   0  0  0  0  0  0  0  0  0  0  0  0
   -0.1492   -7.1704    4.1957 C   0  0  2  0  0  0  0  0  0  0  0  0
   -1.0360   -8.4162    4.1194 C   0  0  0  0  0  0  0  0  0  0  0  0
   -1.5021   -7.1760    3.6648 O   0  0  0  0  0  0  0  0  0  0  0  0
    0.8099   -6.8012    3.0379 C   0  0  2  0  0  0  0  0  0  0  0  0
    1.4124   -7.7232    2.0033 C   0  0  1  0  0  0  0  0  0  0  0  0
    2.2274   -6.6600    1.2572 O   0  0  0  0  0  0  0  0  0  0  0  0
    2.3051   -5.3821    1.9877 C   0  0  1  0  0  0  0  0  0  0  0  0
    2.1853   -6.2474    3.3038 C   0  0  2  0  0  0  0  0  0  0  0  0
    3.4272   -7.2710    3.6727 C   0  0  1  0  0  0  0  0  0  0  0  0
    3.0249   -7.9085    4.9979 C   0  0  2  0  0  0  0  0  0  0  0  0
    2.1012   -9.0169    4.3846 C   0  0  0  0  0  0  0  0  0  0  0  0
    2.2449   -8.8883    2.7648 C   0  0  2  0  0  0  0  0  0  0  0  0
    3.7104   -8.4723    2.7087 C   0  0  0  0  0  0  0  0  0  0  0  0
    4.3540   -8.1278    1.3263 C   0  0  0  0  0  0  0  0  0  0  0  0
    4.6998   -9.5783    3.2206 C   0  0  0  0  0  0  0  0  0  0  0  0
    3.0060   -7.1844    6.3127 O   0  0  0  0  0  0  0  0  0  0  0  0
    3.1395   -3.9334    2.2181 C   0  0  1  0  0  0  0  0  0  0  0  0
    4.2914   -4.3749    3.2458 C   0  0  0  0  0  0  0  0  0  0  0  0
    3.8702   -4.5643    4.8611 C   0  0  0  0  0  0  0  0  0  0  0  0
    2.7054   -3.5955    5.7403 C   0  0  1  0  0  0  0  0  0  0  0  0
    1.2287   -2.5894    5.5460 C   0  0  1  0  0  0  0  0  0  0  0  0
    0.7592   -1.9699    6.8858 C   0  0  0  0  0  0  0  0  0  0  0  0
    1.0342   -1.3009    4.3452 C   0  0  0  0  0  0  0  0  0  0  0  0
    1.5197   -1.2348    2.6647 C   0  0  0  0  0  0  0  0  0  0  0  0
    2.8121   -2.2023    1.8793 C   0  0  1  0  0  0  0  0  0  0  0  0
    4.1822   -1.2817    1.9471 C   0  0  1  0  0  0  0  0  0  0  0  0
    3.9499    0.1137    1.3238 C   0  0  0  0  0  0  0  0  0  0  0  0
    5.3119   -1.1362    3.1462 C   0  0  0  0  0  0  0  0  0  0  0  0
    5.1932   -0.9450    4.7683 C   0  0  0  0  0  0  0  0  0  0  0  0
    4.8786   -2.2372    5.6415 C   0  0  2  0  0  0  0  0  0  0  0  0
    3.4056   -2.3606    5.4605 C   0  0  1  0  0  0  0  0  0  0  0  0
    3.1979   -2.4936    4.0931 O   0  0  0  0  0  0  0  0  0  0  0  0
    2.3218   -3.4822    3.2468 C   0  0  0  0  0  0  0  0  0  0  0  0
    1.1024   -3.7511    3.2891 O   0  0  0  0  0  0  0  0  0  0  0  0
    6.9666   -3.3734    7.2402 H   0  0  0  0  0  0  0  0  0  0  0  0
    6.4420   -2.7127    8.7826 H   0  0  0  0  0  0  0  0  0  0  0  0
    6.8971   -1.6312    7.4710 H   0  0  0  0  0  0  0  0  0  0  0  0
    4.4168   -1.7698    7.7301 H   0  0  0  0  0  0  0  0  0  0  0  0
    4.9312   -4.8323    7.4710 H   0  0  0  0  0  0  0  0  0  0  0  0
    4.1081   -3.9654    8.6889 H   0  0  0  0  0  0  0  0  0  0  0  0
    2.0840   -3.9900    7.7476 H   0  0  0  0  0  0  0  0  0  0  0  0
    2.4054   -6.2905    7.8890 H   0  0  0  0  0  0  0  0  0  0  0  0
    0.6056   -7.4275    6.9934 H   0  0  0  0  0  0  0  0  0  0  0  0
    0.2318   -5.8190    7.4722 H   0  0  0  0  0  0  0  0  0  0  0  0
   -1.1442   -6.1312    5.7517 H   0  0  0  0  0  0  0  0  0  0  0  0
    0.0241   -5.1734    4.9975 H   0  0  0  0  0  0  0  0  0  0  0  0
   -0.8720   -9.1357    3.3289 H   0  0  0  0  0  0  0  0  0  0  0  0
   -1.4319   -8.7953    5.0570 H   0  0  0  0  0  0  0  0  0  0  0  0
    0.1590   -6.1160    2.4882 H   0  0  0  0  0  0  0  0  0  0  0  0
    0.6514   -8.1622    1.3601 H   0  0  0  0  0  0  0  0  0  0  0  0
    1.4153   -5.0294    1.4563 H   0  0  0  0  0  0  0  0  0  0  0  0
    1.9410   -5.7271    4.1996 H   0  0  0  0  0  0  0  0  0  0  0  0
    4.4142   -6.8648    3.8140 H   0  0  0  0  0  0  0  0  0  0  0  0
    3.8986   -8.4772    5.2992 H   0  0  0  0  0  0  0  0  0  0  0  0
    2.4607   -9.9962    4.6970 H   0  0  0  0  0  0  0  0  0  0  0  0
    1.1281   -9.0747    4.8288 H   0  0  0  0  0  0  0  0  0  0  0  0
    2.0907   -9.8480    2.2750 H   0  0  0  0  0  0  0  0  0  0  0  0
    3.7482   -8.4773    0.4925 H   0  0  0  0  0  0  0  0  0  0  0  0
    5.3334   -8.5844    1.1798 H   0  0  0  0  0  0  0  0  0  0  0  0
    4.5350   -7.0609    1.2147 H   0  0  0  0  0  0  0  0  0  0  0  0
    4.8283  -10.3638    2.4733 H   0  0  0  0  0  0  0  0  0  0  0  0
    4.4409  -10.1191    4.1275 H   0  0  0  0  0  0  0  0  0  0  0  0
    5.6878   -9.1524    3.4048 H   0  0  0  0  0  0  0  0  0  0  0  0
    4.7965   -5.2198    2.8120 H   0  0  0  0  0  0  0  0  0  0  0  0
    5.1073   -3.6801    3.1719 H   0  0  0  0  0  0  0  0  0  0  0  0
    3.7069   -5.5361    5.1076 H   0  0  0  0  0  0  0  0  0  0  0  0
    4.8251   -4.6781    5.3458 H   0  0  0  0  0  0  0  0  0  0  0  0
    0.3879   -3.2446    5.3897 H   0  0  0  0  0  0  0  0  0  0  0  0
    1.5375   -1.4015    7.3938 H   0  0  0  0  0  0  0  0  0  0  0  0
    0.3921   -2.7315    7.5742 H   0  0  0  0  0  0  0  0  0  0  0  0
   -0.0819   -1.2939    6.7231 H   0  0  0  0  0  0  0  0  0  0  0  0
   -0.0332   -1.0734    4.3337 H   0  0  0  0  0  0  0  0  0  0  0  0
    1.4703   -0.4057    4.7878 H   0  0  0  0  0  0  0  0  0  0  0  0
    0.6227   -1.4789    2.0921 H   0  0  0  0  0  0  0  0  0  0  0  0
    1.6522   -0.1826    2.4261 H   0  0  0  0  0  0  0  0  0  0  0  0
    2.5234   -2.1924    0.8271 H   0  0  0  0  0  0  0  0  0  0  0  0
    4.7708   -1.7675    1.1663 H   0  0  0  0  0  0  0  0  0  0  0  0
    3.5829    0.8299    2.0589 H   0  0  0  0  0  0  0  0  0  0  0  0
    3.2434    0.0786    0.4954 H   0  0  0  0  0  0  0  0  0  0  0  0
    4.8760    0.5255    0.9200 H   0  0  0  0  0  0  0  0  0  0  0  0
    6.0593   -1.9053    2.9676 H   0  0  0  0  0  0  0  0  0  0  0  0
    5.8903   -0.2593    2.8499 H   0  0  0  0  0  0  0  0  0  0  0  0
    6.1713   -0.5974    5.0989 H   0  0  0  0  0  0  0  0  0  0  0  0
    4.5142   -0.1220    5.0005 H   0  0  0  0  0  0  0  0  0  0  0  0
    5.5910   -2.9139    5.1749 H   0  0  0  0  0  0  0  0  0  0  0  0
    3.0024   -1.4418    5.8955 H   0  0  0  0  0  0  0  0  0  0  0  0
  1  2  1  0
  1 42  1  0
  1 43  1  0
  1 44  1  0
  2 37  1  0
  2  3  1  0
  2 45  1  1
  3  4  1  0
  3 46  1  0
  3 47  1  0
  4 27  1  0
  4  5  1  0
  4 48  1  1
  5 23  1  0
  5  6  1  0
  5 49  1  1
  6  7  1  0
  6 50  1  0
  6 51  1  0
  7  8  1  0
  7 52  1  0
  7 53  1  0
  8 10  1  6
  8  9  1  0
  8 11  1  0
  9 10  1  0
  9 54  1  0
  9 55  1  0
 11 15  1  0
 11 12  1  0
 11 56  1  6
 12 19  1  0
 12 13  1  0
 12 57  1  6
 13 14  1  0
 14 15  1  0
 14 24  1  0
 14 58  1  6
 15 16  1  0
 15 59  1  1
 16 20  1  0
 16 17  1  0
 16 60  1  1
 17 18  1  0
 17 23  1  0
 17 61  1  1
 18 19  1  0
 18 62  1  0
 18 63  1  0
 19 20  1  0
 19 64  1  6
 20 21  1  0
 20 22  1  0
 21 65  1  0
 21 66  1  0
 21 67  1  0
 22 68  1  0
 22 69  1  0
 22 70  1  0
 24 32  1  0
 24 40  1  1
 24 25  1  0
 25 26  1  0
 25 71  1  0
 25 72  1  0
 27 26  1  6
 26 73  1  0
 26 74  1  0
 27 38  1  0
 27 28  1  0
 28 29  1  0
 28 30  1  0
 28 75  1  6
 29 76  1  0
 29 77  1  0
 29 78  1  0
 30 31  1  0
 30 79  1  0
 30 80  1  0
 31 32  1  0
 31 81  1  0
 31 82  1  0
 32 33  1  0
 32 83  1  6
 33 34  1  0
 33 35  1  0
 33 84  1  6
 34 85  1  0
 34 86  1  0
 34 87  1  0
 35 36  1  0
 35 88  1  0
 35 89  1  0
 36 37  1  0
 36 90  1  0
 36 91  1  0
 37 38  1  0
 37 92  1  6
 38 39  1  0
 38 93  1  1
 39 40  1  0
 40 41  2  0
M  END
>  <i_m_ct_stereo_status>  (209) 
1

>  <s_m_source_file>  (209) 
/var/tmp/pbs.5076255.sched01/tmpxnahmhzs/434e81vi2s.sdf

>  <i_m_source_file_index>  (209) 
42

>  <i_lp_mmshare_version>  (209) 
48012

>  <i_f3d_flags>  (209) 
0

>  <s_epik_input>  (209) 
W0NIM11bQ0BIXTFbQ0gyXVtDSDJdW0NAQEhdKFtDQEhdMk9DMz1PKVtDQEhdKFtDSDNdKVtDSDJdW0NASF0oW0NAQEhdKE80KVtDSDJdW0NIMl01KVtDQEBdMihbQ0gyXVtDSDJdNilbQ0BASF0oW0NIM10pW0NIMl1bQ0gyXVtDQEBIXTFbQ0BdMzZbQ0BASF0oTzcpW0NIXThbQ0BIXShDOShbQ0gzXSlbQ0gzXSlbQ0BASF00W0NIMl1bQ0BIXTlbQ0BIXTdbQ0BIXThbQ0BdMTVbQ0gyXU8x

>  <s_epik_cmdline>  (209) 
J2VwaWtfcHl0aG9uJywgJy1waHQnLCAnMi4wJywgJy1waCcsICc3LjAnLCAnLXRuJywgJzgnLCAnLW1hJywgJzIwMCcsICctaW1hZScsICc8aW5maWxlLm1hZT4nLCAnLW9tYWUnLCAnPG91dGZpbGUubWFlPic=

>  <r_lp_tautomer_probability>  (209) 
1

>  <r_epik_Ionization_Penalty>  (209) 
7.00227e-11

>  <r_epik_Ionization_Penalty_Charging>  (209) 
0

>  <r_epik_Ionization_Penalty_Neutral>  (209) 
7.00227e-11

>  <r_epik_State_Penalty>  (209) 
-0

>  <r_epik_Charging_Adjusted_Penalty>  (209) 
0

>  <i_epik_Tot_Q>  (209) 
0

>  <i_epik_Tot_abs_Q>  (209) 
0

>  <s_epik_Chemistry_Notes>  (209) 
This compound has an ester and may undergo hydrolysis at high or low pH.

>  <s_lp_Force_Field>  (209) 
OPLS3e

>  <r_lp_Energy>  (209) 
845.284

>  <b_lp_Chiralities_Consistent>  (209) 
1

>  <s_lp_Variant>  (209) 
59:0-7

>  <s_i_glide_gridfile>  (209) 
pfpi4k_grid

>  <i_i_glide_lignum>  (209) 
42

>  <i_i_glide_rotatable_bonds>  (209) 
0

>  <r_i_docking_score>  (209) 
-1.82332

>  <r_i_glide_ligand_efficiency>  (209) 
-0.0444712

>  <r_i_glide_ligand_efficiency_sa>  (209) 
-0.153347

>  <r_i_glide_ligand_efficiency_ln>  (209) 
-0.386824

>  <r_i_glide_gscore>  (209) 
-1.82332

>  <r_i_glide_lipo>  (209) 
-0.219428

>  <r_i_glide_hbond>  (209) 
-0.0279038

>  <r_i_glide_metal>  (209) 
-0

>  <r_i_glide_rewards>  (209) 
-0.000818967

>  <r_i_glide_evdw>  (209) 
-31.8455

>  <r_i_glide_ecoul>  (209) 
0.114024

>  <r_i_glide_erotb>  (209) 
0

>  <r_i_glide_esite>  (209) 
0

>  <r_i_glide_emodel>  (209) 
-35.3368

>  <r_i_glide_energy>  (209) 
-31.7315

>  <r_i_glide_einternal>  (209) 
0

>  <r_i_glide_intrahb_reward>  (209) 
-0

>  <i_i_glide_confnum>  (209) 
2

>  <i_i_glide_posenum>  (209) 
7

>  <r_i_glide_eff_state_penalty>  (209) 
0

>  <ligand_id>  (209) 
59

>  <original_smiles>  (209) 
CC1CC2C3CCC4(CO4)C4C5OC(C4C4C(CC5C4(C)C)O3)C34CCC25C(C)CCC3C(C)CCC1C5OC4=O

>  <smiles>  (209) 
[H]C([H])([H])C1([H])C([H])([H])C2([H])C3([H])OC4([H])C([H])([H])C5([H])C6([H])OC([H])(C([H])(C6([H])C6(OC6([H])[H])C([H])([H])C3([H])[H])C4([H])C5(C([H])([H])[H])C([H])([H])[H])C34C(=O)OC5([H])C1([H])C([H])([H])C([H])([H])C([H])(C([H])([H])[H])C3([H])C([H])([H])C([H])([H])C([H])(C([H])([H])[H])C52C([H])([H])C4([H])[H]

$$$$
59:7:0
     RDKit          3D

 93102  0  0  1  0  0  0  0  0999 V2000
    8.3150   -7.4945    3.8261 C   0  0  0  0  0  0  0  0  0  0  0  0
    7.3398   -6.3724    4.2319 C   0  0  2  0  0  0  0  0  0  0  0  0
    6.4450   -6.8749    5.5251 C   0  0  0  0  0  0  0  0  0  0  0  0
    5.1763   -6.0155    6.0220 C   0  0  2  0  0  0  0  0  0  0  0  0
    3.7550   -6.5852    6.7457 C   0  0  2  0  0  0  0  0  0  0  0  0
    2.9520   -5.7185    7.7354 C   0  0  0  0  0  0  0  0  0  0  0  0
    1.3934   -6.0155    7.7547 C   0  0  0  0  0  0  0  0  0  0  0  0
    0.3013   -5.5952    6.6455 C   0  0  1  0  0  0  0  0  0  0  0  0
   -1.0522   -5.2145    7.2200 C   0  0  0  0  0  0  0  0  0  0  0  0
   -0.1064   -4.2191    6.8601 O   0  0  0  0  0  0  0  0  0  0  0  0
    0.2221   -6.0150    5.1062 C   0  0  2  0  0  0  0  0  0  0  0  0
   -0.7268   -6.9567    4.3823 C   0  0  1  0  0  0  0  0  0  0  0  0
   -0.2593   -6.7014    2.9377 O   0  0  0  0  0  0  0  0  0  0  0  0
    1.0159   -5.9563    2.8899 C   0  0  1  0  0  0  0  0  0  0  0  0
    1.3247   -6.5916    4.2907 C   0  0  2  0  0  0  0  0  0  0  0  0
    1.6303   -8.1968    4.4181 C   0  0  1  0  0  0  0  0  0  0  0  0
    1.8746   -8.4341    5.9185 C   0  0  2  0  0  0  0  0  0  0  0  0
    0.3220   -8.5614    6.3031 C   0  0  0  0  0  0  0  0  0  0  0  0
   -0.5027   -8.4491    4.9335 C   0  0  2  0  0  0  0  0  0  0  0  0
    0.4726   -9.1599    4.0153 C   0  0  0  0  0  0  0  0  0  0  0  0
    0.1231   -9.2389    2.5035 C   0  0  0  0  0  0  0  0  0  0  0  0
    0.6874  -10.6766    4.3638 C   0  0  0  0  0  0  0  0  0  0  0  0
    3.1145   -7.9450    6.6628 O   0  0  0  0  0  0  0  0  0  0  0  0
    2.4374   -5.5402    2.0263 C   0  0  1  0  0  0  0  0  0  0  0  0
    3.4198   -6.7558    2.3826 C   0  0  0  0  0  0  0  0  0  0  0  0
    4.1584   -6.7349    3.9035 C   0  0  0  0  0  0  0  0  0  0  0  0
    4.7555   -5.2926    4.7261 C   0  0  1  0  0  0  0  0  0  0  0  0
    4.4213   -3.5449    4.9261 C   0  0  1  0  0  0  0  0  0  0  0  0
    5.3873   -2.8704    5.9354 C   0  0  0  0  0  0  0  0  0  0  0  0
    4.2879   -2.3870    3.5790 C   0  0  0  0  0  0  0  0  0  0  0  0
    3.5120   -2.5448    2.0040 C   0  0  0  0  0  0  0  0  0  0  0  0
    3.0483   -4.0840    1.1834 C   0  0  1  0  0  0  0  0  0  0  0  0
    4.3449   -4.4807    0.2230 C   0  0  1  0  0  0  0  0  0  0  0  0
    4.1623   -3.7619   -1.1333 C   0  0  0  0  0  0  0  0  0  0  0  0
    5.9114   -4.2546    0.6915 C   0  0  0  0  0  0  0  0  0  0  0  0
    6.9176   -5.2106    1.5739 C   0  0  0  0  0  0  0  0  0  0  0  0
    6.5049   -5.8669    2.9687 C   0  0  2  0  0  0  0  0  0  0  0  0
    5.6050   -4.8832    3.6401 C   0  0  1  0  0  0  0  0  0  0  0  0
    4.5052   -4.7411    2.8122 O   0  0  0  0  0  0  0  0  0  0  0  0
    2.9523   -4.7273    3.0089 C   0  0  0  0  0  0  0  0  0  0  0  0
    2.2072   -4.0184    3.7345 O   0  0  0  0  0  0  0  0  0  0  0  0
    7.7684   -8.3866    3.5132 H   0  0  0  0  0  0  0  0  0  0  0  0
    8.9592   -7.7851    4.6574 H   0  0  0  0  0  0  0  0  0  0  0  0
    8.9621   -7.1968    2.9979 H   0  0  0  0  0  0  0  0  0  0  0  0
    7.9589   -5.5385    4.5637 H   0  0  0  0  0  0  0  0  0  0  0  0
    6.1695   -7.9214    5.4239 H   0  0  0  0  0  0  0  0  0  0  0  0
    7.1329   -6.8965    6.3712 H   0  0  0  0  0  0  0  0  0  0  0  0
    5.5938   -5.3059    6.7286 H   0  0  0  0  0  0  0  0  0  0  0  0
    3.1712   -6.0369    6.1102 H   0  0  0  0  0  0  0  0  0  0  0  0
    3.3440   -5.9200    8.7294 H   0  0  0  0  0  0  0  0  0  0  0  0
    3.1307   -4.6516    7.5638 H   0  0  0  0  0  0  0  0  0  0  0  0
    1.2656   -7.0295    8.1267 H   0  0  0  0  0  0  0  0  0  0  0  0
    1.0837   -5.4545    8.6431 H   0  0  0  0  0  0  0  0  0  0  0  0
   -1.9174   -5.2981    6.5793 H   0  0  0  0  0  0  0  0  0  0  0  0
   -1.2316   -5.3242    8.2918 H   0  0  0  0  0  0  0  0  0  0  0  0
   -0.0576   -5.0299    4.7425 H   0  0  0  0  0  0  0  0  0  0  0  0
   -1.7678   -6.6558    4.5061 H   0  0  0  0  0  0  0  0  0  0  0  0
    0.4517   -5.0289    2.8245 H   0  0  0  0  0  0  0  0  0  0  0  0
    2.0392   -6.0371    4.7440 H   0  0  0  0  0  0  0  0  0  0  0  0
    2.4450   -8.6332    3.8601 H   0  0  0  0  0  0  0  0  0  0  0  0
    2.1998   -9.4706    5.9774 H   0  0  0  0  0  0  0  0  0  0  0  0
    0.1501   -9.5314    6.7741 H   0  0  0  0  0  0  0  0  0  0  0  0
   -0.1331   -7.9239    7.0411 H   0  0  0  0  0  0  0  0  0  0  0  0
   -1.4490   -8.9821    4.9905 H   0  0  0  0  0  0  0  0  0  0  0  0
   -0.9286   -9.0195    2.3109 H   0  0  0  0  0  0  0  0  0  0  0  0
    0.2938  -10.2309    2.0851 H   0  0  0  0  0  0  0  0  0  0  0  0
    0.7379   -8.5795    1.8931 H   0  0  0  0  0  0  0  0  0  0  0  0
   -0.1800  -11.2620    4.0542 H   0  0  0  0  0  0  0  0  0  0  0  0
    0.8169  -10.9460    5.4084 H   0  0  0  0  0  0  0  0  0  0  0  0
    1.5523  -11.0818    3.8364 H   0  0  0  0  0  0  0  0  0  0  0  0
    2.9122   -7.6861    2.1696 H   0  0  0  0  0  0  0  0  0  0  0  0
    4.1887   -6.8196    1.6193 H   0  0  0  0  0  0  0  0  0  0  0  0
    3.7258   -7.3606    4.5893 H   0  0  0  0  0  0  0  0  0  0  0  0
    4.8816   -7.5203    3.7938 H   0  0  0  0  0  0  0  0  0  0  0  0
    3.4981   -3.4786    5.5103 H   0  0  0  0  0  0  0  0  0  0  0  0
    6.4369   -3.0205    5.6820 H   0  0  0  0  0  0  0  0  0  0  0  0
    5.2329   -3.2253    6.9550 H   0  0  0  0  0  0  0  0  0  0  0  0
    5.2127   -1.7918    5.9755 H   0  0  0  0  0  0  0  0  0  0  0  0
    3.8469   -1.4843    4.0170 H   0  0  0  0  0  0  0  0  0  0  0  0
    5.3074   -2.0678    3.3494 H   0  0  0  0  0  0  0  0  0  0  0  0
    2.5795   -1.9818    2.0866 H   0  0  0  0  0  0  0  0  0  0  0  0
    4.0909   -1.9481    1.2980 H   0  0  0  0  0  0  0  0  0  0  0  0
    2.2396   -3.7949    0.5087 H   0  0  0  0  0  0  0  0  0  0  0  0
    4.2389   -5.5299   -0.0557 H   0  0  0  0  0  0  0  0  0  0  0  0
    4.2651   -2.6803   -1.0530 H   0  0  0  0  0  0  0  0  0  0  0  0
    3.1786   -3.9616   -1.5586 H   0  0  0  0  0  0  0  0  0  0  0  0
    4.8853   -4.1151   -1.8708 H   0  0  0  0  0  0  0  0  0  0  0  0
    6.4696   -4.1301   -0.2371 H   0  0  0  0  0  0  0  0  0  0  0  0
    5.9696   -3.2613    1.1348 H   0  0  0  0  0  0  0  0  0  0  0  0
    7.2510   -6.0208    0.9209 H   0  0  0  0  0  0  0  0  0  0  0  0
    7.8209   -4.6250    1.7506 H   0  0  0  0  0  0  0  0  0  0  0  0
    6.1045   -6.7651    2.5262 H   0  0  0  0  0  0  0  0  0  0  0  0
    6.2107   -3.9811    3.7859 H   0  0  0  0  0  0  0  0  0  0  0  0
  1  2  1  0
  1 42  1  0
  1 43  1  0
  1 44  1  0
  2 37  1  0
  2  3  1  0
  2 45  1  1
  3  4  1  0
  3 46  1  0
  3 47  1  0
  4 27  1  0
  4  5  1  0
  4 48  1  1
  5 23  1  0
  5  6  1  0
  5 49  1  6
  6  7  1  0
  6 50  1  0
  6 51  1  0
  7  8  1  0
  7 52  1  0
  7 53  1  0
  8 10  1  6
  8  9  1  0
  8 11  1  0
  9 10  1  0
  9 54  1  0
  9 55  1  0
 11 15  1  0
 11 12  1  0
 11 56  1  6
 12 19  1  0
 12 13  1  0
 12 57  1  6
 13 14  1  0
 14 15  1  0
 14 24  1  0
 14 58  1  1
 15 16  1  0
 15 59  1  1
 16 20  1  0
 16 17  1  0
 16 60  1  6
 17 18  1  0
 17 23  1  0
 17 61  1  6
 18 19  1  0
 18 62  1  0
 18 63  1  0
 19 20  1  0
 19 64  1  1
 20 21  1  0
 20 22  1  0
 21 65  1  0
 21 66  1  0
 21 67  1  0
 22 68  1  0
 22 69  1  0
 22 70  1  0
 24 32  1  0
 24 40  1  1
 24 25  1  0
 25 26  1  0
 25 71  1  0
 25 72  1  0
 27 26  1  6
 26 73  1  0
 26 74  1  0
 27 38  1  0
 27 28  1  0
 28 29  1  0
 28 30  1  0
 28 75  1  1
 29 76  1  0
 29 77  1  0
 29 78  1  0
 30 31  1  0
 30 79  1  0
 30 80  1  0
 31 32  1  0
 31 81  1  0
 31 82  1  0
 32 33  1  0
 32 83  1  6
 33 34  1  0
 33 35  1  0
 33 84  1  6
 34 85  1  0
 34 86  1  0
 34 87  1  0
 35 36  1  0
 35 88  1  0
 35 89  1  0
 36 37  1  0
 36 90  1  0
 36 91  1  0
 37 38  1  0
 37 92  1  6
 38 39  1  0
 38 93  1  1
 39 40  1  0
 40 41  2  0
M  END
>  <i_m_ct_stereo_status>  (210) 
1

>  <s_m_source_file>  (210) 
/var/tmp/pbs.5076255.sched01/tmpxnahmhzs/434e81vi2s.sdf

>  <i_m_source_file_index>  (210) 
43

>  <i_lp_mmshare_version>  (210) 
48012

>  <i_f3d_flags>  (210) 
0

>  <s_epik_input>  (210) 
W0NIM11bQ0BIXTFbQ0gyXVtDSDJdW0NAQEhdKFtDQEhdMk9DMz1PKVtDQEhdKFtDSDNdKVtDSDJdW0NASF0oW0NAQEhdKE80KVtDSDJdW0NIMl01KVtDQEBdMihbQ0gyXVtDSDJdNilbQ0BASF0oW0NIM10pW0NIMl1bQ0gyXVtDQEBIXTFbQ0BdMzZbQ0BASF0oTzcpW0NIXThbQ0BIXShDOShbQ0gzXSlbQ0gzXSlbQ0BASF00W0NIMl1bQ0BIXTlbQ0BIXTdbQ0BIXThbQ0BdMTVbQ0gyXU8x

>  <s_epik_cmdline>  (210) 
J2VwaWtfcHl0aG9uJywgJy1waHQnLCAnMi4wJywgJy1waCcsICc3LjAnLCAnLXRuJywgJzgnLCAnLW1hJywgJzIwMCcsICctaW1hZScsICc8aW5maWxlLm1hZT4nLCAnLW9tYWUnLCAnPG91dGZpbGUubWFlPic=

>  <r_lp_tautomer_probability>  (210) 
1

>  <r_epik_Ionization_Penalty>  (210) 
7.00227e-11

>  <r_epik_Ionization_Penalty_Charging>  (210) 
0

>  <r_epik_Ionization_Penalty_Neutral>  (210) 
7.00227e-11

>  <r_epik_State_Penalty>  (210) 
-0

>  <r_epik_Charging_Adjusted_Penalty>  (210) 
0

>  <i_epik_Tot_Q>  (210) 
0

>  <i_epik_Tot_abs_Q>  (210) 
0

>  <s_epik_Chemistry_Notes>  (210) 
This compound has an ester and may undergo hydrolysis at high or low pH.

>  <s_lp_Force_Field>  (210) 
OPLS3e

>  <r_lp_Energy>  (210) 
881.206

>  <b_lp_Chiralities_Consistent>  (210) 
1

>  <s_lp_Variant>  (210) 
59:0-8

>  <s_i_glide_gridfile>  (210) 
pfpi4k_grid

>  <i_i_glide_lignum>  (210) 
43

>  <i_i_glide_rotatable_bonds>  (210) 
0

>  <r_i_docking_score>  (210) 
-2.26337

>  <r_i_glide_ligand_efficiency>  (210) 
-0.0552042

>  <r_i_glide_ligand_efficiency_sa>  (210) 
-0.190356

>  <r_i_glide_ligand_efficiency_ln>  (210) 
-0.480182

>  <r_i_glide_gscore>  (210) 
-2.26337

>  <r_i_glide_lipo>  (210) 
-0.324495

>  <r_i_glide_hbond>  (210) 
-0.16

>  <r_i_glide_metal>  (210) 
-0

>  <r_i_glide_rewards>  (210) 
0

>  <r_i_glide_evdw>  (210) 
-31.2659

>  <r_i_glide_ecoul>  (210) 
-1.43191

>  <r_i_glide_erotb>  (210) 
0

>  <r_i_glide_esite>  (210) 
-0.000795437

>  <r_i_glide_emodel>  (210) 
-37.4635

>  <r_i_glide_energy>  (210) 
-32.6978

>  <r_i_glide_einternal>  (210) 
0

>  <r_i_glide_intrahb_reward>  (210) 
-0

>  <i_i_glide_confnum>  (210) 
1

>  <i_i_glide_posenum>  (210) 
9

>  <r_i_glide_eff_state_penalty>  (210) 
0

>  <ligand_id>  (210) 
59

>  <original_smiles>  (210) 
CC1CC2C3CCC4(CO4)C4C5OC(C4C4C(CC5C4(C)C)O3)C34CCC25C(C)CCC3C(C)CCC1C5OC4=O

>  <smiles>  (210) 
[H]C([H])([H])C1([H])C([H])([H])C2([H])C3([H])OC4([H])C([H])([H])C5([H])C6([H])OC([H])(C([H])(C6([H])C6(OC6([H])[H])C([H])([H])C3([H])[H])C4([H])C5(C([H])([H])[H])C([H])([H])[H])C34C(=O)OC5([H])C1([H])C([H])([H])C([H])([H])C([H])(C([H])([H])[H])C3([H])C([H])([H])C([H])([H])C([H])(C([H])([H])[H])C52C([H])([H])C4([H])[H]

$$$$
59:7:1
     RDKit          3D

 93102  0  0  1  0  0  0  0  0999 V2000
    5.9397   -4.5463    8.8423 C   0  0  0  0  0  0  0  0  0  0  0  0
    4.4597   -4.5513    8.4208 C   0  0  2  0  0  0  0  0  0  0  0  0
    3.9540   -6.1098    8.2126 C   0  0  0  0  0  0  0  0  0  0  0  0
    2.5322   -6.4228    7.5222 C   0  0  2  0  0  0  0  0  0  0  0  0
    2.1099   -7.7552    6.5661 C   0  0  2  0  0  0  0  0  0  0  0  0
    0.6640   -8.2885    6.5221 C   0  0  0  0  0  0  0  0  0  0  0  0
    0.2486   -8.9693    5.1568 C   0  0  0  0  0  0  0  0  0  0  0  0
   -0.0951   -8.2454    3.7658 C   0  0  1  0  0  0  0  0  0  0  0  0
   -1.1784   -8.9130    2.9413 C   0  0  0  0  0  0  0  0  0  0  0  0
   -1.4580   -7.7705    3.7522 O   0  0  0  0  0  0  0  0  0  0  0  0
    0.8465   -7.3191    2.8585 C   0  0  2  0  0  0  0  0  0  0  0  0
    1.5183   -7.5859    1.5159 C   0  0  1  0  0  0  0  0  0  0  0  0
    2.1135   -6.1932    1.2613 O   0  0  0  0  0  0  0  0  0  0  0  0
    2.0381   -5.3217    2.4482 C   0  0  1  0  0  0  0  0  0  0  0  0
    2.1121   -6.6495    3.2826 C   0  0  2  0  0  0  0  0  0  0  0  0
    3.4910   -7.5408    3.3078 C   0  0  1  0  0  0  0  0  0  0  0  0
    3.1639   -8.7444    4.2078 C   0  0  2  0  0  0  0  0  0  0  0  0
    2.4630   -9.6149    3.0545 C   0  0  0  0  0  0  0  0  0  0  0  0
    2.5957   -8.7700    1.6977 C   0  0  2  0  0  0  0  0  0  0  0  0
    3.9605   -8.1378    1.9414 C   0  0  0  0  0  0  0  0  0  0  0  0
    4.5092   -7.1176    0.8955 C   0  0  0  0  0  0  0  0  0  0  0  0
    5.1327   -9.1802    2.0056 C   0  0  0  0  0  0  0  0  0  0  0  0
    2.9887   -8.6381    5.7207 O   0  0  0  0  0  0  0  0  0  0  0  0
    2.6527   -3.9715    3.3088 C   0  0  1  0  0  0  0  0  0  0  0  0
    3.8982   -4.6045    4.1092 C   0  0  0  0  0  0  0  0  0  0  0  0
    3.5635   -5.5186    5.4888 C   0  0  0  0  0  0  0  0  0  0  0  0
    2.2979   -5.1585    6.6695 C   0  0  1  0  0  0  0  0  0  0  0  0
    0.6553   -4.4566    6.8074 C   0  0  1  0  0  0  0  0  0  0  0  0
    0.0950   -4.5418    8.2504 C   0  0  0  0  0  0  0  0  0  0  0  0
    0.2133   -2.8209    6.2428 C   0  0  0  0  0  0  0  0  0  0  0  0
    0.6692   -1.9445    4.7783 C   0  0  0  0  0  0  0  0  0  0  0  0
    2.0649   -2.3155    3.6931 C   0  0  1  0  0  0  0  0  0  0  0  0
    3.3247   -1.3829    4.2495 C   0  0  1  0  0  0  0  0  0  0  0  0
    3.2358   -0.0048    3.5532 C   0  0  0  0  0  0  0  0  0  0  0  0
    3.5988   -1.1128    5.8587 C   0  0  0  0  0  0  0  0  0  0  0  0
    4.4287   -1.9965    6.9732 C   0  0  0  0  0  0  0  0  0  0  0  0
    4.2137   -3.5629    7.1903 C   0  0  2  0  0  0  0  0  0  0  0  0
    2.7651   -3.8224    6.9453 C   0  0  1  0  0  0  0  0  0  0  0  0
    2.5308   -3.4504    5.6240 O   0  0  0  0  0  0  0  0  0  0  0  0
    1.7994   -4.1059    4.3956 C   0  0  0  0  0  0  0  0  0  0  0  0
    0.6187   -4.5179    4.2560 O   0  0  0  0  0  0  0  0  0  0  0  0
    6.5633   -4.9758    8.0580 H   0  0  0  0  0  0  0  0  0  0  0  0
    6.0985   -5.1382    9.7444 H   0  0  0  0  0  0  0  0  0  0  0  0
    6.3017   -3.5367    9.0414 H   0  0  0  0  0  0  0  0  0  0  0  0
    3.8999   -4.1438    9.2632 H   0  0  0  0  0  0  0  0  0  0  0  0
    4.7304   -6.6908    7.7178 H   0  0  0  0  0  0  0  0  0  0  0  0
    3.9161   -6.5570    9.2033 H   0  0  0  0  0  0  0  0  0  0  0  0
    1.8383   -6.4386    8.3534 H   0  0  0  0  0  0  0  0  0  0  0  0
    1.6871   -7.1496    5.8564 H   0  0  0  0  0  0  0  0  0  0  0  0
    0.5809   -9.0420    7.3067 H   0  0  0  0  0  0  0  0  0  0  0  0
   -0.0542   -7.5098    6.7941 H   0  0  0  0  0  0  0  0  0  0  0  0
    0.8577   -9.8585    5.0396 H   0  0  0  0  0  0  0  0  0  0  0  0
   -0.6915   -9.4352    5.4361 H   0  0  0  0  0  0  0  0  0  0  0  0
   -1.2093   -8.7396    1.8704 H   0  0  0  0  0  0  0  0  0  0  0  0
   -1.6159   -9.8484    3.2826 H   0  0  0  0  0  0  0  0  0  0  0  0
    0.0843   -6.5770    2.6211 H   0  0  0  0  0  0  0  0  0  0  0  0
    0.7835   -7.8409    0.7557 H   0  0  0  0  0  0  0  0  0  0  0  0
    1.0769   -4.9405    2.1032 H   0  0  0  0  0  0  0  0  0  0  0  0
    1.7753   -6.4613    4.2210 H   0  0  0  0  0  0  0  0  0  0  0  0
    4.4107   -7.0886    3.6495 H   0  0  0  0  0  0  0  0  0  0  0  0
    4.1151   -9.2580    4.3224 H   0  0  0  0  0  0  0  0  0  0  0  0
    2.9825  -10.5690    2.9600 H   0  0  0  0  0  0  0  0  0  0  0  0
    1.4508   -9.9706    3.1464 H   0  0  0  0  0  0  0  0  0  0  0  0
    2.6056   -9.4209    0.8234 H   0  0  0  0  0  0  0  0  0  0  0  0
    3.9738   -7.1727   -0.0515 H   0  0  0  0  0  0  0  0  0  0  0  0
    5.5578   -7.2771    0.6499 H   0  0  0  0  0  0  0  0  0  0  0  0
    4.4685   -6.0900    1.2516 H   0  0  0  0  0  0  0  0  0  0  0  0
    5.3793   -9.5441    1.0062 H   0  0  0  0  0  0  0  0  0  0  0  0
    4.9706  -10.0837    2.5850 H   0  0  0  0  0  0  0  0  0  0  0  0
    6.0320   -8.7177    2.4142 H   0  0  0  0  0  0  0  0  0  0  0  0
    4.5318   -5.1175    3.3941 H   0  0  0  0  0  0  0  0  0  0  0  0
    4.5814   -3.8026    4.3737 H   0  0  0  0  0  0  0  0  0  0  0  0
    3.6091   -6.5365    5.3301 H   0  0  0  0  0  0  0  0  0  0  0  0
    4.5503   -5.6391    5.9059 H   0  0  0  0  0  0  0  0  0  0  0  0
   -0.0171   -5.1674    6.3198 H   0  0  0  0  0  0  0  0  0  0  0  0
    0.7565   -4.0827    8.9866 H   0  0  0  0  0  0  0  0  0  0  0  0
   -0.0905   -5.5714    8.5534 H   0  0  0  0  0  0  0  0  0  0  0  0
   -0.8705   -4.0394    8.3196 H   0  0  0  0  0  0  0  0  0  0  0  0
   -0.8785   -2.8018    6.2496 H   0  0  0  0  0  0  0  0  0  0  0  0
    0.4790   -2.1413    7.0554 H   0  0  0  0  0  0  0  0  0  0  0  0
   -0.2075   -1.9989    4.1304 H   0  0  0  0  0  0  0  0  0  0  0  0
    0.7218   -0.8860    5.0403 H   0  0  0  0  0  0  0  0  0  0  0  0
    1.7738   -1.9060    2.7222 H   0  0  0  0  0  0  0  0  0  0  0  0
    4.2453   -1.7923    3.8353 H   0  0  0  0  0  0  0  0  0  0  0  0
    2.3652    0.5655    3.8793 H   0  0  0  0  0  0  0  0  0  0  0  0
    3.1771   -0.1028    2.4685 H   0  0  0  0  0  0  0  0  0  0  0  0
    4.1180    0.6045    3.7547 H   0  0  0  0  0  0  0  0  0  0  0  0
    4.1103   -0.1518    5.9028 H   0  0  0  0  0  0  0  0  0  0  0  0
    2.6344   -0.8851    6.3112 H   0  0  0  0  0  0  0  0  0  0  0  0
    5.4926   -1.8373    6.7859 H   0  0  0  0  0  0  0  0  0  0  0  0
    4.2526   -1.5190    7.9372 H   0  0  0  0  0  0  0  0  0  0  0  0
    4.9544   -3.8497    6.4627 H   0  0  0  0  0  0  0  0  0  0  0  0
    2.2272   -3.2349    7.6899 H   0  0  0  0  0  0  0  0  0  0  0  0
  1  2  1  0
  1 42  1  0
  1 43  1  0
  1 44  1  0
  2 37  1  0
  2  3  1  0
  2 45  1  1
  3  4  1  0
  3 46  1  0
  3 47  1  0
  4 27  1  0
  4  5  1  0
  4 48  1  1
  5 23  1  0
  5  6  1  0
  5 49  1  6
  6  7  1  0
  6 50  1  0
  6 51  1  0
  7  8  1  0
  7 52  1  0
  7 53  1  0
  8 10  1  1
  8  9  1  0
  8 11  1  0
  9 10  1  0
  9 54  1  0
  9 55  1  0
 11 15  1  0
 11 12  1  0
 11 56  1  6
 12 19  1  0
 12 13  1  0
 12 57  1  6
 13 14  1  0
 14 15  1  0
 14 24  1  0
 14 58  1  6
 15 16  1  0
 15 59  1  1
 16 20  1  0
 16 17  1  0
 16 60  1  1
 17 18  1  0
 17 23  1  0
 17 61  1  1
 18 19  1  0
 18 62  1  0
 18 63  1  0
 19 20  1  0
 19 64  1  6
 20 21  1  0
 20 22  1  0
 21 65  1  0
 21 66  1  0
 21 67  1  0
 22 68  1  0
 22 69  1  0
 22 70  1  0
 24 32  1  0
 24 40  1  1
 24 25  1  0
 25 26  1  0
 25 71  1  0
 25 72  1  0
 27 26  1  6
 26 73  1  0
 26 74  1  0
 27 38  1  0
 27 28  1  0
 28 29  1  0
 28 30  1  0
 28 75  1  6
 29 76  1  0
 29 77  1  0
 29 78  1  0
 30 31  1  0
 30 79  1  0
 30 80  1  0
 31 32  1  0
 31 81  1  0
 31 82  1  0
 32 33  1  0
 32 83  1  6
 33 34  1  0
 33 35  1  0
 33 84  1  6
 34 85  1  0
 34 86  1  0
 34 87  1  0
 35 36  1  0
 35 88  1  0
 35 89  1  0
 36 37  1  0
 36 90  1  0
 36 91  1  0
 37 38  1  0
 37 92  1  6
 38 39  1  0
 38 93  1  1
 39 40  1  0
 40 41  2  0
M  END
>  <i_m_ct_stereo_status>  (211) 
1

>  <s_m_source_file>  (211) 
/var/tmp/pbs.5076255.sched01/tmpxnahmhzs/434e81vi2s.sdf

>  <i_m_source_file_index>  (211) 
43

>  <i_lp_mmshare_version>  (211) 
48012

>  <i_f3d_flags>  (211) 
0

>  <s_epik_input>  (211) 
W0NIM11bQ0BIXTFbQ0gyXVtDSDJdW0NAQEhdKFtDQEhdMk9DMz1PKVtDQEhdKFtDSDNdKVtDSDJdW0NASF0oW0NAQEhdKE80KVtDSDJdW0NIMl01KVtDQEBdMihbQ0gyXVtDSDJdNilbQ0BASF0oW0NIM10pW0NIMl1bQ0gyXVtDQEBIXTFbQ0BdMzZbQ0BASF0oTzcpW0NIXThbQ0BIXShDOShbQ0gzXSlbQ0gzXSlbQ0BASF00W0NIMl1bQ0BIXTlbQ0BIXTdbQ0BIXThbQ0BdMTVbQ0gyXU8x

>  <s_epik_cmdline>  (211) 
J2VwaWtfcHl0aG9uJywgJy1waHQnLCAnMi4wJywgJy1waCcsICc3LjAnLCAnLXRuJywgJzgnLCAnLW1hJywgJzIwMCcsICctaW1hZScsICc8aW5maWxlLm1hZT4nLCAnLW9tYWUnLCAnPG91dGZpbGUubWFlPic=

>  <r_lp_tautomer_probability>  (211) 
1

>  <r_epik_Ionization_Penalty>  (211) 
7.00227e-11

>  <r_epik_Ionization_Penalty_Charging>  (211) 
0

>  <r_epik_Ionization_Penalty_Neutral>  (211) 
7.00227e-11

>  <r_epik_State_Penalty>  (211) 
-0

>  <r_epik_Charging_Adjusted_Penalty>  (211) 
0

>  <i_epik_Tot_Q>  (211) 
0

>  <i_epik_Tot_abs_Q>  (211) 
0

>  <s_epik_Chemistry_Notes>  (211) 
This compound has an ester and may undergo hydrolysis at high or low pH.

>  <s_lp_Force_Field>  (211) 
OPLS3e

>  <r_lp_Energy>  (211) 
881.206

>  <b_lp_Chiralities_Consistent>  (211) 
1

>  <s_lp_Variant>  (211) 
59:0-8

>  <s_i_glide_gridfile>  (211) 
pfpi4k_grid

>  <i_i_glide_lignum>  (211) 
43

>  <i_i_glide_rotatable_bonds>  (211) 
0

>  <r_i_docking_score>  (211) 
-1.80169

>  <r_i_glide_ligand_efficiency>  (211) 
-0.0439438

>  <r_i_glide_ligand_efficiency_sa>  (211) 
-0.151528

>  <r_i_glide_ligand_efficiency_ln>  (211) 
-0.382235

>  <r_i_glide_gscore>  (211) 
-1.80169

>  <r_i_glide_lipo>  (211) 
-0.11316

>  <r_i_glide_hbond>  (211) 
0

>  <r_i_glide_metal>  (211) 
-0

>  <r_i_glide_rewards>  (211) 
-0.00455369

>  <r_i_glide_evdw>  (211) 
-31.7324

>  <r_i_glide_ecoul>  (211) 
-0.649067

>  <r_i_glide_erotb>  (211) 
0

>  <r_i_glide_esite>  (211) 
0

>  <r_i_glide_emodel>  (211) 
-36.1751

>  <r_i_glide_energy>  (211) 
-32.3815

>  <r_i_glide_einternal>  (211) 
0

>  <r_i_glide_intrahb_reward>  (211) 
-0

>  <i_i_glide_confnum>  (211) 
1

>  <i_i_glide_posenum>  (211) 
1

>  <r_i_glide_eff_state_penalty>  (211) 
0

>  <ligand_id>  (211) 
59

>  <original_smiles>  (211) 
CC1CC2C3CCC4(CO4)C4C5OC(C4C4C(CC5C4(C)C)O3)C34CCC25C(C)CCC3C(C)CCC1C5OC4=O

>  <smiles>  (211) 
[H]C([H])([H])C1([H])C([H])([H])C2([H])C3([H])OC4([H])C([H])([H])C5([H])C6([H])OC([H])(C([H])(C6([H])C6(OC6([H])[H])C([H])([H])C3([H])[H])C4([H])C5(C([H])([H])[H])C([H])([H])[H])C34C(=O)OC5([H])C1([H])C([H])([H])C([H])([H])C([H])(C([H])([H])[H])C3([H])C([H])([H])C([H])([H])C([H])(C([H])([H])[H])C52C([H])([H])C4([H])[H]

$$$$
59:7:2
     RDKit          3D

 93102  0  0  1  0  0  0  0  0999 V2000
    7.2065   -7.7473    2.2468 C   0  0  0  0  0  0  0  0  0  0  0  0
    5.8067   -7.1648    1.9881 C   0  0  2  0  0  0  0  0  0  0  0  0
    5.7747   -5.5803    2.4515 C   0  0  0  0  0  0  0  0  0  0  0  0
    4.3779   -4.7842    2.5464 C   0  0  2  0  0  0  0  0  0  0  0  0
    3.9587   -3.5315    3.6058 C   0  0  2  0  0  0  0  0  0  0  0  0
    2.9422   -2.4421    3.2066 C   0  0  0  0  0  0  0  0  0  0  0  0
    2.1239   -1.8274    4.4119 C   0  0  0  0  0  0  0  0  0  0  0  0
    0.9147   -2.5044    5.2151 C   0  0  1  0  0  0  0  0  0  0  0  0
   -0.1600   -1.5412    5.6773 C   0  0  0  0  0  0  0  0  0  0  0  0
   -0.3255   -2.3309    4.5043 O   0  0  0  0  0  0  0  0  0  0  0  0
    0.9086   -3.8569    6.0833 C   0  0  2  0  0  0  0  0  0  0  0  0
    0.8442   -4.0799    7.5948 C   0  0  1  0  0  0  0  0  0  0  0  0
    0.7695   -5.6126    7.6140 O   0  0  0  0  0  0  0  0  0  0  0  0
    1.0274   -6.2104    6.2908 C   0  0  1  0  0  0  0  0  0  0  0  0
    1.9296   -4.9469    6.0415 C   0  0  2  0  0  0  0  0  0  0  0  0
    3.3274   -4.7321    6.8815 C   0  0  1  0  0  0  0  0  0  0  0  0
    3.9005   -3.4010    6.3673 C   0  0  2  0  0  0  0  0  0  0  0  0
    3.0181   -2.4692    7.3332 C   0  0  0  0  0  0  0  0  0  0  0  0
    2.1675   -3.4549    8.2695 C   0  0  2  0  0  0  0  0  0  0  0  0
    3.1915   -4.5710    8.4314 C   0  0  0  0  0  0  0  0  0  0  0  0
    2.7782   -5.8457    9.2303 C   0  0  0  0  0  0  0  0  0  0  0  0
    4.4863   -4.1293    9.2012 C   0  0  0  0  0  0  0  0  0  0  0  0
    4.5020   -3.2206    4.9755 O   0  0  0  0  0  0  0  0  0  0  0  0
    1.5518   -7.5664    5.3852 C   0  0  1  0  0  0  0  0  0  0  0  0
    3.1586   -7.4283    5.4332 C   0  0  0  0  0  0  0  0  0  0  0  0
    3.8809   -6.2927    4.4148 C   0  0  0  0  0  0  0  0  0  0  0  0
    3.3633   -5.9263    2.7647 C   0  0  1  0  0  0  0  0  0  0  0  0
    1.9017   -5.8349    1.7347 C   0  0  1  0  0  0  0  0  0  0  0  0
    2.2245   -5.3374    0.3044 C   0  0  0  0  0  0  0  0  0  0  0  0
    0.7476   -7.1804    1.5032 C   0  0  0  0  0  0  0  0  0  0  0  0
    0.0943   -8.3504    2.6548 C   0  0  0  0  0  0  0  0  0  0  0  0
    0.7708   -8.7531    4.2798 C   0  0  1  0  0  0  0  0  0  0  0  0
    1.7816  -10.0508    4.0365 C   0  0  1  0  0  0  0  0  0  0  0  0
    0.9337  -11.3374    4.1458 C   0  0  0  0  0  0  0  0  0  0  0  0
    2.7409  -10.2009    2.6977 C   0  0  0  0  0  0  0  0  0  0  0  0
    4.2497   -9.6217    2.3839 C   0  0  0  0  0  0  0  0  0  0  0  0
    4.6723   -8.1017    2.6115 C   0  0  2  0  0  0  0  0  0  0  0  0
    3.4653   -7.2851    2.2971 C   0  0  1  0  0  0  0  0  0  0  0  0
    2.4810   -7.6842    3.2018 O   0  0  0  0  0  0  0  0  0  0  0  0
    1.4652   -6.9412    4.1469 C   0  0  0  0  0  0  0  0  0  0  0  0
    0.5690   -6.0903    3.9018 O   0  0  0  0  0  0  0  0  0  0  0  0
    7.4366   -7.7300    3.3124 H   0  0  0  0  0  0  0  0  0  0  0  0
    7.9828   -7.1732    1.7383 H   0  0  0  0  0  0  0  0  0  0  0  0
    7.2855   -8.7807    1.9066 H   0  0  0  0  0  0  0  0  0  0  0  0
    5.6608   -7.1830    0.9062 H   0  0  0  0  0  0  0  0  0  0  0  0
    6.3229   -5.4571    3.3871 H   0  0  0  0  0  0  0  0  0  0  0  0
    6.3908   -5.0380    1.7406 H   0  0  0  0  0  0  0  0  0  0  0  0
    4.2536   -4.3678    1.5529 H   0  0  0  0  0  0  0  0  0  0  0  0
    3.0691   -3.9853    3.8400 H   0  0  0  0  0  0  0  0  0  0  0  0
    3.5114   -1.6343    2.7430 H   0  0  0  0  0  0  0  0  0  0  0  0
    2.2637   -2.7969    2.4248 H   0  0  0  0  0  0  0  0  0  0  0  0
    2.8298   -1.3122    5.0531 H   0  0  0  0  0  0  0  0  0  0  0  0
    1.6490   -0.9732    3.9327 H   0  0  0  0  0  0  0  0  0  0  0  0
   -0.7978   -1.8316    6.5111 H   0  0  0  0  0  0  0  0  0  0  0  0
   -0.0516   -0.4767    5.4980 H   0  0  0  0  0  0  0  0  0  0  0  0
   -0.0527   -4.2271    5.7245 H   0  0  0  0  0  0  0  0  0  0  0  0
   -0.0545   -3.6397    8.0183 H   0  0  0  0  0  0  0  0  0  0  0  0
   -0.0426   -6.1904    6.0633 H   0  0  0  0  0  0  0  0  0  0  0  0
    2.0857   -4.8491    5.0414 H   0  0  0  0  0  0  0  0  0  0  0  0
    4.1003   -5.4862    6.8329 H   0  0  0  0  0  0  0  0  0  0  0  0
    4.8807   -3.3332    6.8326 H   0  0  0  0  0  0  0  0  0  0  0  0
    3.6824   -1.8498    7.9352 H   0  0  0  0  0  0  0  0  0  0  0  0
    2.3650   -1.7071    6.9448 H   0  0  0  0  0  0  0  0  0  0  0  0
    1.9257   -2.9965    9.2285 H   0  0  0  0  0  0  0  0  0  0  0  0
    1.8803   -5.6756    9.8263 H   0  0  0  0  0  0  0  0  0  0  0  0
    3.5404   -6.1831    9.9327 H   0  0  0  0  0  0  0  0  0  0  0  0
    2.6107   -6.7056    8.5838 H   0  0  0  0  0  0  0  0  0  0  0  0
    4.2849   -4.0412   10.2705 H   0  0  0  0  0  0  0  0  0  0  0  0
    4.9345   -3.1786    8.9312 H   0  0  0  0  0  0  0  0  0  0  0  0
    5.2720   -4.8766    9.0825 H   0  0  0  0  0  0  0  0  0  0  0  0
    3.4587   -7.3341    6.4700 H   0  0  0  0  0  0  0  0  0  0  0  0
    3.5935   -8.4049    5.2356 H   0  0  0  0  0  0  0  0  0  0  0  0
    4.1521   -5.4198    4.8929 H   0  0  0  0  0  0  0  0  0  0  0  0
    4.9233   -6.5534    4.5129 H   0  0  0  0  0  0  0  0  0  0  0  0
    1.3467   -4.9723    2.1027 H   0  0  0  0  0  0  0  0  0  0  0  0
    2.9961   -5.9299   -0.1857 H   0  0  0  0  0  0  0  0  0  0  0  0
    2.5433   -4.2957    0.2971 H   0  0  0  0  0  0  0  0  0  0  0  0
    1.3399   -5.3788   -0.3346 H   0  0  0  0  0  0  0  0  0  0  0  0
   -0.1279   -6.7378    1.0252 H   0  0  0  0  0  0  0  0  0  0  0  0
    1.1631   -7.8044    0.7117 H   0  0  0  0  0  0  0  0  0  0  0  0
   -0.9259   -8.0150    2.8527 H   0  0  0  0  0  0  0  0  0  0  0  0
   -0.0521   -9.2858    2.1106 H   0  0  0  0  0  0  0  0  0  0  0  0
   -0.0848   -9.1239    4.8510 H   0  0  0  0  0  0  0  0  0  0  0  0
    2.4311  -10.1324    4.9075 H   0  0  0  0  0  0  0  0  0  0  0  0
    0.2257  -11.4328    3.3219 H   0  0  0  0  0  0  0  0  0  0  0  0
    0.3602  -11.3636    5.0737 H   0  0  0  0  0  0  0  0  0  0  0  0
    1.5555  -12.2333    4.1520 H   0  0  0  0  0  0  0  0  0  0  0  0
    2.8793  -11.2743    2.5638 H   0  0  0  0  0  0  0  0  0  0  0  0
    2.1295   -9.9383    1.8352 H   0  0  0  0  0  0  0  0  0  0  0  0
    4.9555  -10.2461    2.9350 H   0  0  0  0  0  0  0  0  0  0  0  0
    4.4514   -9.8474    1.3364 H   0  0  0  0  0  0  0  0  0  0  0  0
    4.9810   -8.2552    3.6331 H   0  0  0  0  0  0  0  0  0  0  0  0
    3.2337   -7.4889    1.2502 H   0  0  0  0  0  0  0  0  0  0  0  0
  1  2  1  0
  1 42  1  0
  1 43  1  0
  1 44  1  0
  2 37  1  0
  2  3  1  0
  2 45  1  6
  3  4  1  0
  3 46  1  0
  3 47  1  0
  4 27  1  0
  4  5  1  0
  4 48  1  6
  5 23  1  0
  5  6  1  0
  5 49  1  1
  6  7  1  0
  6 50  1  0
  6 51  1  0
  7  8  1  0
  7 52  1  0
  7 53  1  0
  8 10  1  6
  8  9  1  0
  8 11  1  0
  9 10  1  0
  9 54  1  0
  9 55  1  0
 11 15  1  0
 11 12  1  0
 11 56  1  6
 12 19  1  0
 12 13  1  0
 12 57  1  1
 13 14  1  0
 14 15  1  0
 14 24  1  0
 14 58  1  6
 15 16  1  0
 15 59  1  6
 16 20  1  0
 16 17  1  0
 16 60  1  1
 17 18  1  0
 17 23  1  0
 17 61  1  1
 18 19  1  0
 18 62  1  0
 18 63  1  0
 19 20  1  0
 19 64  1  1
 20 21  1  0
 20 22  1  0
 21 65  1  0
 21 66  1  0
 21 67  1  0
 22 68  1  0
 22 69  1  0
 22 70  1  0
 24 32  1  0
 24 40  1  6
 24 25  1  0
 25 26  1  0
 25 71  1  0
 25 72  1  0
 27 26  1  1
 26 73  1  0
 26 74  1  0
 27 38  1  0
 27 28  1  0
 28 29  1  0
 28 30  1  0
 28 75  1  1
 29 76  1  0
 29 77  1  0
 29 78  1  0
 30 31  1  0
 30 79  1  0
 30 80  1  0
 31 32  1  0
 31 81  1  0
 31 82  1  0
 32 33  1  0
 32 83  1  1
 33 34  1  0
 33 35  1  0
 33 84  1  1
 34 85  1  0
 34 86  1  0
 34 87  1  0
 35 36  1  0
 35 88  1  0
 35 89  1  0
 36 37  1  0
 36 90  1  0
 36 91  1  0
 37 38  1  0
 37 92  1  1
 38 39  1  0
 38 93  1  6
 39 40  1  0
 40 41  2  0
M  END
>  <i_m_ct_stereo_status>  (212) 
1

>  <s_m_source_file>  (212) 
/var/tmp/pbs.5076255.sched01/tmpxnahmhzs/434e81vi2s.sdf

>  <i_m_source_file_index>  (212) 
43

>  <i_lp_mmshare_version>  (212) 
48012

>  <i_f3d_flags>  (212) 
0

>  <s_epik_input>  (212) 
W0NIM11bQ0BIXTFbQ0gyXVtDSDJdW0NAQEhdKFtDQEhdMk9DMz1PKVtDQEhdKFtDSDNdKVtDSDJdW0NASF0oW0NAQEhdKE80KVtDSDJdW0NIMl01KVtDQEBdMihbQ0gyXVtDSDJdNilbQ0BASF0oW0NIM10pW0NIMl1bQ0gyXVtDQEBIXTFbQ0BdMzZbQ0BASF0oTzcpW0NIXThbQ0BIXShDOShbQ0gzXSlbQ0gzXSlbQ0BASF00W0NIMl1bQ0BIXTlbQ0BIXTdbQ0BIXThbQ0BdMTVbQ0gyXU8x

>  <s_epik_cmdline>  (212) 
J2VwaWtfcHl0aG9uJywgJy1waHQnLCAnMi4wJywgJy1waCcsICc3LjAnLCAnLXRuJywgJzgnLCAnLW1hJywgJzIwMCcsICctaW1hZScsICc8aW5maWxlLm1hZT4nLCAnLW9tYWUnLCAnPG91dGZpbGUubWFlPic=

>  <r_lp_tautomer_probability>  (212) 
1

>  <r_epik_Ionization_Penalty>  (212) 
7.00227e-11

>  <r_epik_Ionization_Penalty_Charging>  (212) 
0

>  <r_epik_Ionization_Penalty_Neutral>  (212) 
7.00227e-11

>  <r_epik_State_Penalty>  (212) 
-0

>  <r_epik_Charging_Adjusted_Penalty>  (212) 
0

>  <i_epik_Tot_Q>  (212) 
0

>  <i_epik_Tot_abs_Q>  (212) 
0

>  <s_epik_Chemistry_Notes>  (212) 
This compound has an ester and may undergo hydrolysis at high or low pH.

>  <s_lp_Force_Field>  (212) 
OPLS3e

>  <r_lp_Energy>  (212) 
881.206

>  <b_lp_Chiralities_Consistent>  (212) 
1

>  <s_lp_Variant>  (212) 
59:0-8

>  <s_i_glide_gridfile>  (212) 
pfpi4k_grid

>  <i_i_glide_lignum>  (212) 
43

>  <i_i_glide_rotatable_bonds>  (212) 
0

>  <r_i_docking_score>  (212) 
-1.68833

>  <r_i_glide_ligand_efficiency>  (212) 
-0.0411788

>  <r_i_glide_ligand_efficiency_sa>  (212) 
-0.141993

>  <r_i_glide_ligand_efficiency_ln>  (212) 
-0.358185

>  <r_i_glide_gscore>  (212) 
-1.68833

>  <r_i_glide_lipo>  (212) 
-0.228032

>  <r_i_glide_hbond>  (212) 
0

>  <r_i_glide_metal>  (212) 
-0

>  <r_i_glide_rewards>  (212) 
0

>  <r_i_glide_evdw>  (212) 
-31.5349

>  <r_i_glide_ecoul>  (212) 
0.826505

>  <r_i_glide_erotb>  (212) 
0

>  <r_i_glide_esite>  (212) 
-0.00752616

>  <r_i_glide_emodel>  (212) 
-34.2664

>  <r_i_glide_energy>  (212) 
-30.7084

>  <r_i_glide_einternal>  (212) 
0

>  <r_i_glide_intrahb_reward>  (212) 
-0

>  <i_i_glide_confnum>  (212) 
1

>  <i_i_glide_posenum>  (212) 
16

>  <r_i_glide_eff_state_penalty>  (212) 
0

>  <ligand_id>  (212) 
59

>  <original_smiles>  (212) 
CC1CC2C3CCC4(CO4)C4C5OC(C4C4C(CC5C4(C)C)O3)C34CCC25C(C)CCC3C(C)CCC1C5OC4=O

>  <smiles>  (212) 
[H]C([H])([H])C1([H])C([H])([H])C2([H])C3([H])OC4([H])C([H])([H])C5([H])C6([H])OC([H])(C([H])(C6([H])C6(OC6([H])[H])C([H])([H])C3([H])[H])C4([H])C5(C([H])([H])[H])C([H])([H])[H])C34C(=O)OC5([H])C1([H])C([H])([H])C([H])([H])C([H])(C([H])([H])[H])C3([H])C([H])([H])C([H])([H])C([H])(C([H])([H])[H])C52C([H])([H])C4([H])[H]

$$$$
60:0:0
     RDKit          3D

 28 31  0  0  1  0  0  0  0  0999 V2000
    3.7063   -0.6436   -3.4022 C   0  0  0  0  0  0  0  0  0  0  0  0
    3.0411   -1.7755   -3.9041 C   0  0  0  0  0  0  0  0  0  0  0  0
    3.2856   -3.0353   -3.3321 C   0  0  0  0  0  0  0  0  0  0  0  0
    4.1944   -3.1452   -2.2638 C   0  0  0  0  0  0  0  0  0  0  0  0
    4.6167   -4.2218   -1.5135 N   0  0  0  0  0  0  0  0  0  0  0  0
    5.5298   -3.8263   -0.5584 C   0  0  0  0  0  0  0  0  0  0  0  0
    6.0998   -4.7985    0.3555 C   0  0  0  0  0  0  0  0  0  0  0  0
    5.6468   -6.0517    0.6816 C   0  0  0  0  0  0  0  0  0  0  0  0
    6.5559   -6.5822    1.5815 N   0  0  0  0  0  0  0  0  0  0  0  0
    6.6150   -7.7794    2.2398 C   0  0  0  0  0  0  0  0  0  0  0  0
    7.5771   -8.0681    3.0669 N   0  0  0  0  0  0  0  0  0  0  0  0
    8.5624   -7.1328    3.2655 C   0  0  0  0  0  0  0  0  0  0  0  0
    8.5998   -5.9048    2.6574 C   0  0  0  0  0  0  0  0  0  0  0  0
    7.5515   -5.5948    1.7625 C   0  0  0  0  0  0  0  0  0  0  0  0
    7.2842   -4.5204    1.0268 N   0  0  0  0  0  0  0  0  0  0  0  0
    5.7281   -2.4727   -0.6616 C   0  0  0  0  0  0  0  0  0  0  0  0
    4.8850   -2.0182   -1.7336 C   0  0  0  0  0  0  0  0  0  0  0  0
    4.6112   -0.7675   -2.3286 C   0  0  0  0  0  0  0  0  0  0  0  0
    4.3039   -5.1790   -1.6507 H   0  0  0  0  0  0  0  0  0  0  0  0
    3.5034    0.3318   -3.8232 H   0  0  0  0  0  0  0  0  0  0  0  0
    2.3310   -1.6650   -4.7075 H   0  0  0  0  0  0  0  0  0  0  0  0
    2.7655   -3.9094   -3.6928 H   0  0  0  0  0  0  0  0  0  0  0  0
    4.7799   -6.6179    0.3648 H   0  0  0  0  0  0  0  0  0  0  0  0
    5.8069   -8.4786    2.0424 H   0  0  0  0  0  0  0  0  0  0  0  0
    9.3407   -7.4296    3.9589 H   0  0  0  0  0  0  0  0  0  0  0  0
    9.3943   -5.1933    2.8493 H   0  0  0  0  0  0  0  0  0  0  0  0
    6.3771   -1.8628   -0.0484 H   0  0  0  0  0  0  0  0  0  0  0  0
    5.0903    0.1180   -1.9473 H   0  0  0  0  0  0  0  0  0  0  0  0
  1 18  2  0
  1  2  1  0
  1 20  1  0
  2  3  2  0
  2 21  1  0
  3  4  1  0
  3 22  1  0
  4 17  2  0
  4  5  1  0
  5 19  1  0
  5  6  1  0
  6  7  1  0
  6 16  2  0
  7 15  1  0
  7  8  2  0
  8  9  1  0
  8 23  1  0
  9 14  1  0
  9 10  1  0
 10 11  2  0
 10 24  1  0
 11 12  1  0
 12 13  2  0
 12 25  1  0
 13 14  1  0
 13 26  1  0
 14 15  2  0
 16 17  1  0
 16 27  1  0
 17 18  1  0
 18 28  1  0
M  END
>  <i_m_ct_stereo_status>  (213) 
1

>  <s_m_source_file>  (213) 
/var/tmp/pbs.5076255.sched01/tmp7zsp0c9b/86_oh4d05k.sdf

>  <i_m_source_file_index>  (213) 
1

>  <i_lp_mmshare_version>  (213) 
48012

>  <i_f3d_flags>  (213) 
0

>  <s_epik_input>  (213) 
W2NIXTFbY0hdW2NIXVtjSF1jKGMxMilbY0hdYyhbbkhdMiktYyhbY0hdMyluYyhuMzQpW2NIXVtjSF1uW2NIXTQ=

>  <s_epik_cmdline>  (213) 
J2VwaWtfcHl0aG9uJywgJy1waHQnLCAnMi4wJywgJy1waCcsICc3LjAnLCAnLXRuJywgJzgnLCAnLW1hJywgJzIwMCcsICctaW1hZScsICc8aW5maWxlLm1hZT4nLCAnLW9tYWUnLCAnPG91dGZpbGUubWFlPic=

>  <r_epik_Ionization_Penalty>  (213) 
0.00183976

>  <r_epik_Ionization_Penalty_Charging>  (213) 
0.00183975

>  <r_epik_Ionization_Penalty_Neutral>  (213) 
9.91452e-09

>  <r_epik_State_Penalty>  (213) 
0.00124965

>  <r_epik_Charging_Adjusted_Penalty>  (213) 
0.0030894

>  <i_epik_Tot_Q>  (213) 
0

>  <i_epik_Tot_abs_Q>  (213) 
0

>  <s_lp_Force_Field>  (213) 
OPLS3e

>  <r_lp_Energy>  (213) 
23.585

>  <b_lp_Chiralities_Consistent>  (213) 
1

>  <s_lp_Variant>  (213) 
60:0-1

>  <s_i_glide_gridfile>  (213) 
pfpi4k_grid

>  <i_i_glide_lignum>  (213) 
1

>  <i_i_glide_rotatable_bonds>  (213) 
1

>  <r_i_docking_score>  (213) 
-4.8274

>  <r_i_glide_ligand_efficiency>  (213) 
-0.268189

>  <r_i_glide_ligand_efficiency_sa>  (213) 
-0.702854

>  <r_i_glide_ligand_efficiency_ln>  (213) 
-1.24086

>  <r_i_glide_gscore>  (213) 
-4.8274

>  <r_i_glide_lipo>  (213) 
-0.701138

>  <r_i_glide_hbond>  (213) 
-0.251996

>  <r_i_glide_metal>  (213) 
-0

>  <r_i_glide_rewards>  (213) 
-2.07183

>  <r_i_glide_evdw>  (213) 
-22.2614

>  <r_i_glide_ecoul>  (213) 
-6.40723

>  <r_i_glide_erotb>  (213) 
0.312893

>  <r_i_glide_esite>  (213) 
-0.0411728

>  <r_i_glide_emodel>  (213) 
-38.1712

>  <r_i_glide_energy>  (213) 
-28.6687

>  <r_i_glide_einternal>  (213) 
0.852507

>  <r_i_glide_intrahb_reward>  (213) 
-0

>  <i_i_glide_confnum>  (213) 
2

>  <i_i_glide_posenum>  (213) 
6

>  <r_i_glide_eff_state_penalty>  (213) 
0

>  <ligand_id>  (213) 
60

>  <original_smiles>  (213) 
c1ccc2[nH]c(-c3cn4cnccc4n3)cc2c1

>  <smiles>  (213) 
[H]c1nc([H])n2c([H])c(-c3c([H])c4c([H])c([H])c([H])c([H])c4n3[H])nc2c1[H]

$$$$
60:0:1
     RDKit          3D

 28 31  0  0  1  0  0  0  0  0999 V2000
    3.7869   -0.6102   -3.3390 C   0  0  0  0  0  0  0  0  0  0  0  0
    3.1542   -1.7308   -3.9034 C   0  0  0  0  0  0  0  0  0  0  0  0
    3.3818   -3.0106   -3.3619 C   0  0  0  0  0  0  0  0  0  0  0  0
    4.2293   -3.1542   -2.2455 C   0  0  0  0  0  0  0  0  0  0  0  0
    4.6174   -4.2459   -1.4998 N   0  0  0  0  0  0  0  0  0  0  0  0
    5.4884   -3.8623   -0.4894 C   0  0  0  0  0  0  0  0  0  0  0  0
    6.0664   -4.8216    0.4349 C   0  0  0  0  0  0  0  0  0  0  0  0
    7.1532   -4.6557    1.2501 C   0  0  0  0  0  0  0  0  0  0  0  0
    7.3291   -5.8477    1.9282 N   0  0  0  0  0  0  0  0  0  0  0  0
    8.2380   -6.2482    2.8659 C   0  0  0  0  0  0  0  0  0  0  0  0
    8.2078   -7.4328    3.4022 N   0  0  0  0  0  0  0  0  0  0  0  0
    7.2384   -8.3047    2.9789 C   0  0  0  0  0  0  0  0  0  0  0  0
    6.2834   -8.0139    2.0381 C   0  0  0  0  0  0  0  0  0  0  0  0
    6.3104   -6.7159    1.4734 C   0  0  0  0  0  0  0  0  0  0  0  0
    5.5530   -6.1050    0.5650 N   0  0  0  0  0  0  0  0  0  0  0  0
    5.6761   -2.5069   -0.5503 C   0  0  0  0  0  0  0  0  0  0  0  0
    4.8793   -2.0372   -1.6500 C   0  0  0  0  0  0  0  0  0  0  0  0
    4.6262   -0.7727   -2.2208 C   0  0  0  0  0  0  0  0  0  0  0  0
    4.3197   -5.2051   -1.6685 H   0  0  0  0  0  0  0  0  0  0  0  0
    3.6061    0.3804   -3.7345 H   0  0  0  0  0  0  0  0  0  0  0  0
    2.4708   -1.5921   -4.7209 H   0  0  0  0  0  0  0  0  0  0  0  0
    2.8816   -3.8721   -3.7783 H   0  0  0  0  0  0  0  0  0  0  0  0
    7.8155   -3.8148    1.4114 H   0  0  0  0  0  0  0  0  0  0  0  0
    8.9837   -5.5148    3.1586 H   0  0  0  0  0  0  0  0  0  0  0  0
    7.2696   -9.2782    3.4499 H   0  0  0  0  0  0  0  0  0  0  0  0
    5.5304   -8.7326    1.7354 H   0  0  0  0  0  0  0  0  0  0  0  0
    6.2869   -1.9084    0.1086 H   0  0  0  0  0  0  0  0  0  0  0  0
    5.0834    0.0982   -1.7891 H   0  0  0  0  0  0  0  0  0  0  0  0
  1 18  2  0
  1  2  1  0
  1 20  1  0
  2  3  2  0
  2 21  1  0
  3  4  1  0
  3 22  1  0
  4 17  2  0
  4  5  1  0
  5 19  1  0
  5  6  1  0
  6  7  1  0
  6 16  2  0
  7 15  1  0
  7  8  2  0
  8  9  1  0
  8 23  1  0
  9 14  1  0
  9 10  1  0
 10 11  2  0
 10 24  1  0
 11 12  1  0
 12 13  2  0
 12 25  1  0
 13 14  1  0
 13 26  1  0
 14 15  2  0
 16 17  1  0
 16 27  1  0
 17 18  1  0
 18 28  1  0
M  END
>  <i_m_ct_stereo_status>  (214) 
1

>  <s_m_source_file>  (214) 
/var/tmp/pbs.5076255.sched01/tmp7zsp0c9b/86_oh4d05k.sdf

>  <i_m_source_file_index>  (214) 
1

>  <i_lp_mmshare_version>  (214) 
48012

>  <i_f3d_flags>  (214) 
0

>  <s_epik_input>  (214) 
W2NIXTFbY0hdW2NIXVtjSF1jKGMxMilbY0hdYyhbbkhdMiktYyhbY0hdMyluYyhuMzQpW2NIXVtjSF1uW2NIXTQ=

>  <s_epik_cmdline>  (214) 
J2VwaWtfcHl0aG9uJywgJy1waHQnLCAnMi4wJywgJy1waCcsICc3LjAnLCAnLXRuJywgJzgnLCAnLW1hJywgJzIwMCcsICctaW1hZScsICc8aW5maWxlLm1hZT4nLCAnLW9tYWUnLCAnPG91dGZpbGUubWFlPic=

>  <r_epik_Ionization_Penalty>  (214) 
0.00183976

>  <r_epik_Ionization_Penalty_Charging>  (214) 
0.00183975

>  <r_epik_Ionization_Penalty_Neutral>  (214) 
9.91452e-09

>  <r_epik_State_Penalty>  (214) 
0.00124965

>  <r_epik_Charging_Adjusted_Penalty>  (214) 
0.0030894

>  <i_epik_Tot_Q>  (214) 
0

>  <i_epik_Tot_abs_Q>  (214) 
0

>  <s_lp_Force_Field>  (214) 
OPLS3e

>  <r_lp_Energy>  (214) 
23.585

>  <b_lp_Chiralities_Consistent>  (214) 
1

>  <s_lp_Variant>  (214) 
60:0-1

>  <s_i_glide_gridfile>  (214) 
pfpi4k_grid

>  <i_i_glide_lignum>  (214) 
1

>  <i_i_glide_rotatable_bonds>  (214) 
1

>  <r_i_docking_score>  (214) 
-4.72361

>  <r_i_glide_ligand_efficiency>  (214) 
-0.262423

>  <r_i_glide_ligand_efficiency_sa>  (214) 
-0.687743

>  <r_i_glide_ligand_efficiency_ln>  (214) 
-1.21418

>  <r_i_glide_gscore>  (214) 
-4.72361

>  <r_i_glide_lipo>  (214) 
-0.837099

>  <r_i_glide_hbond>  (214) 
-0.2505

>  <r_i_glide_metal>  (214) 
-0

>  <r_i_glide_rewards>  (214) 
-1.999

>  <r_i_glide_evdw>  (214) 
-22.656

>  <r_i_glide_ecoul>  (214) 
-5.08637

>  <r_i_glide_erotb>  (214) 
0.312893

>  <r_i_glide_esite>  (214) 
-0.0541546

>  <r_i_glide_emodel>  (214) 
-37.192

>  <r_i_glide_energy>  (214) 
-27.7423

>  <r_i_glide_einternal>  (214) 
0.529996

>  <r_i_glide_intrahb_reward>  (214) 
-0

>  <i_i_glide_confnum>  (214) 
3

>  <i_i_glide_posenum>  (214) 
10

>  <r_i_glide_eff_state_penalty>  (214) 
0

>  <ligand_id>  (214) 
60

>  <original_smiles>  (214) 
c1ccc2[nH]c(-c3cn4cnccc4n3)cc2c1

>  <smiles>  (214) 
[H]c1nc([H])n2c([H])c(-c3c([H])c4c([H])c([H])c([H])c([H])c4n3[H])nc2c1[H]

$$$$
60:0:2
     RDKit          3D

 28 31  0  0  1  0  0  0  0  0999 V2000
    7.0923   -2.5526   -0.7693 C   0  0  0  0  0  0  0  0  0  0  0  0
    6.0425   -2.8179   -1.6705 C   0  0  0  0  0  0  0  0  0  0  0  0
    4.7579   -2.3014   -1.4081 C   0  0  0  0  0  0  0  0  0  0  0  0
    4.5374   -1.5324   -0.2520 C   0  0  0  0  0  0  0  0  0  0  0  0
    3.4107   -0.9186    0.2511 N   0  0  0  0  0  0  0  0  0  0  0  0
    3.6973   -0.2714    1.4404 C   0  0  0  0  0  0  0  0  0  0  0  0
    2.6551    0.4559    2.1482 C   0  0  0  0  0  0  0  0  0  0  0  0
    1.3820    0.7681    1.7474 C   0  0  0  0  0  0  0  0  0  0  0  0
    0.7949    1.4729    2.7814 N   0  0  0  0  0  0  0  0  0  0  0  0
   -0.4444    2.0309    2.9337 C   0  0  0  0  0  0  0  0  0  0  0  0
   -0.8022    2.6401    4.0273 N   0  0  0  0  0  0  0  0  0  0  0  0
    0.1188    2.7357    5.0407 C   0  0  0  0  0  0  0  0  0  0  0  0
    1.3866    2.2195    4.9922 C   0  0  0  0  0  0  0  0  0  0  0  0
    1.7652    1.5507    3.8041 C   0  0  0  0  0  0  0  0  0  0  0  0
    2.8846    0.9396    3.4296 N   0  0  0  0  0  0  0  0  0  0  0  0
    5.0229   -0.4538    1.7405 C   0  0  0  0  0  0  0  0  0  0  0  0
    5.5773   -1.2483    0.6790 C   0  0  0  0  0  0  0  0  0  0  0  0
    6.8588   -1.7741    0.3864 C   0  0  0  0  0  0  0  0  0  0  0  0
    2.4749   -0.9293   -0.1570 H   0  0  0  0  0  0  0  0  0  0  0  0
    8.0799   -2.9508   -0.9615 H   0  0  0  0  0  0  0  0  0  0  0  0
    6.2146   -3.4181   -2.5527 H   0  0  0  0  0  0  0  0  0  0  0  0
    3.9365   -2.5008   -2.0800 H   0  0  0  0  0  0  0  0  0  0  0  0
    0.8319    0.5678    0.8358 H   0  0  0  0  0  0  0  0  0  0  0  0
   -1.1230    1.9267    2.0912 H   0  0  0  0  0  0  0  0  0  0  0  0
   -0.2252    3.2631    5.9211 H   0  0  0  0  0  0  0  0  0  0  0  0
    2.0879    2.3110    5.8119 H   0  0  0  0  0  0  0  0  0  0  0  0
    5.5563   -0.0708    2.6005 H   0  0  0  0  0  0  0  0  0  0  0  0
    7.6687   -1.5712    1.0689 H   0  0  0  0  0  0  0  0  0  0  0  0
  1 18  2  0
  1  2  1  0
  1 20  1  0
  2  3  2  0
  2 21  1  0
  3  4  1  0
  3 22  1  0
  4 17  2  0
  4  5  1  0
  5 19  1  0
  5  6  1  0
  6  7  1  0
  6 16  2  0
  7 15  1  0
  7  8  2  0
  8  9  1  0
  8 23  1  0
  9 14  1  0
  9 10  1  0
 10 11  2  0
 10 24  1  0
 11 12  1  0
 12 13  2  0
 12 25  1  0
 13 14  1  0
 13 26  1  0
 14 15  2  0
 16 17  1  0
 16 27  1  0
 17 18  1  0
 18 28  1  0
M  END
>  <i_m_ct_stereo_status>  (215) 
1

>  <s_m_source_file>  (215) 
/var/tmp/pbs.5076255.sched01/tmp7zsp0c9b/86_oh4d05k.sdf

>  <i_m_source_file_index>  (215) 
1

>  <i_lp_mmshare_version>  (215) 
48012

>  <i_f3d_flags>  (215) 
0

>  <s_epik_input>  (215) 
W2NIXTFbY0hdW2NIXVtjSF1jKGMxMilbY0hdYyhbbkhdMiktYyhbY0hdMyluYyhuMzQpW2NIXVtjSF1uW2NIXTQ=

>  <s_epik_cmdline>  (215) 
J2VwaWtfcHl0aG9uJywgJy1waHQnLCAnMi4wJywgJy1waCcsICc3LjAnLCAnLXRuJywgJzgnLCAnLW1hJywgJzIwMCcsICctaW1hZScsICc8aW5maWxlLm1hZT4nLCAnLW9tYWUnLCAnPG91dGZpbGUubWFlPic=

>  <r_epik_Ionization_Penalty>  (215) 
0.00183976

>  <r_epik_Ionization_Penalty_Charging>  (215) 
0.00183975

>  <r_epik_Ionization_Penalty_Neutral>  (215) 
9.91452e-09

>  <r_epik_State_Penalty>  (215) 
0.00124965

>  <r_epik_Charging_Adjusted_Penalty>  (215) 
0.0030894

>  <i_epik_Tot_Q>  (215) 
0

>  <i_epik_Tot_abs_Q>  (215) 
0

>  <s_lp_Force_Field>  (215) 
OPLS3e

>  <r_lp_Energy>  (215) 
23.585

>  <b_lp_Chiralities_Consistent>  (215) 
1

>  <s_lp_Variant>  (215) 
60:0-1

>  <s_i_glide_gridfile>  (215) 
pfpi4k_grid

>  <i_i_glide_lignum>  (215) 
1

>  <i_i_glide_rotatable_bonds>  (215) 
1

>  <r_i_docking_score>  (215) 
-4.07347

>  <r_i_glide_ligand_efficiency>  (215) 
-0.226304

>  <r_i_glide_ligand_efficiency_sa>  (215) 
-0.593085

>  <r_i_glide_ligand_efficiency_ln>  (215) 
-1.04707

>  <r_i_glide_gscore>  (215) 
-4.07347

>  <r_i_glide_lipo>  (215) 
-0.294441

>  <r_i_glide_hbond>  (215) 
-0.16

>  <r_i_glide_metal>  (215) 
-0

>  <r_i_glide_rewards>  (215) 
-1.81189

>  <r_i_glide_evdw>  (215) 
-22.4144

>  <r_i_glide_ecoul>  (215) 
-5.44606

>  <r_i_glide_erotb>  (215) 
0.312893

>  <r_i_glide_esite>  (215) 
-0.182405

>  <r_i_glide_emodel>  (215) 
-36.0298

>  <r_i_glide_energy>  (215) 
-27.8605

>  <r_i_glide_einternal>  (215) 
0.445732

>  <r_i_glide_intrahb_reward>  (215) 
-0

>  <i_i_glide_confnum>  (215) 
4

>  <i_i_glide_posenum>  (215) 
34

>  <r_i_glide_eff_state_penalty>  (215) 
0

>  <ligand_id>  (215) 
60

>  <original_smiles>  (215) 
c1ccc2[nH]c(-c3cn4cnccc4n3)cc2c1

>  <smiles>  (215) 
[H]c1nc([H])n2c([H])c(-c3c([H])c4c([H])c([H])c([H])c([H])c4n3[H])nc2c1[H]

$$$$
61:0:0
     RDKit          3D

 58 62  0  0  1  0  0  0  0  0999 V2000
    2.2703   -9.1341    5.1912 C   0  0  0  0  0  0  0  0  0  0  0  0
    2.2784   -8.8796    3.6684 C   0  0  2  0  0  0  0  0  0  0  0  0
    3.4114   -9.6773    2.9667 C   0  0  1  0  0  0  0  0  0  0  0  0
    2.9579  -10.0878    1.6936 O   0  0  0  0  0  0  0  0  0  0  0  0
    4.5224   -8.6885    2.7509 C   0  0  2  0  0  0  0  0  0  0  0  0
    4.9056   -7.8847    3.8787 O   0  0  0  0  0  0  0  0  0  0  0  0
    3.9976   -7.3018    2.9304 C   0  0  2  0  0  0  0  0  0  0  0  0
    2.5303   -7.3797    3.3230 C   0  0  1  0  0  0  0  0  0  0  0  0
    1.6300   -6.9075    2.1721 C   0  0  1  0  0  0  0  0  0  0  0  0
    0.3686   -6.7841    2.5951 F   0  0  0  0  0  0  0  0  0  0  0  0
    2.0690   -5.5569    1.6080 C   0  0  0  0  0  0  0  0  0  0  0  0
    3.5437   -5.5214    1.1165 C   0  0  1  0  0  0  0  0  0  0  0  0
    3.9386   -4.1406    0.4349 C   0  0  2  0  0  0  0  0  0  0  0  0
    2.7953   -3.7665   -0.5571 C   0  0  0  0  0  0  0  0  0  0  0  0
    5.1400   -4.3403   -0.4895 C   0  0  0  0  0  0  0  0  0  0  0  0
    6.1903   -3.5049   -0.6238 C   0  0  0  0  0  0  0  0  0  0  0  0
    6.2636   -2.2377    0.1111 C   0  0  0  0  0  0  0  0  0  0  0  0
    7.2830   -1.5501    0.0979 O   0  0  0  0  0  0  0  0  0  0  0  0
    4.9941   -1.7384    0.8409 C   0  0  0  0  0  0  0  0  0  0  0  0
    5.4049   -0.6610    1.8825 C   0  0  0  0  0  0  0  0  0  0  0  0
    4.1375   -0.9859   -0.2096 C   0  0  0  0  0  0  0  0  0  0  0  0
    4.2393   -2.9816    1.4933 C   0  0  1  0  0  0  0  0  0  0  0  0
    3.0593   -2.5741    1.9735 F   0  0  0  0  0  0  0  0  0  0  0  0
    5.0109   -3.5252    2.7585 C   0  0  1  0  0  0  0  0  0  0  0  0
    4.8818   -2.6656    3.8798 O   0  0  0  0  0  0  0  0  0  0  0  0
    4.5636   -4.8898    3.3079 C   0  0  0  0  0  0  0  0  0  0  0  0
    4.5101   -6.0043    2.2518 C   0  0  1  0  0  0  0  0  0  0  0  0
    5.9431   -6.2789    1.7174 C   0  0  0  0  0  0  0  0  0  0  0  0
    3.2159   -8.8384    5.6538 H   0  0  0  0  0  0  0  0  0  0  0  0
    2.1117  -10.1908    5.4132 H   0  0  0  0  0  0  0  0  0  0  0  0
    1.4685   -8.5774    5.6827 H   0  0  0  0  0  0  0  0  0  0  0  0
    1.3029   -9.2094    3.3013 H   0  0  0  0  0  0  0  0  0  0  0  0
    3.7489  -10.5383    3.5450 H   0  0  0  0  0  0  0  0  0  0  0  0
    3.5029  -10.8051    1.3602 H   0  0  0  0  0  0  0  0  0  0  0  0
    5.3098   -8.9206    2.0394 H   0  0  0  0  0  0  0  0  0  0  0  0
    2.3615   -6.7445    4.1936 H   0  0  0  0  0  0  0  0  0  0  0  0
    1.6041   -7.6534    1.3732 H   0  0  0  0  0  0  0  0  0  0  0  0
    1.3990   -5.3634    0.7780 H   0  0  0  0  0  0  0  0  0  0  0  0
    1.8811   -4.7755    2.3429 H   0  0  0  0  0  0  0  0  0  0  0  0
    3.5872   -6.2779    0.3298 H   0  0  0  0  0  0  0  0  0  0  0  0
    1.9449   -3.2938   -0.0684 H   0  0  0  0  0  0  0  0  0  0  0  0
    2.4255   -4.6517   -1.0774 H   0  0  0  0  0  0  0  0  0  0  0  0
    3.1071   -3.1050   -1.3584 H   0  0  0  0  0  0  0  0  0  0  0  0
    5.1236   -5.2455   -1.0797 H   0  0  0  0  0  0  0  0  0  0  0  0
    6.9977   -3.7323   -1.3014 H   0  0  0  0  0  0  0  0  0  0  0  0
    4.5590   -0.3593    2.5047 H   0  0  0  0  0  0  0  0  0  0  0  0
    5.7919    0.2321    1.3957 H   0  0  0  0  0  0  0  0  0  0  0  0
    6.2094   -1.0038    2.5360 H   0  0  0  0  0  0  0  0  0  0  0  0
    3.0735   -1.0054    0.0358 H   0  0  0  0  0  0  0  0  0  0  0  0
    4.2624   -1.3726   -1.2210 H   0  0  0  0  0  0  0  0  0  0  0  0
    4.4144    0.0655   -0.2856 H   0  0  0  0  0  0  0  0  0  0  0  0
    6.0753   -3.5744    2.5358 H   0  0  0  0  0  0  0  0  0  0  0  0
    3.9616   -2.5812    4.0786 H   0  0  0  0  0  0  0  0  0  0  0  0
    5.2409   -5.1910    4.1097 H   0  0  0  0  0  0  0  0  0  0  0  0
    3.5892   -4.7814    3.7851 H   0  0  0  0  0  0  0  0  0  0  0  0
    6.4785   -5.3781    1.4313 H   0  0  0  0  0  0  0  0  0  0  0  0
    5.9213   -6.9313    0.8431 H   0  0  0  0  0  0  0  0  0  0  0  0
    6.5768   -6.7520    2.4697 H   0  0  0  0  0  0  0  0  0  0  0  0
  1  2  1  0
  1 29  1  0
  1 30  1  0
  1 31  1  0
  2  8  1  0
  2  3  1  0
  2 32  1  6
  3  4  1  0
  3  5  1  0
  3 33  1  1
  4 34  1  0
  5  7  1  0
  5  6  1  0
  5 35  1  6
  7  6  1  1
  7 27  1  0
  7  8  1  0
  8  9  1  0
  8 36  1  1
  9 10  1  0
  9 11  1  0
  9 37  1  6
 11 12  1  0
 11 38  1  0
 11 39  1  0
 12 27  1  0
 12 13  1  0
 12 40  1  6
 13 22  1  0
 13 14  1  6
 13 15  1  0
 14 41  1  0
 14 42  1  0
 14 43  1  0
 15 16  2  0
 15 44  1  0
 16 17  1  0
 16 45  1  0
 17 18  2  0
 17 19  1  0
 19 20  1  0
 19 21  1  0
 19 22  1  0
 20 46  1  0
 20 47  1  0
 20 48  1  0
 21 49  1  0
 21 50  1  0
 21 51  1  0
 22 23  1  1
 22 24  1  0
 24 25  1  0
 24 26  1  0
 24 52  1  6
 25 53  1  0
 26 27  1  0
 26 54  1  0
 26 55  1  0
 27 28  1  6
 28 56  1  0
 28 57  1  0
 28 58  1  0
M  END
>  <i_m_ct_stereo_status>  (216) 
1

>  <s_m_source_file>  (216) 
/var/tmp/pbs.5076255.sched01/tmp7zsp0c9b/86_oh4d05k.sdf

>  <i_m_source_file_index>  (216) 
2

>  <i_lp_mmshare_version>  (216) 
48012

>  <i_f3d_flags>  (216) 
0

>  <s_epik_input>  (216) 
TzFbQ0BIXShbQ0BdMTIzKVtDQEhdKFtPSF0pW0NAQEhdKFtDSDNdKVtDQEBIXTJbQ0BASF0oRilbQ0gyXVtDQEhdNFtDQEBdNShbQ0gzXSlbQ0BdKEYpKEMoW0NIM10pKFtDSDNdKUMoPU8pW0NIXT1bQ0hdNSlbQ0BASF0oW09IXSlbQ0gyXVtDQEBdMzRbQ0gzXQ==

>  <s_epik_cmdline>  (216) 
J2VwaWtfcHl0aG9uJywgJy1waHQnLCAnMi4wJywgJy1waCcsICc3LjAnLCAnLXRuJywgJzgnLCAnLW1hJywgJzIwMCcsICctaW1hZScsICc8aW5maWxlLm1hZT4nLCAnLW9tYWUnLCAnPG91dGZpbGUubWFlPic=

>  <r_lp_tautomer_probability>  (216) 
1

>  <r_epik_Ionization_Penalty>  (216) 
7.14436e-07

>  <r_epik_Ionization_Penalty_Charging>  (216) 
0

>  <r_epik_Ionization_Penalty_Neutral>  (216) 
7.14436e-07

>  <r_epik_State_Penalty>  (216) 
-0

>  <r_epik_Charging_Adjusted_Penalty>  (216) 
0

>  <i_epik_Tot_Q>  (216) 
0

>  <i_epik_Tot_abs_Q>  (216) 
0

>  <s_lp_Force_Field>  (216) 
OPLS3e

>  <r_lp_Energy>  (216) 
60.282

>  <b_lp_Chiralities_Consistent>  (216) 
1

>  <s_lp_Variant>  (216) 
61:0-1

>  <s_i_glide_gridfile>  (216) 
pfpi4k_grid

>  <i_i_glide_lignum>  (216) 
2

>  <i_i_glide_rotatable_bonds>  (216) 
2

>  <r_i_docking_score>  (216) 
-3.4738

>  <r_i_glide_ligand_efficiency>  (216) 
-0.124064

>  <r_i_glide_ligand_efficiency_sa>  (216) 
-0.376732

>  <r_i_glide_ligand_efficiency_ln>  (216) 
-0.801855

>  <r_i_glide_gscore>  (216) 
-3.4738

>  <r_i_glide_lipo>  (216) 
-0.464573

>  <r_i_glide_hbond>  (216) 
-0.259864

>  <r_i_glide_metal>  (216) 
-0

>  <r_i_glide_rewards>  (216) 
-0.733251

>  <r_i_glide_evdw>  (216) 
-24.4917

>  <r_i_glide_ecoul>  (216) 
-4.75604

>  <r_i_glide_erotb>  (216) 
0

>  <r_i_glide_esite>  (216) 
-0.0781216

>  <r_i_glide_emodel>  (216) 
-35.8735

>  <r_i_glide_energy>  (216) 
-29.2477

>  <r_i_glide_einternal>  (216) 
0.691921

>  <r_i_glide_intrahb_reward>  (216) 
-0

>  <i_i_glide_confnum>  (216) 
2

>  <i_i_glide_posenum>  (216) 
8

>  <r_i_glide_eff_state_penalty>  (216) 
0

>  <ligand_id>  (216) 
61

>  <original_smiles>  (216) 
CC1C(O)C2OC23C1C(F)CC1C2(C)C=CC(=O)C(C)(C)C2(F)C(O)CC13C

>  <smiles>  (216) 
[H]OC1([H])C2([H])OC23C([H])(C([H])(F)C([H])([H])C2([H])C4(C([H])([H])[H])C([H])=C([H])C(=O)C(C([H])([H])[H])(C([H])([H])[H])C4(F)C([H])(O[H])C([H])([H])C23C([H])([H])[H])C1([H])C([H])([H])[H]

$$$$
63:0:0
     RDKit          3D

 35 37  0  0  1  0  0  0  0  0999 V2000
    3.4327   -3.6918    1.0348 C   0  0  0  0  0  0  0  0  0  0  0  0
    3.7052   -5.1416    0.6143 C   0  0  0  0  0  0  0  0  0  0  0  0
    3.0134   -6.0412    1.4650 O   0  0  0  0  0  0  0  0  0  0  0  0
    1.7140   -6.3234    1.2526 C   0  0  0  0  0  0  0  0  0  0  0  0
    1.0257   -5.8670    0.3344 O   0  0  0  0  0  0  0  0  0  0  0  0
    1.1288   -7.2824    2.3018 C   0  0  2  0  0  0  0  0  0  0  0  0
    1.9094   -8.6262    2.2756 C   0  0  0  0  0  0  0  0  0  0  0  0
    1.3237   -9.5943    3.3193 C   0  0  1  0  0  0  0  0  0  0  0  0
    1.4378   -8.9737    4.7282 C   0  0  0  0  0  0  0  0  0  0  0  0
    0.6561   -7.6431    4.7693 C   0  0  2  0  0  0  0  0  0  0  0  0
   -0.8297   -7.9070    4.4503 C   0  0  0  0  0  0  0  0  0  0  0  0
   -0.9477   -8.5378    3.0489 C   0  0  2  0  0  0  0  0  0  0  0  0
   -0.1565   -9.8581    2.9918 C   0  0  0  0  0  0  0  0  0  0  0  0
   -0.3751   -7.5658    2.0066 C   0  0  0  0  0  0  0  0  0  0  0  0
    1.2422   -6.6687    3.7265 C   0  0  0  0  0  0  0  0  0  0  0  0
    3.9658   -2.9945    0.3914 H   0  0  0  0  0  0  0  0  0  0  0  0
    3.7557   -3.5156    2.0579 H   0  0  0  0  0  0  0  0  0  0  0  0
    2.3759   -3.4449    0.9755 H   0  0  0  0  0  0  0  0  0  0  0  0
    3.4248   -5.3060   -0.4260 H   0  0  0  0  0  0  0  0  0  0  0  0
    4.7707   -5.3580    0.6870 H   0  0  0  0  0  0  0  0  0  0  0  0
    1.8615   -9.0819    1.2851 H   0  0  0  0  0  0  0  0  0  0  0  0
    2.9706   -8.4746    2.4854 H   0  0  0  0  0  0  0  0  0  0  0  0
    1.8720  -10.5377    3.2977 H   0  0  0  0  0  0  0  0  0  0  0  0
    1.0452   -9.6663    5.4761 H   0  0  0  0  0  0  0  0  0  0  0  0
    2.4871   -8.8046    4.9853 H   0  0  0  0  0  0  0  0  0  0  0  0
    0.7407   -7.2048    5.7643 H   0  0  0  0  0  0  0  0  0  0  0  0
   -1.2682   -8.5740    5.1937 H   0  0  0  0  0  0  0  0  0  0  0  0
   -1.3969   -6.9753    4.4964 H   0  0  0  0  0  0  0  0  0  0  0  0
   -1.9958   -8.7398    2.8280 H   0  0  0  0  0  0  0  0  0  0  0  0
   -0.2480  -10.3191    2.0107 H   0  0  0  0  0  0  0  0  0  0  0  0
   -0.5691  -10.5816    3.6923 H   0  0  0  0  0  0  0  0  0  0  0  0
   -0.9601   -6.6505    2.0187 H   0  0  0  0  0  0  0  0  0  0  0  0
   -0.5023   -7.9825    1.0081 H   0  0  0  0  0  0  0  0  0  0  0  0
    2.2822   -6.4586    3.9809 H   0  0  0  0  0  0  0  0  0  0  0  0
    0.7202   -5.7126    3.7750 H   0  0  0  0  0  0  0  0  0  0  0  0
  1  2  1  0
  1 16  1  0
  1 17  1  0
  1 18  1  0
  2  3  1  0
  2 19  1  0
  2 20  1  0
  3  4  1  0
  4  5  2  0
  6  4  1  6
  6 14  1  0
  6 15  1  0
  6  7  1  0
  7  8  1  0
  7 21  1  0
  7 22  1  0
  8 13  1  0
  8  9  1  0
  8 23  1  1
  9 10  1  0
  9 24  1  0
  9 25  1  0
 10 11  1  0
 10 15  1  0
 10 26  1  1
 11 12  1  0
 11 27  1  0
 11 28  1  0
 12 13  1  0
 12 14  1  0
 12 29  1  6
 13 30  1  0
 13 31  1  0
 14 32  1  0
 14 33  1  0
 15 34  1  0
 15 35  1  0
M  END
>  <i_m_ct_stereo_status>  (217) 
1

>  <s_m_source_file>  (217) 
/var/tmp/pbs.5076255.sched01/tmp7zsp0c9b/86_oh4d05k.sdf

>  <i_m_source_file_index>  (217) 
4

>  <i_lp_mmshare_version>  (217) 
48012

>  <i_f3d_flags>  (217) 
0

>  <s_epik_input>  (217) 
W0NIM11bQ0gyXU9DKD1PKUMxMltDSDJdW0NAQEhdM1tDSDJdW0NASF0oW0NIMl0yKVtDSDJdW0NAQEhdKFtDSDJdMylbQ0gyXTE=

>  <s_epik_cmdline>  (217) 
J2VwaWtfcHl0aG9uJywgJy1waHQnLCAnMi4wJywgJy1waCcsICc3LjAnLCAnLXRuJywgJzgnLCAnLW1hJywgJzIwMCcsICctaW1hZScsICc8aW5maWxlLm1hZT4nLCAnLW9tYWUnLCAnPG91dGZpbGUubWFlPic=

>  <r_lp_tautomer_probability>  (217) 
1

>  <r_epik_Ionization_Penalty>  (217) 
0

>  <r_epik_Ionization_Penalty_Charging>  (217) 
0

>  <r_epik_Ionization_Penalty_Neutral>  (217) 
0

>  <r_epik_State_Penalty>  (217) 
-0

>  <r_epik_Charging_Adjusted_Penalty>  (217) 
0

>  <i_epik_Tot_Q>  (217) 
0

>  <i_epik_Tot_abs_Q>  (217) 
0

>  <s_epik_Chemistry_Notes>  (217) 
This compound has an ester and may undergo hydrolysis at high or low pH.

>  <s_lp_Force_Field>  (217) 
OPLS3e

>  <r_lp_Energy>  (217) 
5.51788

>  <b_lp_Chiralities_Consistent>  (217) 
1

>  <s_lp_Variant>  (217) 
63:0-1

>  <s_i_glide_gridfile>  (217) 
pfpi4k_grid

>  <i_i_glide_lignum>  (217) 
4

>  <i_i_glide_rotatable_bonds>  (217) 
3

>  <r_i_docking_score>  (217) 
-3.39189

>  <r_i_glide_ligand_efficiency>  (217) 
-0.226126

>  <r_i_glide_ligand_efficiency_sa>  (217) 
-0.557674

>  <r_i_glide_ligand_efficiency_ln>  (217) 
-0.914736

>  <r_i_glide_gscore>  (217) 
-3.39189

>  <r_i_glide_lipo>  (217) 
-0.00316345

>  <r_i_glide_hbond>  (217) 
-0.205844

>  <r_i_glide_metal>  (217) 
-0

>  <r_i_glide_rewards>  (217) 
-1.98889

>  <r_i_glide_evdw>  (217) 
-19.1781

>  <r_i_glide_ecoul>  (217) 
-3.78074

>  <r_i_glide_erotb>  (217) 
0.381518

>  <r_i_glide_esite>  (217) 
-0.0494959

>  <r_i_glide_emodel>  (217) 
-27.9497

>  <r_i_glide_energy>  (217) 
-22.9588

>  <r_i_glide_einternal>  (217) 
0.00205586

>  <r_i_glide_intrahb_reward>  (217) 
-0

>  <i_i_glide_confnum>  (217) 
1

>  <i_i_glide_posenum>  (217) 
6

>  <r_i_glide_eff_state_penalty>  (217) 
0

>  <ligand_id>  (217) 
63

>  <original_smiles>  (217) 
CCOC(=O)C12CC3CC(CC(C3)C1)C2

>  <smiles>  (217) 
[H]C([H])([H])C([H])([H])OC(=O)C12C([H])([H])C3([H])C([H])([H])C([H])(C([H])([H])C([H])(C3([H])[H])C1([H])[H])C2([H])[H]

$$$$
63:0:1
     RDKit          3D

 35 37  0  0  1  0  0  0  0  0999 V2000
    3.2984   -3.5632    0.9707 C   0  0  0  0  0  0  0  0  0  0  0  0
    2.6652   -4.6744    0.1299 C   0  0  0  0  0  0  0  0  0  0  0  0
    1.8308   -5.4777    0.9559 O   0  0  0  0  0  0  0  0  0  0  0  0
    2.2843   -6.6469    1.4595 C   0  0  0  0  0  0  0  0  0  0  0  0
    3.4191   -7.0947    1.2888 O   0  0  0  0  0  0  0  0  0  0  0  0
    1.2327   -7.3738    2.3232 C   0  0  2  0  0  0  0  0  0  0  0  0
   -0.1812   -7.2612    1.6828 C   0  0  0  0  0  0  0  0  0  0  0  0
   -1.2197   -7.9713    2.5698 C   0  0  1  0  0  0  0  0  0  0  0  0
   -0.8591   -9.4578    2.6813 C   0  0  0  0  0  0  0  0  0  0  0  0
    0.5358   -9.5962    3.3291 C   0  0  2  0  0  0  0  0  0  0  0  0
    0.5321   -8.9591    4.7313 C   0  0  0  0  0  0  0  0  0  0  0  0
    0.1538   -7.4668    4.6152 C   0  0  2  0  0  0  0  0  0  0  0  0
   -1.2376   -7.3285    3.9702 C   0  0  0  0  0  0  0  0  0  0  0  0
    1.1967   -6.7416    3.7380 C   0  0  0  0  0  0  0  0  0  0  0  0
    1.5905   -8.8807    2.4583 C   0  0  0  0  0  0  0  0  0  0  0  0
    3.9368   -2.9286    0.3560 H   0  0  0  0  0  0  0  0  0  0  0  0
    3.9113   -3.9714    1.7776 H   0  0  0  0  0  0  0  0  0  0  0  0
    2.5342   -2.9294    1.4215 H   0  0  0  0  0  0  0  0  0  0  0  0
    2.0453   -4.2432   -0.6573 H   0  0  0  0  0  0  0  0  0  0  0  0
    3.4403   -5.2641   -0.3626 H   0  0  0  0  0  0  0  0  0  0  0  0
   -0.4942   -6.2266    1.5655 H   0  0  0  0  0  0  0  0  0  0  0  0
   -0.1873   -7.6916    0.6828 H   0  0  0  0  0  0  0  0  0  0  0  0
   -2.2080   -7.8849    2.1204 H   0  0  0  0  0  0  0  0  0  0  0  0
   -1.6156   -9.9606    3.2745 H   0  0  0  0  0  0  0  0  0  0  0  0
   -0.8810   -9.9394    1.7001 H   0  0  0  0  0  0  0  0  0  0  0  0
    0.7948  -10.6518    3.4109 H   0  0  0  0  0  0  0  0  0  0  0  0
   -0.1745   -9.4802    5.3785 H   0  0  0  0  0  0  0  0  0  0  0  0
    1.5134   -9.0661    5.1981 H   0  0  0  0  0  0  0  0  0  0  0  0
    0.1397   -7.0219    5.6083 H   0  0  0  0  0  0  0  0  0  0  0  0
   -1.5105   -6.2724    3.9127 H   0  0  0  0  0  0  0  0  0  0  0  0
   -1.9916   -7.8154    4.5863 H   0  0  0  0  0  0  0  0  0  0  0  0
    2.1786   -6.8038    4.2129 H   0  0  0  0  0  0  0  0  0  0  0  0
    0.9578   -5.6778    3.6874 H   0  0  0  0  0  0  0  0  0  0  0  0
    1.6333   -9.3531    1.4758 H   0  0  0  0  0  0  0  0  0  0  0  0
    2.5812   -9.0168    2.9028 H   0  0  0  0  0  0  0  0  0  0  0  0
  1  2  1  0
  1 16  1  0
  1 17  1  0
  1 18  1  0
  2  3  1  0
  2 19  1  0
  2 20  1  0
  3  4  1  0
  4  5  2  0
  6  4  1  6
  6 14  1  0
  6 15  1  0
  6  7  1  0
  7  8  1  0
  7 21  1  0
  7 22  1  0
  8 13  1  0
  8  9  1  0
  8 23  1  6
  9 10  1  0
  9 24  1  0
  9 25  1  0
 10 11  1  0
 10 15  1  0
 10 26  1  1
 11 12  1  0
 11 27  1  0
 11 28  1  0
 12 13  1  0
 12 14  1  0
 12 29  1  1
 13 30  1  0
 13 31  1  0
 14 32  1  0
 14 33  1  0
 15 34  1  0
 15 35  1  0
M  END
>  <i_m_ct_stereo_status>  (218) 
1

>  <s_m_source_file>  (218) 
/var/tmp/pbs.5076255.sched01/tmp7zsp0c9b/86_oh4d05k.sdf

>  <i_m_source_file_index>  (218) 
4

>  <i_lp_mmshare_version>  (218) 
48012

>  <i_f3d_flags>  (218) 
0

>  <s_epik_input>  (218) 
W0NIM11bQ0gyXU9DKD1PKUMxMltDSDJdW0NAQEhdM1tDSDJdW0NASF0oW0NIMl0yKVtDSDJdW0NAQEhdKFtDSDJdMylbQ0gyXTE=

>  <s_epik_cmdline>  (218) 
J2VwaWtfcHl0aG9uJywgJy1waHQnLCAnMi4wJywgJy1waCcsICc3LjAnLCAnLXRuJywgJzgnLCAnLW1hJywgJzIwMCcsICctaW1hZScsICc8aW5maWxlLm1hZT4nLCAnLW9tYWUnLCAnPG91dGZpbGUubWFlPic=

>  <r_lp_tautomer_probability>  (218) 
1

>  <r_epik_Ionization_Penalty>  (218) 
0

>  <r_epik_Ionization_Penalty_Charging>  (218) 
0

>  <r_epik_Ionization_Penalty_Neutral>  (218) 
0

>  <r_epik_State_Penalty>  (218) 
-0

>  <r_epik_Charging_Adjusted_Penalty>  (218) 
0

>  <i_epik_Tot_Q>  (218) 
0

>  <i_epik_Tot_abs_Q>  (218) 
0

>  <s_epik_Chemistry_Notes>  (218) 
This compound has an ester and may undergo hydrolysis at high or low pH.

>  <s_lp_Force_Field>  (218) 
OPLS3e

>  <r_lp_Energy>  (218) 
5.51788

>  <b_lp_Chiralities_Consistent>  (218) 
1

>  <s_lp_Variant>  (218) 
63:0-1

>  <s_i_glide_gridfile>  (218) 
pfpi4k_grid

>  <i_i_glide_lignum>  (218) 
4

>  <i_i_glide_rotatable_bonds>  (218) 
3

>  <r_i_docking_score>  (218) 
-3.03455

>  <r_i_glide_ligand_efficiency>  (218) 
-0.202303

>  <r_i_glide_ligand_efficiency_sa>  (218) 
-0.498922

>  <r_i_glide_ligand_efficiency_ln>  (218) 
-0.818367

>  <r_i_glide_gscore>  (218) 
-3.03455

>  <r_i_glide_lipo>  (218) 
-0.0871836

>  <r_i_glide_hbond>  (218) 
-0.093114

>  <r_i_glide_metal>  (218) 
-0

>  <r_i_glide_rewards>  (218) 
-1.98889

>  <r_i_glide_evdw>  (218) 
-20.6073

>  <r_i_glide_ecoul>  (218) 
-1.3405

>  <r_i_glide_erotb>  (218) 
0.381518

>  <r_i_glide_esite>  (218) 
-0.0154425

>  <r_i_glide_emodel>  (218) 
-25.8637

>  <r_i_glide_energy>  (218) 
-21.9478

>  <r_i_glide_einternal>  (218) 
0.982164

>  <r_i_glide_intrahb_reward>  (218) 
-0

>  <i_i_glide_confnum>  (218) 
3

>  <i_i_glide_posenum>  (218) 
21

>  <r_i_glide_eff_state_penalty>  (218) 
0

>  <ligand_id>  (218) 
63

>  <original_smiles>  (218) 
CCOC(=O)C12CC3CC(CC(C3)C1)C2

>  <smiles>  (218) 
[H]C([H])([H])C([H])([H])OC(=O)C12C([H])([H])C3([H])C([H])([H])C([H])(C([H])([H])C([H])(C3([H])[H])C1([H])[H])C2([H])[H]

$$$$
63:0:2
     RDKit          3D

 35 37  0  0  1  0  0  0  0  0999 V2000
   -1.1595   -4.6472    7.8839 C   0  0  0  0  0  0  0  0  0  0  0  0
   -0.0071   -5.6693    7.9134 C   0  0  0  0  0  0  0  0  0  0  0  0
    0.0752   -6.3688    6.6824 O   0  0  0  0  0  0  0  0  0  0  0  0
    0.6309   -5.7827    5.6084 C   0  0  0  0  0  0  0  0  0  0  0  0
    1.0989   -4.6424    5.5888 O   0  0  0  0  0  0  0  0  0  0  0  0
    0.6203   -6.6901    4.3616 C   0  0  2  0  0  0  0  0  0  0  0  0
    1.2164   -5.9388    3.1330 C   0  0  0  0  0  0  0  0  0  0  0  0
    1.2068   -6.8525    1.8963 C   0  0  1  0  0  0  0  0  0  0  0  0
    2.0578   -8.1082    2.1679 C   0  0  0  0  0  0  0  0  0  0  0  0
    1.4672   -8.8686    3.3727 C   0  0  2  0  0  0  0  0  0  0  0  0
    0.0182   -9.2936    3.0627 C   0  0  0  0  0  0  0  0  0  0  0  0
   -0.8308   -8.0380    2.7789 C   0  0  2  0  0  0  0  0  0  0  0  0
   -0.2427   -7.2583    1.5839 C   0  0  0  0  0  0  0  0  0  0  0  0
   -0.8332   -7.1374    4.0248 C   0  0  0  0  0  0  0  0  0  0  0  0
    1.4780   -7.9607    4.6201 C   0  0  0  0  0  0  0  0  0  0  0  0
   -1.2351   -4.1233    8.8353 H   0  0  0  0  0  0  0  0  0  0  0  0
   -2.1195   -5.1282    7.6960 H   0  0  0  0  0  0  0  0  0  0  0  0
   -1.0204   -3.8927    7.1096 H   0  0  0  0  0  0  0  0  0  0  0  0
    0.9450   -5.1828    8.1437 H   0  0  0  0  0  0  0  0  0  0  0  0
   -0.1903   -6.4036    8.7014 H   0  0  0  0  0  0  0  0  0  0  0  0
    0.6488   -5.0295    2.9266 H   0  0  0  0  0  0  0  0  0  0  0  0
    2.2389   -5.6148    3.3383 H   0  0  0  0  0  0  0  0  0  0  0  0
    1.6228   -6.3210    1.0430 H   0  0  0  0  0  0  0  0  0  0  0  0
    2.0720   -8.7533    1.2877 H   0  0  0  0  0  0  0  0  0  0  0  0
    3.0935   -7.8246    2.3736 H   0  0  0  0  0  0  0  0  0  0  0  0
    2.0700   -9.7551    3.5716 H   0  0  0  0  0  0  0  0  0  0  0  0
   -0.0045   -9.9690    2.2089 H   0  0  0  0  0  0  0  0  0  0  0  0
   -0.3965   -9.8494    3.9061 H   0  0  0  0  0  0  0  0  0  0  0  0
   -1.8500   -8.3449    2.5473 H   0  0  0  0  0  0  0  0  0  0  0  0
   -0.8471   -6.3748    1.3756 H   0  0  0  0  0  0  0  0  0  0  0  0
   -0.2682   -7.8525    0.6793 H   0  0  0  0  0  0  0  0  0  0  0  0
   -1.2877   -7.6822    4.8538 H   0  0  0  0  0  0  0  0  0  0  0  0
   -1.4688   -6.2690    3.8585 H   0  0  0  0  0  0  0  0  0  0  0  0
    2.5045   -7.6849    4.8694 H   0  0  0  0  0  0  0  0  0  0  0  0
    1.1019   -8.5260    5.4756 H   0  0  0  0  0  0  0  0  0  0  0  0
  1  2  1  0
  1 16  1  0
  1 17  1  0
  1 18  1  0
  2  3  1  0
  2 19  1  0
  2 20  1  0
  3  4  1  0
  4  5  2  0
  6  4  1  1
  6 14  1  0
  6 15  1  0
  6  7  1  0
  7  8  1  0
  7 21  1  0
  7 22  1  0
  8 13  1  0
  8  9  1  0
  8 23  1  6
  9 10  1  0
  9 24  1  0
  9 25  1  0
 10 11  1  0
 10 15  1  0
 10 26  1  1
 11 12  1  0
 11 27  1  0
 11 28  1  0
 12 13  1  0
 12 14  1  0
 12 29  1  6
 13 30  1  0
 13 31  1  0
 14 32  1  0
 14 33  1  0
 15 34  1  0
 15 35  1  0
M  END
>  <i_m_ct_stereo_status>  (219) 
1

>  <s_m_source_file>  (219) 
/var/tmp/pbs.5076255.sched01/tmp7zsp0c9b/86_oh4d05k.sdf

>  <i_m_source_file_index>  (219) 
4

>  <i_lp_mmshare_version>  (219) 
48012

>  <i_f3d_flags>  (219) 
0

>  <s_epik_input>  (219) 
W0NIM11bQ0gyXU9DKD1PKUMxMltDSDJdW0NAQEhdM1tDSDJdW0NASF0oW0NIMl0yKVtDSDJdW0NAQEhdKFtDSDJdMylbQ0gyXTE=

>  <s_epik_cmdline>  (219) 
J2VwaWtfcHl0aG9uJywgJy1waHQnLCAnMi4wJywgJy1waCcsICc3LjAnLCAnLXRuJywgJzgnLCAnLW1hJywgJzIwMCcsICctaW1hZScsICc8aW5maWxlLm1hZT4nLCAnLW9tYWUnLCAnPG91dGZpbGUubWFlPic=

>  <r_lp_tautomer_probability>  (219) 
1

>  <r_epik_Ionization_Penalty>  (219) 
0

>  <r_epik_Ionization_Penalty_Charging>  (219) 
0

>  <r_epik_Ionization_Penalty_Neutral>  (219) 
0

>  <r_epik_State_Penalty>  (219) 
-0

>  <r_epik_Charging_Adjusted_Penalty>  (219) 
0

>  <i_epik_Tot_Q>  (219) 
0

>  <i_epik_Tot_abs_Q>  (219) 
0

>  <s_epik_Chemistry_Notes>  (219) 
This compound has an ester and may undergo hydrolysis at high or low pH.

>  <s_lp_Force_Field>  (219) 
OPLS3e

>  <r_lp_Energy>  (219) 
5.51788

>  <b_lp_Chiralities_Consistent>  (219) 
1

>  <s_lp_Variant>  (219) 
63:0-1

>  <s_i_glide_gridfile>  (219) 
pfpi4k_grid

>  <i_i_glide_lignum>  (219) 
4

>  <i_i_glide_rotatable_bonds>  (219) 
3

>  <r_i_docking_score>  (219) 
-2.47315

>  <r_i_glide_ligand_efficiency>  (219) 
-0.164877

>  <r_i_glide_ligand_efficiency_sa>  (219) 
-0.406621

>  <r_i_glide_ligand_efficiency_ln>  (219) 
-0.666968

>  <r_i_glide_gscore>  (219) 
-2.47315

>  <r_i_glide_lipo>  (219) 
0

>  <r_i_glide_hbond>  (219) 
0

>  <r_i_glide_metal>  (219) 
-0

>  <r_i_glide_rewards>  (219) 
-1.98889

>  <r_i_glide_evdw>  (219) 
-18.9016

>  <r_i_glide_ecoul>  (219) 
0.554952

>  <r_i_glide_erotb>  (219) 
0.381518

>  <r_i_glide_esite>  (219) 
-0.003946

>  <r_i_glide_emodel>  (219) 
-21.9194

>  <r_i_glide_energy>  (219) 
-18.3467

>  <r_i_glide_einternal>  (219) 
0.0850839

>  <r_i_glide_intrahb_reward>  (219) 
-0

>  <i_i_glide_confnum>  (219) 
3

>  <i_i_glide_posenum>  (219) 
5

>  <r_i_glide_eff_state_penalty>  (219) 
0

>  <ligand_id>  (219) 
63

>  <original_smiles>  (219) 
CCOC(=O)C12CC3CC(CC(C3)C1)C2

>  <smiles>  (219) 
[H]C([H])([H])C([H])([H])OC(=O)C12C([H])([H])C3([H])C([H])([H])C([H])(C([H])([H])C([H])(C3([H])[H])C1([H])[H])C2([H])[H]

$$$$
64:0:0
     RDKit          3D

 39 40  0  0  1  0  0  0  0  0999 V2000
    3.3728    6.1506    3.7063 C   0  0  0  0  0  0  0  0  0  0  0  0
    2.1250    5.5338    3.0943 C   0  0  0  0  0  0  0  0  0  0  0  0
    1.7524    4.2142    3.7675 C   0  0  0  0  0  0  0  0  0  0  0  0
    0.4270    3.7261    3.2853 N   0  0  2  0  0  0  0  0  0  0  0  0
   -0.7230    4.5377    3.7468 C   0  0  0  0  0  0  0  0  0  0  0  0
   -1.9599    3.6695    3.5066 C   0  0  0  0  0  0  0  0  0  0  0  0
   -1.4370    2.2258    3.4873 C   0  0  0  0  0  0  0  0  0  0  0  0
    0.0829    2.3512    3.7096 C   0  0  1  0  0  0  0  0  0  0  0  0
    0.9082    1.2963    3.0471 C   0  0  0  0  0  0  0  0  0  0  0  0
    1.0824    1.3081    1.7291 N   0  0  0  0  0  0  0  0  0  0  0  0
    1.8559    0.2173    1.5540 N   0  0  0  0  0  0  0  0  0  0  0  0
    2.1136   -0.3432    2.7273 C   0  0  0  0  0  0  0  0  0  0  0  0
    2.9691   -1.5624    2.8553 C   0  0  0  0  0  0  0  0  0  0  0  0
    4.4282   -1.2962    2.4543 C   0  0  0  0  0  0  0  0  0  0  0  0
    2.3783   -2.7696    2.1155 C   0  0  0  0  0  0  0  0  0  0  0  0
    1.5314    0.2922    3.7535 N   0  0  0  0  0  0  0  0  0  0  0  0
    2.0666   -0.1584    0.6244 H   0  0  0  0  0  0  0  0  0  0  0  0
    3.6201    7.0885    3.2120 H   0  0  0  0  0  0  0  0  0  0  0  0
    4.2074    5.4708    3.6042 H   0  0  0  0  0  0  0  0  0  0  0  0
    3.2282    6.3584    4.7656 H   0  0  0  0  0  0  0  0  0  0  0  0
    1.3316    6.2718    3.1706 H   0  0  0  0  0  0  0  0  0  0  0  0
    2.2725    5.3419    2.0348 H   0  0  0  0  0  0  0  0  0  0  0  0
    2.5348    3.4861    3.5557 H   0  0  0  0  0  0  0  0  0  0  0  0
    1.7494    4.3229    4.8498 H   0  0  0  0  0  0  0  0  0  0  0  0
   -0.6195    4.7166    4.8204 H   0  0  0  0  0  0  0  0  0  0  0  0
   -0.7884    5.5102    3.2515 H   0  0  0  0  0  0  0  0  0  0  0  0
   -2.7167    3.8299    4.2712 H   0  0  0  0  0  0  0  0  0  0  0  0
   -2.3840    3.9279    2.5364 H   0  0  0  0  0  0  0  0  0  0  0  0
   -1.9085    1.5827    4.2306 H   0  0  0  0  0  0  0  0  0  0  0  0
   -1.6433    1.8075    2.5028 H   0  0  0  0  0  0  0  0  0  0  0  0
    0.2594    2.2978    4.7856 H   0  0  0  0  0  0  0  0  0  0  0  0
    2.9714   -1.8102    3.9162 H   0  0  0  0  0  0  0  0  0  0  0  0
    4.8542   -0.4823    3.0415 H   0  0  0  0  0  0  0  0  0  0  0  0
    4.5060   -1.0282    1.3990 H   0  0  0  0  0  0  0  0  0  0  0  0
    5.0443   -2.1814    2.6204 H   0  0  0  0  0  0  0  0  0  0  0  0
    1.3794   -2.9940    2.4843 H   0  0  0  0  0  0  0  0  0  0  0  0
    2.9923   -3.6579    2.2643 H   0  0  0  0  0  0  0  0  0  0  0  0
    2.3112   -2.5849    1.0419 H   0  0  0  0  0  0  0  0  0  0  0  0
    0.3764    3.7517    2.2620 H   0  0  0  0  0  0  0  0  0  0  0  0
  1  2  1  0
  1 18  1  0
  1 19  1  0
  1 20  1  0
  2  3  1  0
  2 21  1  0
  2 22  1  0
  3  4  1  0
  3 23  1  0
  3 24  1  0
  4  8  1  0
  4  5  1  0
  4 39  1  6
  5  6  1  0
  5 25  1  0
  5 26  1  0
  6  7  1  0
  6 27  1  0
  6 28  1  0
  7  8  1  0
  7 29  1  0
  7 30  1  0
  8  9  1  0
  8 31  1  1
  9 16  1  0
  9 10  2  0
 10 11  1  0
 11 17  1  0
 11 12  1  0
 12 13  1  0
 12 16  2  0
 13 14  1  0
 13 15  1  0
 13 32  1  0
 14 33  1  0
 14 34  1  0
 14 35  1  0
 15 36  1  0
 15 37  1  0
 15 38  1  0
M  CHG  1   4   1
M  END
>  <i_m_ct_stereo_status>  (220) 
1

>  <s_m_source_file>  (220) 
/var/tmp/pbs.5076255.sched01/tmp7zsp0c9b/86_oh4d05k.sdf

>  <i_m_source_file_index>  (220) 
5

>  <i_lp_mmshare_version>  (220) 
48012

>  <i_f3d_flags>  (220) 
0

>  <s_epik_input>  (220) 
W0NIM11bQ0gyXVtDSDJdTjFbQ0gyXVtDSDJdW0NIMl1bQ0BIXTFjMm5bbkhdYyhuMilbQ0hdKFtDSDNdKVtDSDNd

>  <s_epik_cmdline>  (220) 
J2VwaWtfcHl0aG9uJywgJy1waHQnLCAnMi4wJywgJy1waCcsICc3LjAnLCAnLXRuJywgJzgnLCAnLW1hJywgJzIwMCcsICctaW1hZScsICc8aW5maWxlLm1hZT4nLCAnLW9tYWUnLCAnPG91dGZpbGUubWFlPic=

>  <r_lp_tautomer_probability>  (220) 
0.948284

>  <r_epik_Ionization_Penalty>  (220) 
0.0604313

>  <r_epik_Ionization_Penalty_Charging>  (220) 
0.0486116

>  <r_epik_Ionization_Penalty_Neutral>  (220) 
0.0118197

>  <r_epik_State_Penalty>  (220) 
0.361324

>  <r_epik_Charging_Adjusted_Penalty>  (220) 
0.409936

>  <i_epik_Tot_Q>  (220) 
1

>  <i_epik_Tot_abs_Q>  (220) 
1

>  <s_lp_Force_Field>  (220) 
OPLS3e

>  <r_lp_Energy>  (220) 
11.836

>  <b_lp_Chiralities_Consistent>  (220) 
1

>  <s_lp_Variant>  (220) 
64:0-1

>  <s_i_glide_gridfile>  (220) 
pfpi4k_grid

>  <i_i_glide_lignum>  (220) 
5

>  <i_i_glide_rotatable_bonds>  (220) 
4

>  <r_i_docking_score>  (220) 
-3.44942

>  <r_i_glide_ligand_efficiency>  (220) 
-0.215589

>  <r_i_glide_ligand_efficiency_sa>  (220) 
-0.54325

>  <r_i_glide_ligand_efficiency_ln>  (220) 
-0.914338

>  <r_i_glide_gscore>  (220) 
-3.44942

>  <r_i_glide_lipo>  (220) 
-0.0979741

>  <r_i_glide_hbond>  (220) 
-0.270869

>  <r_i_glide_metal>  (220) 
-0

>  <r_i_glide_rewards>  (220) 
-1.88633

>  <r_i_glide_evdw>  (220) 
-15.7193

>  <r_i_glide_ecoul>  (220) 
-5.75041

>  <r_i_glide_erotb>  (220) 
0.678543

>  <r_i_glide_esite>  (220) 
-0.224263

>  <r_i_glide_emodel>  (220) 
-27.0604

>  <r_i_glide_energy>  (220) 
-21.4697

>  <r_i_glide_einternal>  (220) 
2.09072

>  <r_i_glide_intrahb_reward>  (220) 
-0

>  <i_i_glide_confnum>  (220) 
4

>  <i_i_glide_posenum>  (220) 
18

>  <r_i_glide_eff_state_penalty>  (220) 
0

>  <ligand_id>  (220) 
64

>  <original_smiles>  (220) 
CCCN1CCCC1c1n[nH]c(C(C)C)n1

>  <smiles>  (220) 
[H]n1nc(C2([H])C([H])([H])C([H])([H])C([H])([H])[N+]2([H])C([H])([H])C([H])([H])C([H])([H])[H])nc1C([H])(C([H])([H])[H])C([H])([H])[H]

$$$$
64:0:1
     RDKit          3D

 39 40  0  0  1  0  0  0  0  0999 V2000
    4.8128   -6.1438    0.0941 C   0  0  0  0  0  0  0  0  0  0  0  0
    4.2284   -4.7906   -0.3136 C   0  0  0  0  0  0  0  0  0  0  0  0
    4.8406   -4.2663   -1.6199 C   0  0  0  0  0  0  0  0  0  0  0  0
    4.0639   -3.1206   -2.1432 N   0  0  2  0  0  0  0  0  0  0  0  0
    3.7216   -3.2050   -3.5738 C   0  0  0  0  0  0  0  0  0  0  0  0
    3.2966   -1.7823   -3.9525 C   0  0  0  0  0  0  0  0  0  0  0  0
    3.9601   -0.8682   -2.9167 C   0  0  0  0  0  0  0  0  0  0  0  0
    4.7370   -1.8215   -1.9937 C   0  0  1  0  0  0  0  0  0  0  0  0
    4.8235   -1.3810   -0.5714 C   0  0  0  0  0  0  0  0  0  0  0  0
    5.9838   -0.9879   -0.0487 N   0  0  0  0  0  0  0  0  0  0  0  0
    5.6203   -0.6554    1.2078 N   0  0  0  0  0  0  0  0  0  0  0  0
    4.3106   -0.8760    1.3736 C   0  0  0  0  0  0  0  0  0  0  0  0
    3.5694   -0.6053    2.6538 C   0  0  0  0  0  0  0  0  0  0  0  0
    2.7673    0.7061    2.5796 C   0  0  0  0  0  0  0  0  0  0  0  0
    4.4977   -0.6329    3.8804 C   0  0  0  0  0  0  0  0  0  0  0  0
    3.7505   -1.3585    0.2723 N   0  0  0  0  0  0  0  0  0  0  0  0
    6.2751   -0.3069    1.8903 H   0  0  0  0  0  0  0  0  0  0  0  0
    4.3718   -6.4923    1.0285 H   0  0  0  0  0  0  0  0  0  0  0  0
    5.8914   -6.0789    0.2324 H   0  0  0  0  0  0  0  0  0  0  0  0
    4.6166   -6.8973   -0.6700 H   0  0  0  0  0  0  0  0  0  0  0  0
    3.1478   -4.8914   -0.4150 H   0  0  0  0  0  0  0  0  0  0  0  0
    4.4005   -4.0708    0.4864 H   0  0  0  0  0  0  0  0  0  0  0  0
    5.8904   -4.0106   -1.4624 H   0  0  0  0  0  0  0  0  0  0  0  0
    4.8681   -5.0554   -2.3675 H   0  0  0  0  0  0  0  0  0  0  0  0
    4.6149   -3.4843   -4.1392 H   0  0  0  0  0  0  0  0  0  0  0  0
    2.9431   -3.9431   -3.7763 H   0  0  0  0  0  0  0  0  0  0  0  0
    3.5730   -1.5299   -4.9736 H   0  0  0  0  0  0  0  0  0  0  0  0
    2.2167   -1.6915   -3.8788 H   0  0  0  0  0  0  0  0  0  0  0  0
    4.6077   -0.1107   -3.3605 H   0  0  0  0  0  0  0  0  0  0  0  0
    3.1806   -0.3454   -2.3619 H   0  0  0  0  0  0  0  0  0  0  0  0
    5.7553   -1.9215   -2.3890 H   0  0  0  0  0  0  0  0  0  0  0  0
    2.8514   -1.4219    2.7667 H   0  0  0  0  0  0  0  0  0  0  0  0
    2.0616    0.6883    1.7462 H   0  0  0  0  0  0  0  0  0  0  0  0
    3.4113    1.5754    2.4483 H   0  0  0  0  0  0  0  0  0  0  0  0
    2.1931    0.8548    3.4934 H   0  0  0  0  0  0  0  0  0  0  0  0
    5.0064   -1.5943    3.9600 H   0  0  0  0  0  0  0  0  0  0  0  0
    3.9322   -0.4802    4.7976 H   0  0  0  0  0  0  0  0  0  0  0  0
    5.2580    0.1499    3.8269 H   0  0  0  0  0  0  0  0  0  0  0  0
    3.1987   -3.0552   -1.6200 H   0  0  0  0  0  0  0  0  0  0  0  0
  1  2  1  0
  1 18  1  0
  1 19  1  0
  1 20  1  0
  2  3  1  0
  2 21  1  0
  2 22  1  0
  3  4  1  0
  3 23  1  0
  3 24  1  0
  4  8  1  0
  4  5  1  0
  4 39  1  1
  5  6  1  0
  5 25  1  0
  5 26  1  0
  6  7  1  0
  6 27  1  0
  6 28  1  0
  7  8  1  0
  7 29  1  0
  7 30  1  0
  8  9  1  0
  8 31  1  6
  9 16  1  0
  9 10  2  0
 10 11  1  0
 11 17  1  0
 11 12  1  0
 12 13  1  0
 12 16  2  0
 13 14  1  0
 13 15  1  0
 13 32  1  0
 14 33  1  0
 14 34  1  0
 14 35  1  0
 15 36  1  0
 15 37  1  0
 15 38  1  0
M  CHG  1   4   1
M  END
>  <i_m_ct_stereo_status>  (221) 
1

>  <s_m_source_file>  (221) 
/var/tmp/pbs.5076255.sched01/tmp7zsp0c9b/86_oh4d05k.sdf

>  <i_m_source_file_index>  (221) 
5

>  <i_lp_mmshare_version>  (221) 
48012

>  <i_f3d_flags>  (221) 
0

>  <s_epik_input>  (221) 
W0NIM11bQ0gyXVtDSDJdTjFbQ0gyXVtDSDJdW0NIMl1bQ0BIXTFjMm5bbkhdYyhuMilbQ0hdKFtDSDNdKVtDSDNd

>  <s_epik_cmdline>  (221) 
J2VwaWtfcHl0aG9uJywgJy1waHQnLCAnMi4wJywgJy1waCcsICc3LjAnLCAnLXRuJywgJzgnLCAnLW1hJywgJzIwMCcsICctaW1hZScsICc8aW5maWxlLm1hZT4nLCAnLW9tYWUnLCAnPG91dGZpbGUubWFlPic=

>  <r_lp_tautomer_probability>  (221) 
0.948284

>  <r_epik_Ionization_Penalty>  (221) 
0.0604313

>  <r_epik_Ionization_Penalty_Charging>  (221) 
0.0486116

>  <r_epik_Ionization_Penalty_Neutral>  (221) 
0.0118197

>  <r_epik_State_Penalty>  (221) 
0.361324

>  <r_epik_Charging_Adjusted_Penalty>  (221) 
0.409936

>  <i_epik_Tot_Q>  (221) 
1

>  <i_epik_Tot_abs_Q>  (221) 
1

>  <s_lp_Force_Field>  (221) 
OPLS3e

>  <r_lp_Energy>  (221) 
11.836

>  <b_lp_Chiralities_Consistent>  (221) 
1

>  <s_lp_Variant>  (221) 
64:0-1

>  <s_i_glide_gridfile>  (221) 
pfpi4k_grid

>  <i_i_glide_lignum>  (221) 
5

>  <i_i_glide_rotatable_bonds>  (221) 
4

>  <r_i_docking_score>  (221) 
-3.25845

>  <r_i_glide_ligand_efficiency>  (221) 
-0.203653

>  <r_i_glide_ligand_efficiency_sa>  (221) 
-0.513174

>  <r_i_glide_ligand_efficiency_ln>  (221) 
-0.863718

>  <r_i_glide_gscore>  (221) 
-3.25845

>  <r_i_glide_lipo>  (221) 
-0.538508

>  <r_i_glide_hbond>  (221) 
-0.0685332

>  <r_i_glide_metal>  (221) 
-0

>  <r_i_glide_rewards>  (221) 
-1.96702

>  <r_i_glide_evdw>  (221) 
-20.4455

>  <r_i_glide_ecoul>  (221) 
-1.89982

>  <r_i_glide_erotb>  (221) 
0.678543

>  <r_i_glide_esite>  (221) 
-0.0556927

>  <r_i_glide_emodel>  (221) 
-25.9404

>  <r_i_glide_energy>  (221) 
-22.3453

>  <r_i_glide_einternal>  (221) 
5.3426

>  <r_i_glide_intrahb_reward>  (221) 
-0

>  <i_i_glide_confnum>  (221) 
3

>  <i_i_glide_posenum>  (221) 
19

>  <r_i_glide_eff_state_penalty>  (221) 
0

>  <ligand_id>  (221) 
64

>  <original_smiles>  (221) 
CCCN1CCCC1c1n[nH]c(C(C)C)n1

>  <smiles>  (221) 
[H]n1nc(C2([H])C([H])([H])C([H])([H])C([H])([H])[N+]2([H])C([H])([H])C([H])([H])C([H])([H])[H])nc1C([H])(C([H])([H])[H])C([H])([H])[H]

$$$$
64:0:2
     RDKit          3D

 39 40  0  0  1  0  0  0  0  0999 V2000
    7.5435   -2.5142   -0.6076 C   0  0  0  0  0  0  0  0  0  0  0  0
    6.3090   -2.9010   -1.4191 C   0  0  0  0  0  0  0  0  0  0  0  0
    5.0743   -3.0582   -0.5183 C   0  0  0  0  0  0  0  0  0  0  0  0
    3.9017   -3.5333   -1.2988 N   0  0  2  0  0  0  0  0  0  0  0  0
    3.4487   -2.5895   -2.3394 C   0  0  0  0  0  0  0  0  0  0  0  0
    2.0794   -3.0975   -2.7581 C   0  0  0  0  0  0  0  0  0  0  0  0
    1.5648   -3.8863   -1.5551 C   0  0  0  0  0  0  0  0  0  0  0  0
    2.6881   -3.8344   -0.5031 C   0  0  1  0  0  0  0  0  0  0  0  0
    2.8099   -5.0854    0.3212 C   0  0  0  0  0  0  0  0  0  0  0  0
    1.8181   -5.4759    1.1275 N   0  0  0  0  0  0  0  0  0  0  0  0
    2.3407   -6.5910    1.6869 N   0  0  0  0  0  0  0  0  0  0  0  0
    3.5688   -6.7965    1.2184 C   0  0  0  0  0  0  0  0  0  0  0  0
    4.4393   -7.9344    1.6643 C   0  0  0  0  0  0  0  0  0  0  0  0
    3.7653   -9.2924    1.4155 C   0  0  0  0  0  0  0  0  0  0  0  0
    4.8985   -7.7725    3.1245 C   0  0  0  0  0  0  0  0  0  0  0  0
    3.9196   -5.8847    0.3232 N   0  0  0  0  0  0  0  0  0  0  0  0
    1.8440   -7.1677    2.3548 H   0  0  0  0  0  0  0  0  0  0  0  0
    8.4102   -2.3887   -1.2570 H   0  0  0  0  0  0  0  0  0  0  0  0
    7.7848   -3.2819    0.1293 H   0  0  0  0  0  0  0  0  0  0  0  0
    7.3735   -1.5820   -0.0688 H   0  0  0  0  0  0  0  0  0  0  0  0
    6.1400   -2.1412   -2.1833 H   0  0  0  0  0  0  0  0  0  0  0  0
    6.4995   -3.8386   -1.9430 H   0  0  0  0  0  0  0  0  0  0  0  0
    5.3249   -3.7650    0.2771 H   0  0  0  0  0  0  0  0  0  0  0  0
    4.8422   -2.1105   -0.0209 H   0  0  0  0  0  0  0  0  0  0  0  0
    3.3486   -1.5869   -1.9067 H   0  0  0  0  0  0  0  0  0  0  0  0
    4.1229   -2.5214   -3.1965 H   0  0  0  0  0  0  0  0  0  0  0  0
    1.4247   -2.2675   -3.0201 H   0  0  0  0  0  0  0  0  0  0  0  0
    2.1548   -3.7395   -3.6349 H   0  0  0  0  0  0  0  0  0  0  0  0
    0.6320   -3.4814   -1.1839 H   0  0  0  0  0  0  0  0  0  0  0  0
    1.3589   -4.9108   -1.8573 H   0  0  0  0  0  0  0  0  0  0  0  0
    2.5086   -2.9930    0.1705 H   0  0  0  0  0  0  0  0  0  0  0  0
    5.3388   -7.9002    1.0428 H   0  0  0  0  0  0  0  0  0  0  0  0
    3.5097   -9.4109    0.3613 H   0  0  0  0  0  0  0  0  0  0  0  0
    2.8454   -9.3990    1.9980 H   0  0  0  0  0  0  0  0  0  0  0  0
    4.4333  -10.1143    1.6852 H   0  0  0  0  0  0  0  0  0  0  0  0
    5.4494   -6.8404    3.2616 H   0  0  0  0  0  0  0  0  0  0  0  0
    5.5626   -8.5903    3.4139 H   0  0  0  0  0  0  0  0  0  0  0  0
    4.0534   -7.7677    3.8187 H   0  0  0  0  0  0  0  0  0  0  0  0
    4.1235   -4.4139   -1.7575 H   0  0  0  0  0  0  0  0  0  0  0  0
  1  2  1  0
  1 18  1  0
  1 19  1  0
  1 20  1  0
  2  3  1  0
  2 21  1  0
  2 22  1  0
  3  4  1  0
  3 23  1  0
  3 24  1  0
  4  8  1  0
  4  5  1  0
  4 39  1  6
  5  6  1  0
  5 25  1  0
  5 26  1  0
  6  7  1  0
  6 27  1  0
  6 28  1  0
  7  8  1  0
  7 29  1  0
  7 30  1  0
  8  9  1  0
  8 31  1  1
  9 16  1  0
  9 10  2  0
 10 11  1  0
 11 17  1  0
 11 12  1  0
 12 13  1  0
 12 16  2  0
 13 14  1  0
 13 15  1  0
 13 32  1  0
 14 33  1  0
 14 34  1  0
 14 35  1  0
 15 36  1  0
 15 37  1  0
 15 38  1  0
M  CHG  1   4   1
M  END
>  <i_m_ct_stereo_status>  (222) 
1

>  <s_m_source_file>  (222) 
/var/tmp/pbs.5076255.sched01/tmp7zsp0c9b/86_oh4d05k.sdf

>  <i_m_source_file_index>  (222) 
5

>  <i_lp_mmshare_version>  (222) 
48012

>  <i_f3d_flags>  (222) 
0

>  <s_epik_input>  (222) 
W0NIM11bQ0gyXVtDSDJdTjFbQ0gyXVtDSDJdW0NIMl1bQ0BIXTFjMm5bbkhdYyhuMilbQ0hdKFtDSDNdKVtDSDNd

>  <s_epik_cmdline>  (222) 
J2VwaWtfcHl0aG9uJywgJy1waHQnLCAnMi4wJywgJy1waCcsICc3LjAnLCAnLXRuJywgJzgnLCAnLW1hJywgJzIwMCcsICctaW1hZScsICc8aW5maWxlLm1hZT4nLCAnLW9tYWUnLCAnPG91dGZpbGUubWFlPic=

>  <r_lp_tautomer_probability>  (222) 
0.948284

>  <r_epik_Ionization_Penalty>  (222) 
0.0604313

>  <r_epik_Ionization_Penalty_Charging>  (222) 
0.0486116

>  <r_epik_Ionization_Penalty_Neutral>  (222) 
0.0118197

>  <r_epik_State_Penalty>  (222) 
0.361324

>  <r_epik_Charging_Adjusted_Penalty>  (222) 
0.409936

>  <i_epik_Tot_Q>  (222) 
1

>  <i_epik_Tot_abs_Q>  (222) 
1

>  <s_lp_Force_Field>  (222) 
OPLS3e

>  <r_lp_Energy>  (222) 
11.836

>  <b_lp_Chiralities_Consistent>  (222) 
1

>  <s_lp_Variant>  (222) 
64:0-1

>  <s_i_glide_gridfile>  (222) 
pfpi4k_grid

>  <i_i_glide_lignum>  (222) 
5

>  <i_i_glide_rotatable_bonds>  (222) 
4

>  <r_i_docking_score>  (222) 
-3.21481

>  <r_i_glide_ligand_efficiency>  (222) 
-0.200926

>  <r_i_glide_ligand_efficiency_sa>  (222) 
-0.506301

>  <r_i_glide_ligand_efficiency_ln>  (222) 
-0.85215

>  <r_i_glide_gscore>  (222) 
-3.21481

>  <r_i_glide_lipo>  (222) 
-0.223931

>  <r_i_glide_hbond>  (222) 
-0.0873735

>  <r_i_glide_metal>  (222) 
-0

>  <r_i_glide_rewards>  (222) 
-1.9777

>  <r_i_glide_evdw>  (222) 
-16.1941

>  <r_i_glide_ecoul>  (222) 
-4.89523

>  <r_i_glide_erotb>  (222) 
0.678543

>  <r_i_glide_esite>  (222) 
-0.0603611

>  <r_i_glide_emodel>  (222) 
-25.4813

>  <r_i_glide_energy>  (222) 
-21.0893

>  <r_i_glide_einternal>  (222) 
3.40358

>  <r_i_glide_intrahb_reward>  (222) 
-0

>  <i_i_glide_confnum>  (222) 
1

>  <i_i_glide_posenum>  (222) 
20

>  <r_i_glide_eff_state_penalty>  (222) 
0

>  <ligand_id>  (222) 
64

>  <original_smiles>  (222) 
CCCN1CCCC1c1n[nH]c(C(C)C)n1

>  <smiles>  (222) 
[H]n1nc(C2([H])C([H])([H])C([H])([H])C([H])([H])[N+]2([H])C([H])([H])C([H])([H])C([H])([H])[H])nc1C([H])(C([H])([H])[H])C([H])([H])[H]

$$$$
64:1:0
     RDKit          3D

 39 40  0  0  1  0  0  0  0  0999 V2000
    3.5092   -1.4282   -4.0004 C   0  0  0  0  0  0  0  0  0  0  0  0
    3.2432   -2.8218   -3.4217 C   0  0  0  0  0  0  0  0  0  0  0  0
    4.0325   -3.1605   -2.1304 C   0  0  0  0  0  0  0  0  0  0  0  0
    3.5845   -2.3763   -0.9456 N   0  0  2  0  0  0  0  0  0  0  0  0
    4.2035   -1.0393   -0.8508 C   0  0  0  0  0  0  0  0  0  0  0  0
    3.9424   -0.5566    0.5497 C   0  0  0  0  0  0  0  0  0  0  0  0
    3.7488   -1.8150    1.3902 C   0  0  0  0  0  0  0  0  0  0  0  0
    3.9158   -2.9719    0.3892 C   0  0  1  0  0  0  0  0  0  0  0  0
    3.0497   -4.1861    0.7093 C   0  0  0  0  0  0  0  0  0  0  0  0
    2.2210   -4.8108   -0.1132 N   0  0  0  0  0  0  0  0  0  0  0  0
    1.6204   -5.8598    0.4944 N   0  0  0  0  0  0  0  0  0  0  0  0
    2.2058   -5.8209    1.7015 C   0  0  0  0  0  0  0  0  0  0  0  0
    1.8847   -6.7967    2.7854 C   0  0  0  0  0  0  0  0  0  0  0  0
    2.2393   -8.2521    2.4221 C   0  0  0  0  0  0  0  0  0  0  0  0
    0.4324   -6.6520    3.2645 C   0  0  0  0  0  0  0  0  0  0  0  0
    3.1091   -4.8216    1.8800 N   0  0  0  0  0  0  0  0  0  0  0  0
    2.0168   -4.6109   -1.0775 H   0  0  0  0  0  0  0  0  0  0  0  0
    3.0804   -1.3251   -4.9949 H   0  0  0  0  0  0  0  0  0  0  0  0
    4.5743   -1.2594   -4.0886 H   0  0  0  0  0  0  0  0  0  0  0  0
    3.0866   -0.6361   -3.3697 H   0  0  0  0  0  0  0  0  0  0  0  0
    2.1787   -2.9436   -3.2200 H   0  0  0  0  0  0  0  0  0  0  0  0
    3.4785   -3.5868   -4.1585 H   0  0  0  0  0  0  0  0  0  0  0  0
    3.9076   -4.2392   -1.9848 H   0  0  0  0  0  0  0  0  0  0  0  0
    5.1152   -3.1189   -2.2998 H   0  0  0  0  0  0  0  0  0  0  0  0
    5.2665   -1.1538   -0.9781 H   0  0  0  0  0  0  0  0  0  0  0  0
    3.8459   -0.2725   -1.5340 H   0  0  0  0  0  0  0  0  0  0  0  0
    4.7327    0.0963    0.9108 H   0  0  0  0  0  0  0  0  0  0  0  0
    3.0106    0.0067    0.5515 H   0  0  0  0  0  0  0  0  0  0  0  0
    4.4576   -1.8987    2.2321 H   0  0  0  0  0  0  0  0  0  0  0  0
    2.7254   -1.8175    1.8020 H   0  0  0  0  0  0  0  0  0  0  0  0
    4.9407   -3.3235    0.3767 H   0  0  0  0  0  0  0  0  0  0  0  0
    2.5142   -6.5397    3.6444 H   0  0  0  0  0  0  0  0  0  0  0  0
    3.2995   -8.3485    2.1757 H   0  0  0  0  0  0  0  0  0  0  0  0
    1.6550   -8.6078    1.5693 H   0  0  0  0  0  0  0  0  0  0  0  0
    2.0354   -8.9066    3.2650 H   0  0  0  0  0  0  0  0  0  0  0  0
    0.2454   -5.6448    3.6406 H   0  0  0  0  0  0  0  0  0  0  0  0
    0.2251   -7.3483    4.0685 H   0  0  0  0  0  0  0  0  0  0  0  0
   -0.2720   -6.8580    2.4579 H   0  0  0  0  0  0  0  0  0  0  0  0
    2.5792   -2.2443   -0.9419 H   0  0  0  0  0  0  0  0  0  0  0  0
  1  2  1  0
  1 18  1  0
  1 19  1  0
  1 20  1  0
  2  3  1  0
  2 21  1  0
  2 22  1  0
  3  4  1  0
  3 23  1  0
  3 24  1  0
  4  8  1  0
  4  5  1  0
  4 39  1  6
  5  6  1  0
  5 25  1  0
  5 26  1  0
  6  7  1  0
  6 27  1  0
  6 28  1  0
  7  8  1  0
  7 29  1  0
  7 30  1  0
  8 31  1  6
  8  9  1  0
  9 16  2  0
  9 10  1  0
 10 11  1  0
 10 17  1  0
 11 12  2  0
 12 16  1  0
 12 13  1  0
 13 14  1  0
 13 15  1  0
 13 32  1  0
 14 33  1  0
 14 34  1  0
 14 35  1  0
 15 36  1  0
 15 37  1  0
 15 38  1  0
M  CHG  1   4   1
M  END
>  <i_m_ct_stereo_status>  (223) 
1

>  <s_m_source_file>  (223) 
/var/tmp/pbs.5076255.sched01/tmp7zsp0c9b/86_oh4d05k.sdf

>  <i_m_source_file_index>  (223) 
6

>  <i_lp_mmshare_version>  (223) 
48012

>  <i_f3d_flags>  (223) 
0

>  <s_epik_input>  (223) 
W0NIM11bQ0gyXVtDSDJdTjFbQ0gyXVtDSDJdW0NIMl1bQ0BIXTFjMm5bbkhdYyhuMilbQ0hdKFtDSDNdKVtDSDNd

>  <s_epik_cmdline>  (223) 
J2VwaWtfcHl0aG9uJywgJy1waHQnLCAnMi4wJywgJy1waCcsICc3LjAnLCAnLXRuJywgJzgnLCAnLW1hJywgJzIwMCcsICctaW1hZScsICc8aW5maWxlLm1hZT4nLCAnLW9tYWUnLCAnPG91dGZpbGUubWFlPic=

>  <r_epik_Ionization_Penalty>  (223) 
0.103391

>  <r_epik_Ionization_Penalty_Charging>  (223) 
0.0894312

>  <r_epik_Ionization_Penalty_Neutral>  (223) 
0.0139601

>  <r_epik_State_Penalty>  (223) 
0.657068

>  <r_epik_Charging_Adjusted_Penalty>  (223) 
0.746499

>  <i_epik_Tot_Q>  (223) 
1

>  <i_epik_Tot_abs_Q>  (223) 
1

>  <s_lp_Force_Field>  (223) 
OPLS3e

>  <r_lp_Energy>  (223) 
13.9588

>  <b_lp_Chiralities_Consistent>  (223) 
1

>  <s_lp_Variant>  (223) 
64:0-2

>  <s_i_glide_gridfile>  (223) 
pfpi4k_grid

>  <i_i_glide_lignum>  (223) 
6

>  <i_i_glide_rotatable_bonds>  (223) 
4

>  <r_i_docking_score>  (223) 
-3.90521

>  <r_i_glide_ligand_efficiency>  (223) 
-0.244075

>  <r_i_glide_ligand_efficiency_sa>  (223) 
-0.615031

>  <r_i_glide_ligand_efficiency_ln>  (223) 
-1.03515

>  <r_i_glide_gscore>  (223) 
-3.90521

>  <r_i_glide_lipo>  (223) 
-0.262239

>  <r_i_glide_hbond>  (223) 
-0.249393

>  <r_i_glide_metal>  (223) 
-0

>  <r_i_glide_rewards>  (223) 
-1.88633

>  <r_i_glide_evdw>  (223) 
-16.4864

>  <r_i_glide_ecoul>  (223) 
-8.02808

>  <r_i_glide_erotb>  (223) 
0.678543

>  <r_i_glide_esite>  (223) 
-0.157252

>  <r_i_glide_emodel>  (223) 
-29.1006

>  <r_i_glide_energy>  (223) 
-24.5145

>  <r_i_glide_einternal>  (223) 
3.3577

>  <r_i_glide_intrahb_reward>  (223) 
-0

>  <i_i_glide_confnum>  (223) 
6

>  <i_i_glide_posenum>  (223) 
28

>  <r_i_glide_eff_state_penalty>  (223) 
0

>  <ligand_id>  (223) 
64

>  <original_smiles>  (223) 
CCCN1CCCC1c1n[nH]c(C(C)C)n1

>  <smiles>  (223) 
[H]n1nc(C([H])(C([H])([H])[H])C([H])([H])[H])nc1C1([H])C([H])([H])C([H])([H])C([H])([H])[N+]1([H])C([H])([H])C([H])([H])C([H])([H])[H]

$$$$
64:1:1
     RDKit          3D

 39 40  0  0  1  0  0  0  0  0999 V2000
    0.5604    1.3692    3.0490 C   0  0  0  0  0  0  0  0  0  0  0  0
    1.3604    1.3728    1.7055 C   0  0  0  0  0  0  0  0  0  0  0  0
    2.6934    0.5633    1.7062 C   0  0  0  0  0  0  0  0  0  0  0  0
    2.4810   -0.8873    1.6969 N   0  0  2  0  0  0  0  0  0  0  0  0
    1.8448   -1.4291    2.9229 C   0  0  0  0  0  0  0  0  0  0  0  0
    2.0953   -2.9173    2.9066 C   0  0  0  0  0  0  0  0  0  0  0  0
    3.3005   -3.1177    1.9787 C   0  0  0  0  0  0  0  0  0  0  0  0
    3.7205   -1.7038    1.5764 C   0  0  1  0  0  0  0  0  0  0  0  0
    4.2487   -1.5973    0.1488 C   0  0  0  0  0  0  0  0  0  0  0  0
    5.5451   -1.4417   -0.1044 N   0  0  0  0  0  0  0  0  0  0  0  0
    5.7290   -1.4482   -1.4525 N   0  0  0  0  0  0  0  0  0  0  0  0
    4.4871   -1.6331   -1.9092 C   0  0  0  0  0  0  0  0  0  0  0  0
    4.1590   -1.7125   -3.3578 C   0  0  0  0  0  0  0  0  0  0  0  0
    3.5509   -0.4098   -3.9127 C   0  0  0  0  0  0  0  0  0  0  0  0
    3.2736   -2.9282   -3.6713 C   0  0  0  0  0  0  0  0  0  0  0  0
    3.5209   -1.6939   -0.9263 N   0  0  0  0  0  0  0  0  0  0  0  0
    6.3059   -1.3472    0.5538 H   0  0  0  0  0  0  0  0  0  0  0  0
   -0.3089    2.0409    2.9443 H   0  0  0  0  0  0  0  0  0  0  0  0
    1.2253    1.7367    3.8548 H   0  0  0  0  0  0  0  0  0  0  0  0
    0.1555    0.4288    3.3213 H   0  0  0  0  0  0  0  0  0  0  0  0
    0.7264    0.9972    0.8968 H   0  0  0  0  0  0  0  0  0  0  0  0
    1.5966    2.4017    1.4330 H   0  0  0  0  0  0  0  0  0  0  0  0
    3.2833    0.8480    0.8248 H   0  0  0  0  0  0  0  0  0  0  0  0
    3.3160    0.8662    2.5561 H   0  0  0  0  0  0  0  0  0  0  0  0
    2.3552   -0.9815    3.7873 H   0  0  0  0  0  0  0  0  0  0  0  0
    0.7921   -1.3190    2.9919 H   0  0  0  0  0  0  0  0  0  0  0  0
    2.2101   -3.3068    3.9205 H   0  0  0  0  0  0  0  0  0  0  0  0
    1.1931   -3.3584    2.4791 H   0  0  0  0  0  0  0  0  0  0  0  0
    4.1016   -3.6632    2.4915 H   0  0  0  0  0  0  0  0  0  0  0  0
    2.9484   -3.6878    1.1097 H   0  0  0  0  0  0  0  0  0  0  0  0
    4.4515   -1.3086    2.2747 H   0  0  0  0  0  0  0  0  0  0  0  0
    5.0890   -1.8711   -3.9075 H   0  0  0  0  0  0  0  0  0  0  0  0
    4.2111    0.4464   -3.7827 H   0  0  0  0  0  0  0  0  0  0  0  0
    2.6163   -0.1720   -3.4047 H   0  0  0  0  0  0  0  0  0  0  0  0
    3.3370   -0.5035   -4.9755 H   0  0  0  0  0  0  0  0  0  0  0  0
    3.7725   -3.8559   -3.3903 H   0  0  0  0  0  0  0  0  0  0  0  0
    3.0199   -2.9814   -4.7250 H   0  0  0  0  0  0  0  0  0  0  0  0
    2.3373   -2.8733   -3.1152 H   0  0  0  0  0  0  0  0  0  0  0  0
    1.8804   -1.1108    0.8985 H   0  0  0  0  0  0  0  0  0  0  0  0
  1  2  1  0
  1 18  1  0
  1 19  1  0
  1 20  1  0
  2  3  1  0
  2 21  1  0
  2 22  1  0
  3  4  1  0
  3 23  1  0
  3 24  1  0
  4  8  1  0
  4  5  1  0
  4 39  1  6
  5  6  1  0
  5 25  1  0
  5 26  1  0
  6  7  1  0
  6 27  1  0
  6 28  1  0
  7  8  1  0
  7 29  1  0
  7 30  1  0
  8 31  1  1
  8  9  1  0
  9 16  2  0
  9 10  1  0
 10 11  1  0
 10 17  1  0
 11 12  2  0
 12 16  1  0
 12 13  1  0
 13 14  1  0
 13 15  1  0
 13 32  1  0
 14 33  1  0
 14 34  1  0
 14 35  1  0
 15 36  1  0
 15 37  1  0
 15 38  1  0
M  CHG  1   4   1
M  END
>  <i_m_ct_stereo_status>  (224) 
1

>  <s_m_source_file>  (224) 
/var/tmp/pbs.5076255.sched01/tmp7zsp0c9b/86_oh4d05k.sdf

>  <i_m_source_file_index>  (224) 
6

>  <i_lp_mmshare_version>  (224) 
48012

>  <i_f3d_flags>  (224) 
0

>  <s_epik_input>  (224) 
W0NIM11bQ0gyXVtDSDJdTjFbQ0gyXVtDSDJdW0NIMl1bQ0BIXTFjMm5bbkhdYyhuMilbQ0hdKFtDSDNdKVtDSDNd

>  <s_epik_cmdline>  (224) 
J2VwaWtfcHl0aG9uJywgJy1waHQnLCAnMi4wJywgJy1waCcsICc3LjAnLCAnLXRuJywgJzgnLCAnLW1hJywgJzIwMCcsICctaW1hZScsICc8aW5maWxlLm1hZT4nLCAnLW9tYWUnLCAnPG91dGZpbGUubWFlPic=

>  <r_epik_Ionization_Penalty>  (224) 
0.103391

>  <r_epik_Ionization_Penalty_Charging>  (224) 
0.0894312

>  <r_epik_Ionization_Penalty_Neutral>  (224) 
0.0139601

>  <r_epik_State_Penalty>  (224) 
0.657068

>  <r_epik_Charging_Adjusted_Penalty>  (224) 
0.746499

>  <i_epik_Tot_Q>  (224) 
1

>  <i_epik_Tot_abs_Q>  (224) 
1

>  <s_lp_Force_Field>  (224) 
OPLS3e

>  <r_lp_Energy>  (224) 
13.9588

>  <b_lp_Chiralities_Consistent>  (224) 
1

>  <s_lp_Variant>  (224) 
64:0-2

>  <s_i_glide_gridfile>  (224) 
pfpi4k_grid

>  <i_i_glide_lignum>  (224) 
6

>  <i_i_glide_rotatable_bonds>  (224) 
4

>  <r_i_docking_score>  (224) 
-3.90366

>  <r_i_glide_ligand_efficiency>  (224) 
-0.243979

>  <r_i_glide_ligand_efficiency_sa>  (224) 
-0.614788

>  <r_i_glide_ligand_efficiency_ln>  (224) 
-1.03474

>  <r_i_glide_gscore>  (224) 
-3.90366

>  <r_i_glide_lipo>  (224) 
-0.663075

>  <r_i_glide_hbond>  (224) 
-0.248442

>  <r_i_glide_metal>  (224) 
-0

>  <r_i_glide_rewards>  (224) 
-1.88633

>  <r_i_glide_evdw>  (224) 
-20.328

>  <r_i_glide_ecoul>  (224) 
-4.28647

>  <r_i_glide_erotb>  (224) 
0.678543

>  <r_i_glide_esite>  (224) 
-0.124978

>  <r_i_glide_emodel>  (224) 
-29.4627

>  <r_i_glide_energy>  (224) 
-24.6145

>  <r_i_glide_einternal>  (224) 
2.59541

>  <r_i_glide_intrahb_reward>  (224) 
-0

>  <i_i_glide_confnum>  (224) 
1

>  <i_i_glide_posenum>  (224) 
1

>  <r_i_glide_eff_state_penalty>  (224) 
0

>  <ligand_id>  (224) 
64

>  <original_smiles>  (224) 
CCCN1CCCC1c1n[nH]c(C(C)C)n1

>  <smiles>  (224) 
[H]n1nc(C([H])(C([H])([H])[H])C([H])([H])[H])nc1C1([H])C([H])([H])C([H])([H])C([H])([H])[N+]1([H])C([H])([H])C([H])([H])C([H])([H])[H]

$$$$
64:1:2
     RDKit          3D

 39 40  0  0  1  0  0  0  0  0999 V2000
    0.3112    1.6402    3.0055 C   0  0  0  0  0  0  0  0  0  0  0  0
    1.1580    1.5397    1.6998 C   0  0  0  0  0  0  0  0  0  0  0  0
    2.4608    0.7066    1.7849 C   0  0  0  0  0  0  0  0  0  0  0  0
    2.2048   -0.7598    1.8806 N   0  0  2  0  0  0  0  0  0  0  0  0
    1.5507   -1.1479    3.1739 C   0  0  0  0  0  0  0  0  0  0  0  0
    1.7504   -2.6500    3.2740 C   0  0  0  0  0  0  0  0  0  0  0  0
    2.9473   -2.9653    2.3770 C   0  0  0  0  0  0  0  0  0  0  0  0
    3.4080   -1.5969    1.8417 C   0  0  1  0  0  0  0  0  0  0  0  0
    3.9555   -1.6573    0.4267 C   0  0  0  0  0  0  0  0  0  0  0  0
    5.1240   -1.0963    0.0677 N   0  0  0  0  0  0  0  0  0  0  0  0
    5.3620   -1.3709   -1.2301 N   0  0  0  0  0  0  0  0  0  0  0  0
    4.2932   -2.0762   -1.5685 C   0  0  0  0  0  0  0  0  0  0  0  0
    4.0618   -2.6032   -2.9633 C   0  0  0  0  0  0  0  0  0  0  0  0
    5.1643   -3.5601   -3.4409 C   0  0  0  0  0  0  0  0  0  0  0  0
    3.7910   -1.4748   -3.9688 C   0  0  0  0  0  0  0  0  0  0  0  0
    3.3805   -2.2712   -0.5798 N   0  0  0  0  0  0  0  0  0  0  0  0
    5.7681   -0.5799    0.6597 H   0  0  0  0  0  0  0  0  0  0  0  0
   -0.5317    2.3317    2.8382 H   0  0  0  0  0  0  0  0  0  0  0  0
    0.9583    2.0256    3.8223 H   0  0  0  0  0  0  0  0  0  0  0  0
   -0.1403    0.7242    3.3037 H   0  0  0  0  0  0  0  0  0  0  0  0
    0.5399    1.1388    0.8778 H   0  0  0  0  0  0  0  0  0  0  0  0
    1.4301    2.5407    1.3755 H   0  0  0  0  0  0  0  0  0  0  0  0
    3.0616    0.8869    0.8902 H   0  0  0  0  0  0  0  0  0  0  0  0
    3.0793    1.0442    2.6218 H   0  0  0  0  0  0  0  0  0  0  0  0
    2.0885   -0.6601    3.9926 H   0  0  0  0  0  0  0  0  0  0  0  0
    0.5100   -1.0065    3.2497 H   0  0  0  0  0  0  0  0  0  0  0  0
    1.8508   -2.9605    4.3172 H   0  0  0  0  0  0  0  0  0  0  0  0
    0.8302   -3.0932    2.8819 H   0  0  0  0  0  0  0  0  0  0  0  0
    3.7333   -3.4878    2.9315 H   0  0  0  0  0  0  0  0  0  0  0  0
    2.5745   -3.5997    1.5676 H   0  0  0  0  0  0  0  0  0  0  0  0
    4.1528   -1.1747    2.5150 H   0  0  0  0  0  0  0  0  0  0  0  0
    3.1523   -3.1954   -2.9193 H   0  0  0  0  0  0  0  0  0  0  0  0
    5.2693   -4.4099   -2.7635 H   0  0  0  0  0  0  0  0  0  0  0  0
    6.1293   -3.0593   -3.5099 H   0  0  0  0  0  0  0  0  0  0  0  0
    4.9248   -3.9595   -4.4262 H   0  0  0  0  0  0  0  0  0  0  0  0
    2.9134   -0.8905   -3.6856 H   0  0  0  0  0  0  0  0  0  0  0  0
    3.6014   -1.8780   -4.9621 H   0  0  0  0  0  0  0  0  0  0  0  0
    4.6378   -0.7951   -4.0386 H   0  0  0  0  0  0  0  0  0  0  0  0
    1.5887   -1.0084    1.1123 H   0  0  0  0  0  0  0  0  0  0  0  0
  1  2  1  0
  1 18  1  0
  1 19  1  0
  1 20  1  0
  2  3  1  0
  2 21  1  0
  2 22  1  0
  3  4  1  0
  3 23  1  0
  3 24  1  0
  4  8  1  0
  4  5  1  0
  4 39  1  6
  5  6  1  0
  5 25  1  0
  5 26  1  0
  6  7  1  0
  6 27  1  0
  6 28  1  0
  7  8  1  0
  7 29  1  0
  7 30  1  0
  8 31  1  1
  8  9  1  0
  9 16  2  0
  9 10  1  0
 10 11  1  0
 10 17  1  0
 11 12  2  0
 12 16  1  0
 12 13  1  0
 13 14  1  0
 13 15  1  0
 13 32  1  0
 14 33  1  0
 14 34  1  0
 14 35  1  0
 15 36  1  0
 15 37  1  0
 15 38  1  0
M  CHG  1   4   1
M  END
>  <i_m_ct_stereo_status>  (225) 
1

>  <s_m_source_file>  (225) 
/var/tmp/pbs.5076255.sched01/tmp7zsp0c9b/86_oh4d05k.sdf

>  <i_m_source_file_index>  (225) 
6

>  <i_lp_mmshare_version>  (225) 
48012

>  <i_f3d_flags>  (225) 
0

>  <s_epik_input>  (225) 
W0NIM11bQ0gyXVtDSDJdTjFbQ0gyXVtDSDJdW0NIMl1bQ0BIXTFjMm5bbkhdYyhuMilbQ0hdKFtDSDNdKVtDSDNd

>  <s_epik_cmdline>  (225) 
J2VwaWtfcHl0aG9uJywgJy1waHQnLCAnMi4wJywgJy1waCcsICc3LjAnLCAnLXRuJywgJzgnLCAnLW1hJywgJzIwMCcsICctaW1hZScsICc8aW5maWxlLm1hZT4nLCAnLW9tYWUnLCAnPG91dGZpbGUubWFlPic=

>  <r_epik_Ionization_Penalty>  (225) 
0.103391

>  <r_epik_Ionization_Penalty_Charging>  (225) 
0.0894312

>  <r_epik_Ionization_Penalty_Neutral>  (225) 
0.0139601

>  <r_epik_State_Penalty>  (225) 
0.657068

>  <r_epik_Charging_Adjusted_Penalty>  (225) 
0.746499

>  <i_epik_Tot_Q>  (225) 
1

>  <i_epik_Tot_abs_Q>  (225) 
1

>  <s_lp_Force_Field>  (225) 
OPLS3e

>  <r_lp_Energy>  (225) 
13.9588

>  <b_lp_Chiralities_Consistent>  (225) 
1

>  <s_lp_Variant>  (225) 
64:0-2

>  <s_i_glide_gridfile>  (225) 
pfpi4k_grid

>  <i_i_glide_lignum>  (225) 
6

>  <i_i_glide_rotatable_bonds>  (225) 
4

>  <r_i_docking_score>  (225) 
-3.52121

>  <r_i_glide_ligand_efficiency>  (225) 
-0.220076

>  <r_i_glide_ligand_efficiency_sa>  (225) 
-0.554556

>  <r_i_glide_ligand_efficiency_ln>  (225) 
-0.933367

>  <r_i_glide_gscore>  (225) 
-3.52121

>  <r_i_glide_lipo>  (225) 
-0.377531

>  <r_i_glide_hbond>  (225) 
-0.17634

>  <r_i_glide_metal>  (225) 
-0

>  <r_i_glide_rewards>  (225) 
-1.88633

>  <r_i_glide_evdw>  (225) 
-20.9658

>  <r_i_glide_ecoul>  (225) 
-3.94668

>  <r_i_glide_erotb>  (225) 
0.678543

>  <r_i_glide_esite>  (225) 
-0.119255

>  <r_i_glide_emodel>  (225) 
-28.3169

>  <r_i_glide_energy>  (225) 
-24.9125

>  <r_i_glide_einternal>  (225) 
3.04263

>  <r_i_glide_intrahb_reward>  (225) 
-0

>  <i_i_glide_confnum>  (225) 
1

>  <i_i_glide_posenum>  (225) 
24

>  <r_i_glide_eff_state_penalty>  (225) 
0

>  <ligand_id>  (225) 
64

>  <original_smiles>  (225) 
CCCN1CCCC1c1n[nH]c(C(C)C)n1

>  <smiles>  (225) 
[H]n1nc(C([H])(C([H])([H])[H])C([H])([H])[H])nc1C1([H])C([H])([H])C([H])([H])C([H])([H])[N+]1([H])C([H])([H])C([H])([H])C([H])([H])[H]

$$$$
64:2:0
     RDKit          3D

 38 39  0  0  1  0  0  0  0  0999 V2000
  -10.5457   -2.5301   -6.7616 C   0  0  0  0  0  0  0  0  0  0  0  0
   -9.9732   -3.8224   -7.3343 C   0  0  0  0  0  0  0  0  0  0  0  0
   -9.5846   -4.8051   -6.2225 C   0  0  0  0  0  0  0  0  0  0  0  0
   -8.3119   -4.4063   -5.5884 N   0  0  0  0  0  0  0  0  0  0  0  0
   -8.1549   -4.9750   -4.2682 C   0  0  0  0  0  0  0  0  0  0  0  0
   -6.7048   -4.7377   -3.8622 C   0  0  0  0  0  0  0  0  0  0  0  0
   -5.9718   -4.5454   -5.1866 C   0  0  0  0  0  0  0  0  0  0  0  0
   -7.0755   -4.8063   -6.2745 C   0  0  1  0  0  0  0  0  0  0  0  0
   -7.0601   -6.2744   -6.6940 C   0  0  0  0  0  0  0  0  0  0  0  0
   -7.6685   -6.6831   -7.8129 N   0  0  0  0  0  0  0  0  0  0  0  0
   -7.5531   -8.0134   -7.9289 N   0  0  0  0  0  0  0  0  0  0  0  0
   -6.9165   -8.3399   -6.8093 C   0  0  0  0  0  0  0  0  0  0  0  0
   -6.5628   -9.7332   -6.4648 C   0  0  0  0  0  0  0  0  0  0  0  0
   -5.5163  -10.2807   -7.4403 C   0  0  0  0  0  0  0  0  0  0  0  0
   -7.8007  -10.6370   -6.3310 C   0  0  0  0  0  0  0  0  0  0  0  0
   -6.5585   -7.2872   -5.9979 N   0  0  0  0  0  0  0  0  0  0  0  0
   -8.1304   -6.1012   -8.4792 H   0  0  0  0  0  0  0  0  0  0  0  0
  -10.9106   -1.8222   -7.5124 H   0  0  0  0  0  0  0  0  0  0  0  0
   -9.7820   -2.0326   -6.1637 H   0  0  0  0  0  0  0  0  0  0  0  0
  -11.3746   -2.7695   -6.0985 H   0  0  0  0  0  0  0  0  0  0  0  0
  -10.7560   -4.2982   -7.9183 H   0  0  0  0  0  0  0  0  0  0  0  0
   -9.1412   -3.6042   -7.9980 H   0  0  0  0  0  0  0  0  0  0  0  0
  -10.4084   -4.7795   -5.5045 H   0  0  0  0  0  0  0  0  0  0  0  0
   -9.5414   -5.8135   -6.6287 H   0  0  0  0  0  0  0  0  0  0  0  0
   -8.8522   -4.5760   -3.5399 H   0  0  0  0  0  0  0  0  0  0  0  0
   -8.3217   -6.0269   -4.4348 H   0  0  0  0  0  0  0  0  0  0  0  0
   -6.6164   -3.8606   -3.2273 H   0  0  0  0  0  0  0  0  0  0  0  0
   -6.3257   -5.5776   -3.2851 H   0  0  0  0  0  0  0  0  0  0  0  0
   -5.6152   -3.5216   -5.2313 H   0  0  0  0  0  0  0  0  0  0  0  0
   -5.0936   -5.1953   -5.2605 H   0  0  0  0  0  0  0  0  0  0  0  0
   -7.0282   -4.1568   -7.1210 H   0  0  0  0  0  0  0  0  0  0  0  0
   -6.0879   -9.7075   -5.4773 H   0  0  0  0  0  0  0  0  0  0  0  0
   -4.6326   -9.6456   -7.4388 H   0  0  0  0  0  0  0  0  0  0  0  0
   -5.9108  -10.3033   -8.4583 H   0  0  0  0  0  0  0  0  0  0  0  0
   -5.2062  -11.2892   -7.1642 H   0  0  0  0  0  0  0  0  0  0  0  0
   -8.4880  -10.2573   -5.5748 H   0  0  0  0  0  0  0  0  0  0  0  0
   -7.5166  -11.6527   -6.0425 H   0  0  0  0  0  0  0  0  0  0  0  0
   -8.3411  -10.6861   -7.2797 H   0  0  0  0  0  0  0  0  0  0  0  0
  1  2  1  0
  1 18  1  0
  1 19  1  0
  1 20  1  0
  2  3  1  0
  2 21  1  0
  2 22  1  0
  3  4  1  0
  3 23  1  0
  3 24  1  0
  4  8  1  0
  4  5  1  0
  5  6  1  0
  5 25  1  0
  5 26  1  0
  6  7  1  0
  6 27  1  0
  6 28  1  0
  7  8  1  0
  7 29  1  0
  7 30  1  0
  8 31  1  6
  8  9  1  0
  9 16  2  0
  9 10  1  0
 10 11  1  0
 10 17  1  0
 11 12  2  0
 12 16  1  0
 12 13  1  0
 13 14  1  0
 13 15  1  0
 13 32  1  0
 14 33  1  0
 14 34  1  0
 14 35  1  0
 15 36  1  0
 15 37  1  0
 15 38  1  0
M  END
>  <i_m_ct_stereo_status>  (226) 
1

>  <s_m_source_file>  (226) 
/var/tmp/pbs.5076255.sched01/tmp7zsp0c9b/86_oh4d05k.sdf

>  <i_m_source_file_index>  (226) 
7

>  <i_lp_mmshare_version>  (226) 
48012

>  <i_f3d_flags>  (226) 
0

>  <s_epik_input>  (226) 
W0NIM11bQ0gyXVtDSDJdTjFbQ0gyXVtDSDJdW0NIMl1bQ0BIXTFjMm5bbkhdYyhuMilbQ0hdKFtDSDNdKVtDSDNd

>  <s_epik_cmdline>  (226) 
J2VwaWtfcHl0aG9uJywgJy1waHQnLCAnMi4wJywgJy1waCcsICc3LjAnLCAnLXRuJywgJzgnLCAnLW1hJywgJzIwMCcsICctaW1hZScsICc8aW5maWxlLm1hZT4nLCAnLW9tYWUnLCAnPG91dGZpbGUubWFlPic=

>  <r_epik_Ionization_Penalty>  (226) 
1.19295

>  <r_epik_Ionization_Penalty_Charging>  (226) 
0

>  <r_epik_Ionization_Penalty_Neutral>  (226) 
1.19295

>  <r_epik_State_Penalty>  (226) 
1.80421

>  <r_epik_Charging_Adjusted_Penalty>  (226) 
1.80421

>  <i_epik_Tot_Q>  (226) 
0

>  <i_epik_Tot_abs_Q>  (226) 
0

>  <s_lp_Force_Field>  (226) 
OPLS3e

>  <r_lp_Energy>  (226) 
10.0653

>  <b_lp_Chiralities_Consistent>  (226) 
1

>  <s_lp_Variant>  (226) 
64:0-3

>  <s_i_glide_gridfile>  (226) 
pfpi4k_grid

>  <i_i_glide_lignum>  (226) 
7

>  <i_i_glide_rotatable_bonds>  (226) 
4

>  <r_i_docking_score>  (226) 
-4.36903

>  <r_i_glide_ligand_efficiency>  (226) 
-0.273065

>  <r_i_glide_ligand_efficiency_sa>  (226) 
-0.68808

>  <r_i_glide_ligand_efficiency_ln>  (226) 
-1.1581

>  <r_i_glide_gscore>  (226) 
-4.36903

>  <r_i_glide_lipo>  (226) 
-1.70252

>  <r_i_glide_hbond>  (226) 
0

>  <r_i_glide_metal>  (226) 
-0

>  <r_i_glide_rewards>  (226) 
-2.54691

>  <r_i_glide_evdw>  (226) 
-18.3616

>  <r_i_glide_ecoul>  (226) 
0.764876

>  <r_i_glide_erotb>  (226) 
0.683751

>  <r_i_glide_esite>  (226) 
0

>  <r_i_glide_emodel>  (226) 
-20.0437

>  <r_i_glide_energy>  (226) 
-17.5967

>  <r_i_glide_einternal>  (226) 
5.27527

>  <r_i_glide_intrahb_reward>  (226) 
-0

>  <i_i_glide_confnum>  (226) 
5

>  <i_i_glide_posenum>  (226) 
20

>  <r_i_glide_eff_state_penalty>  (226) 
0

>  <ligand_id>  (226) 
64

>  <original_smiles>  (226) 
CCCN1CCCC1c1n[nH]c(C(C)C)n1

>  <smiles>  (226) 
[H]n1nc(C([H])(C([H])([H])[H])C([H])([H])[H])nc1C1([H])N(C([H])([H])C([H])([H])C([H])([H])[H])C([H])([H])C([H])([H])C1([H])[H]

$$$$
64:2:1
     RDKit          3D

 38 39  0  0  1  0  0  0  0  0999 V2000
   -3.6854    3.5941    2.6613 C   0  0  0  0  0  0  0  0  0  0  0  0
   -2.8723    3.0192    3.8304 C   0  0  0  0  0  0  0  0  0  0  0  0
   -1.3726    3.3254    3.7303 C   0  0  0  0  0  0  0  0  0  0  0  0
   -1.0172    4.5733    4.4118 N   0  0  0  0  0  0  0  0  0  0  0  0
   -0.9107    4.4319    5.8628 C   0  0  0  0  0  0  0  0  0  0  0  0
   -0.2035    5.7246    6.2821 C   0  0  0  0  0  0  0  0  0  0  0  0
    0.5535    6.1954    5.0321 C   0  0  0  0  0  0  0  0  0  0  0  0
    0.2879    5.0986    3.9816 C   0  0  1  0  0  0  0  0  0  0  0  0
    1.3983    4.0838    3.9762 C   0  0  0  0  0  0  0  0  0  0  0  0
    1.7230    3.3958    2.8817 N   0  0  0  0  0  0  0  0  0  0  0  0
    2.6160    2.4350    3.2022 N   0  0  0  0  0  0  0  0  0  0  0  0
    2.8065    2.6633    4.5015 C   0  0  0  0  0  0  0  0  0  0  0  0
    3.7406    1.8589    5.3448 C   0  0  0  0  0  0  0  0  0  0  0  0
    2.9944    0.8176    6.1935 C   0  0  0  0  0  0  0  0  0  0  0  0
    4.6241    2.7761    6.2171 C   0  0  0  0  0  0  0  0  0  0  0  0
    2.0419    3.6458    5.0535 N   0  0  0  0  0  0  0  0  0  0  0  0
    1.2931    3.5099    1.9639 H   0  0  0  0  0  0  0  0  0  0  0  0
   -4.7415    3.3526    2.7685 H   0  0  0  0  0  0  0  0  0  0  0  0
   -3.3671    3.1781    1.7060 H   0  0  0  0  0  0  0  0  0  0  0  0
   -3.5892    4.6794    2.6014 H   0  0  0  0  0  0  0  0  0  0  0  0
   -3.2966    3.3270    4.7861 H   0  0  0  0  0  0  0  0  0  0  0  0
   -2.9775    1.9389    3.7946 H   0  0  0  0  0  0  0  0  0  0  0  0
   -0.8053    2.5006    4.1670 H   0  0  0  0  0  0  0  0  0  0  0  0
   -1.0961    3.3604    2.6746 H   0  0  0  0  0  0  0  0  0  0  0  0
   -1.8696    4.2812    6.3563 H   0  0  0  0  0  0  0  0  0  0  0  0
   -0.2920    3.5685    6.1136 H   0  0  0  0  0  0  0  0  0  0  0  0
   -0.9152    6.4844    6.6052 H   0  0  0  0  0  0  0  0  0  0  0  0
    0.4788    5.5370    7.1109 H   0  0  0  0  0  0  0  0  0  0  0  0
    0.1607    7.1544    4.6910 H   0  0  0  0  0  0  0  0  0  0  0  0
    1.6236    6.3431    5.2175 H   0  0  0  0  0  0  0  0  0  0  0  0
    0.2076    5.5343    2.9834 H   0  0  0  0  0  0  0  0  0  0  0  0
    4.4075    1.3218    4.6640 H   0  0  0  0  0  0  0  0  0  0  0  0
    2.4206    0.1419    5.5646 H   0  0  0  0  0  0  0  0  0  0  0  0
    2.3054    1.2891    6.8928 H   0  0  0  0  0  0  0  0  0  0  0  0
    3.6946    0.2168    6.7741 H   0  0  0  0  0  0  0  0  0  0  0  0
    5.1719    3.4947    5.6105 H   0  0  0  0  0  0  0  0  0  0  0  0
    5.3486    2.2002    6.7961 H   0  0  0  0  0  0  0  0  0  0  0  0
    4.0232    3.3498    6.9253 H   0  0  0  0  0  0  0  0  0  0  0  0
  1  2  1  0
  1 18  1  0
  1 19  1  0
  1 20  1  0
  2  3  1  0
  2 21  1  0
  2 22  1  0
  3  4  1  0
  3 23  1  0
  3 24  1  0
  4  8  1  0
  4  5  1  0
  5  6  1  0
  5 25  1  0
  5 26  1  0
  6  7  1  0
  6 27  1  0
  6 28  1  0
  7  8  1  0
  7 29  1  0
  7 30  1  0
  8 31  1  6
  8  9  1  0
  9 16  2  0
  9 10  1  0
 10 11  1  0
 10 17  1  0
 11 12  2  0
 12 16  1  0
 12 13  1  0
 13 14  1  0
 13 15  1  0
 13 32  1  0
 14 33  1  0
 14 34  1  0
 14 35  1  0
 15 36  1  0
 15 37  1  0
 15 38  1  0
M  END
>  <i_m_ct_stereo_status>  (227) 
1

>  <s_m_source_file>  (227) 
/var/tmp/pbs.5076255.sched01/tmp7zsp0c9b/86_oh4d05k.sdf

>  <i_m_source_file_index>  (227) 
7

>  <i_lp_mmshare_version>  (227) 
48012

>  <i_f3d_flags>  (227) 
0

>  <s_epik_input>  (227) 
W0NIM11bQ0gyXVtDSDJdTjFbQ0gyXVtDSDJdW0NIMl1bQ0BIXTFjMm5bbkhdYyhuMilbQ0hdKFtDSDNdKVtDSDNd

>  <s_epik_cmdline>  (227) 
J2VwaWtfcHl0aG9uJywgJy1waHQnLCAnMi4wJywgJy1waCcsICc3LjAnLCAnLXRuJywgJzgnLCAnLW1hJywgJzIwMCcsICctaW1hZScsICc8aW5maWxlLm1hZT4nLCAnLW9tYWUnLCAnPG91dGZpbGUubWFlPic=

>  <r_epik_Ionization_Penalty>  (227) 
1.19295

>  <r_epik_Ionization_Penalty_Charging>  (227) 
0

>  <r_epik_Ionization_Penalty_Neutral>  (227) 
1.19295

>  <r_epik_State_Penalty>  (227) 
1.80421

>  <r_epik_Charging_Adjusted_Penalty>  (227) 
1.80421

>  <i_epik_Tot_Q>  (227) 
0

>  <i_epik_Tot_abs_Q>  (227) 
0

>  <s_lp_Force_Field>  (227) 
OPLS3e

>  <r_lp_Energy>  (227) 
10.0653

>  <b_lp_Chiralities_Consistent>  (227) 
1

>  <s_lp_Variant>  (227) 
64:0-3

>  <s_i_glide_gridfile>  (227) 
pfpi4k_grid

>  <i_i_glide_lignum>  (227) 
7

>  <i_i_glide_rotatable_bonds>  (227) 
4

>  <r_i_docking_score>  (227) 
-3.07342

>  <r_i_glide_ligand_efficiency>  (227) 
-0.192089

>  <r_i_glide_ligand_efficiency_sa>  (227) 
-0.484034

>  <r_i_glide_ligand_efficiency_ln>  (227) 
-0.814672

>  <r_i_glide_gscore>  (227) 
-3.07342

>  <r_i_glide_lipo>  (227) 
-0.149596

>  <r_i_glide_hbond>  (227) 
-0.189513

>  <r_i_glide_metal>  (227) 
-0

>  <r_i_glide_rewards>  (227) 
-1.89321

>  <r_i_glide_evdw>  (227) 
-13.7045

>  <r_i_glide_ecoul>  (227) 
-4.67671

>  <r_i_glide_erotb>  (227) 
0.683751

>  <r_i_glide_esite>  (227) 
-0.138127

>  <r_i_glide_emodel>  (227) 
-19.9699

>  <r_i_glide_energy>  (227) 
-18.3812

>  <r_i_glide_einternal>  (227) 
4.46539

>  <r_i_glide_intrahb_reward>  (227) 
-0

>  <i_i_glide_confnum>  (227) 
6

>  <i_i_glide_posenum>  (227) 
30

>  <r_i_glide_eff_state_penalty>  (227) 
0

>  <ligand_id>  (227) 
64

>  <original_smiles>  (227) 
CCCN1CCCC1c1n[nH]c(C(C)C)n1

>  <smiles>  (227) 
[H]n1nc(C([H])(C([H])([H])[H])C([H])([H])[H])nc1C1([H])N(C([H])([H])C([H])([H])C([H])([H])[H])C([H])([H])C([H])([H])C1([H])[H]

$$$$
64:2:2
     RDKit          3D

 38 39  0  0  1  0  0  0  0  0999 V2000
    3.3976   -0.8386   -4.0240 C   0  0  0  0  0  0  0  0  0  0  0  0
    3.0798   -2.3195   -3.7732 C   0  0  0  0  0  0  0  0  0  0  0  0
    3.3516   -2.8217   -2.3430 C   0  0  0  0  0  0  0  0  0  0  0  0
    4.7780   -2.8755   -1.9881 N   0  0  0  0  0  0  0  0  0  0  0  0
    5.3215   -1.6028   -1.5098 C   0  0  0  0  0  0  0  0  0  0  0  0
    6.6399   -2.0146   -0.8614 C   0  0  0  0  0  0  0  0  0  0  0  0
    6.4861   -3.4898   -0.4999 C   0  0  0  0  0  0  0  0  0  0  0  0
    5.0505   -3.8457   -0.9160 C   0  0  1  0  0  0  0  0  0  0  0  0
    4.1294   -3.7435    0.2811 C   0  0  0  0  0  0  0  0  0  0  0  0
    3.2002   -4.6468    0.5717 N   0  0  0  0  0  0  0  0  0  0  0  0
    2.4621   -4.2134    1.6198 N   0  0  0  0  0  0  0  0  0  0  0  0
    3.0187   -3.0313    1.8753 C   0  0  0  0  0  0  0  0  0  0  0  0
    2.5216   -2.0880    2.9286 C   0  0  0  0  0  0  0  0  0  0  0  0
    1.8629   -0.8257    2.3317 C   0  0  0  0  0  0  0  0  0  0  0  0
    3.6574   -1.7299    3.9027 C   0  0  0  0  0  0  0  0  0  0  0  0
    4.0736   -2.6953    1.0917 N   0  0  0  0  0  0  0  0  0  0  0  0
    3.0167   -5.5147    0.0765 H   0  0  0  0  0  0  0  0  0  0  0  0
    3.0280   -0.5137   -4.9968 H   0  0  0  0  0  0  0  0  0  0  0  0
    4.4692   -0.6558   -4.0121 H   0  0  0  0  0  0  0  0  0  0  0  0
    2.9279   -0.2206   -3.2594 H   0  0  0  0  0  0  0  0  0  0  0  0
    2.0156   -2.4667   -3.9606 H   0  0  0  0  0  0  0  0  0  0  0  0
    3.5957   -2.9497   -4.4957 H   0  0  0  0  0  0  0  0  0  0  0  0
    2.7950   -2.2313   -1.6111 H   0  0  0  0  0  0  0  0  0  0  0  0
    2.9401   -3.8306   -2.2956 H   0  0  0  0  0  0  0  0  0  0  0  0
    5.4985   -0.8466   -2.2736 H   0  0  0  0  0  0  0  0  0  0  0  0
    4.6459   -1.1750   -0.7714 H   0  0  0  0  0  0  0  0  0  0  0  0
    7.4568   -1.9182   -1.5784 H   0  0  0  0  0  0  0  0  0  0  0  0
    6.8548   -1.4044    0.0161 H   0  0  0  0  0  0  0  0  0  0  0  0
    7.2187   -4.0374   -1.0883 H   0  0  0  0  0  0  0  0  0  0  0  0
    6.6974   -3.6982    0.5561 H   0  0  0  0  0  0  0  0  0  0  0  0
    4.9969   -4.8667   -1.2957 H   0  0  0  0  0  0  0  0  0  0  0  0
    1.7501   -2.6153    3.4967 H   0  0  0  0  0  0  0  0  0  0  0  0
    1.0266   -1.0748    1.6822 H   0  0  0  0  0  0  0  0  0  0  0  0
    2.5664   -0.2372    1.7439 H   0  0  0  0  0  0  0  0  0  0  0  0
    1.4820   -0.1755    3.1202 H   0  0  0  0  0  0  0  0  0  0  0  0
    4.0901   -2.6280    4.3369 H   0  0  0  0  0  0  0  0  0  0  0  0
    3.3017   -1.0956    4.7132 H   0  0  0  0  0  0  0  0  0  0  0  0
    4.4599   -1.1938    3.3955 H   0  0  0  0  0  0  0  0  0  0  0  0
  1  2  1  0
  1 18  1  0
  1 19  1  0
  1 20  1  0
  2  3  1  0
  2 21  1  0
  2 22  1  0
  3  4  1  0
  3 23  1  0
  3 24  1  0
  4  8  1  0
  4  5  1  0
  5  6  1  0
  5 25  1  0
  5 26  1  0
  6  7  1  0
  6 27  1  0
  6 28  1  0
  7  8  1  0
  7 29  1  0
  7 30  1  0
  8 31  1  6
  8  9  1  0
  9 16  2  0
  9 10  1  0
 10 11  1  0
 10 17  1  0
 11 12  2  0
 12 16  1  0
 12 13  1  0
 13 14  1  0
 13 15  1  0
 13 32  1  0
 14 33  1  0
 14 34  1  0
 14 35  1  0
 15 36  1  0
 15 37  1  0
 15 38  1  0
M  END
>  <i_m_ct_stereo_status>  (228) 
1

>  <s_m_source_file>  (228) 
/var/tmp/pbs.5076255.sched01/tmp7zsp0c9b/86_oh4d05k.sdf

>  <i_m_source_file_index>  (228) 
7

>  <i_lp_mmshare_version>  (228) 
48012

>  <i_f3d_flags>  (228) 
0

>  <s_epik_input>  (228) 
W0NIM11bQ0gyXVtDSDJdTjFbQ0gyXVtDSDJdW0NIMl1bQ0BIXTFjMm5bbkhdYyhuMilbQ0hdKFtDSDNdKVtDSDNd

>  <s_epik_cmdline>  (228) 
J2VwaWtfcHl0aG9uJywgJy1waHQnLCAnMi4wJywgJy1waCcsICc3LjAnLCAnLXRuJywgJzgnLCAnLW1hJywgJzIwMCcsICctaW1hZScsICc8aW5maWxlLm1hZT4nLCAnLW9tYWUnLCAnPG91dGZpbGUubWFlPic=

>  <r_epik_Ionization_Penalty>  (228) 
1.19295

>  <r_epik_Ionization_Penalty_Charging>  (228) 
0

>  <r_epik_Ionization_Penalty_Neutral>  (228) 
1.19295

>  <r_epik_State_Penalty>  (228) 
1.80421

>  <r_epik_Charging_Adjusted_Penalty>  (228) 
1.80421

>  <i_epik_Tot_Q>  (228) 
0

>  <i_epik_Tot_abs_Q>  (228) 
0

>  <s_lp_Force_Field>  (228) 
OPLS3e

>  <r_lp_Energy>  (228) 
10.0653

>  <b_lp_Chiralities_Consistent>  (228) 
1

>  <s_lp_Variant>  (228) 
64:0-3

>  <s_i_glide_gridfile>  (228) 
pfpi4k_grid

>  <i_i_glide_lignum>  (228) 
7

>  <i_i_glide_rotatable_bonds>  (228) 
4

>  <r_i_docking_score>  (228) 
-2.84929

>  <r_i_glide_ligand_efficiency>  (228) 
-0.178081

>  <r_i_glide_ligand_efficiency_sa>  (228) 
-0.448735

>  <r_i_glide_ligand_efficiency_ln>  (228) 
-0.755261

>  <r_i_glide_gscore>  (228) 
-2.84929

>  <r_i_glide_lipo>  (228) 
-0.500661

>  <r_i_glide_hbond>  (228) 
0

>  <r_i_glide_metal>  (228) 
-0

>  <r_i_glide_rewards>  (228) 
-1.92158

>  <r_i_glide_evdw>  (228) 
-18.4076

>  <r_i_glide_ecoul>  (228) 
-1.16454

>  <r_i_glide_erotb>  (228) 
0.683751

>  <r_i_glide_esite>  (228) 
-0.0157351

>  <r_i_glide_emodel>  (228) 
-21.1594

>  <r_i_glide_energy>  (228) 
-19.5722

>  <r_i_glide_einternal>  (228) 
3.70915

>  <r_i_glide_intrahb_reward>  (228) 
-0

>  <i_i_glide_confnum>  (228) 
6

>  <i_i_glide_posenum>  (228) 
26

>  <r_i_glide_eff_state_penalty>  (228) 
0

>  <ligand_id>  (228) 
64

>  <original_smiles>  (228) 
CCCN1CCCC1c1n[nH]c(C(C)C)n1

>  <smiles>  (228) 
[H]n1nc(C([H])(C([H])([H])[H])C([H])([H])[H])nc1C1([H])N(C([H])([H])C([H])([H])C([H])([H])[H])C([H])([H])C([H])([H])C1([H])[H]

$$$$
64:3:0
     RDKit          3D

 38 39  0  0  1  0  0  0  0  0999 V2000
    5.8587   -4.2133    1.4378 C   0  0  0  0  0  0  0  0  0  0  0  0
    4.9127   -5.1705    0.6869 C   0  0  0  0  0  0  0  0  0  0  0  0
    3.6502   -4.4857    0.0946 C   0  0  0  0  0  0  0  0  0  0  0  0
    2.6826   -3.9557    1.0657 N   0  0  0  0  0  0  0  0  0  0  0  0
    2.9568   -2.5916    1.5018 C   0  0  0  0  0  0  0  0  0  0  0  0
    2.0650   -2.4283    2.7412 C   0  0  0  0  0  0  0  0  0  0  0  0
    1.7563   -3.8411    3.2447 C   0  0  0  0  0  0  0  0  0  0  0  0
    2.4953   -4.7664    2.2778 C   0  0  1  0  0  0  0  0  0  0  0  0
    1.8154   -6.0870    2.0606 C   0  0  0  0  0  0  0  0  0  0  0  0
    0.8166   -6.2584    1.1915 N   0  0  0  0  0  0  0  0  0  0  0  0
    0.5553   -7.5819    1.3409 N   0  0  0  0  0  0  0  0  0  0  0  0
    1.3492   -8.0985    2.2687 C   0  0  0  0  0  0  0  0  0  0  0  0
    1.2853   -9.5447    2.6940 C   0  0  0  0  0  0  0  0  0  0  0  0
    0.8246   -9.6809    4.1521 C   0  0  0  0  0  0  0  0  0  0  0  0
    2.6216  -10.2659    2.4550 C   0  0  0  0  0  0  0  0  0  0  0  0
    2.1757   -7.1989    2.7826 N   0  0  0  0  0  0  0  0  0  0  0  0
   -0.1206   -8.0956    0.7794 H   0  0  0  0  0  0  0  0  0  0  0  0
    6.7801   -4.7268    1.7414 H   0  0  0  0  0  0  0  0  0  0  0  0
    5.3953   -3.7856    2.3242 H   0  0  0  0  0  0  0  0  0  0  0  0
    6.1396   -3.3818    0.7898 H   0  0  0  0  0  0  0  0  0  0  0  0
    5.4610   -5.6338   -0.1354 H   0  0  0  0  0  0  0  0  0  0  0  0
    4.6353   -5.9959    1.3473 H   0  0  0  0  0  0  0  0  0  0  0  0
    3.9214   -3.6968   -0.6103 H   0  0  0  0  0  0  0  0  0  0  0  0
    3.1198   -5.2197   -0.5072 H   0  0  0  0  0  0  0  0  0  0  0  0
    3.9927   -2.4576    1.7808 H   0  0  0  0  0  0  0  0  0  0  0  0
    2.6913   -1.8649    0.7110 H   0  0  0  0  0  0  0  0  0  0  0  0
    2.5949   -1.8468    3.4880 H   0  0  0  0  0  0  0  0  0  0  0  0
    1.1337   -1.9145    2.5013 H   0  0  0  0  0  0  0  0  0  0  0  0
    2.1296   -4.0270    4.2538 H   0  0  0  0  0  0  0  0  0  0  0  0
    0.6783   -4.0271    3.2506 H   0  0  0  0  0  0  0  0  0  0  0  0
    3.4695   -4.9503    2.7398 H   0  0  0  0  0  0  0  0  0  0  0  0
    0.5324  -10.0345    2.0756 H   0  0  0  0  0  0  0  0  0  0  0  0
   -0.1542   -9.2239    4.3047 H   0  0  0  0  0  0  0  0  0  0  0  0
    1.5299   -9.2032    4.8337 H   0  0  0  0  0  0  0  0  0  0  0  0
    0.7446  -10.7315    4.4399 H   0  0  0  0  0  0  0  0  0  0  0  0
    2.9148  -10.2272    1.4036 H   0  0  0  0  0  0  0  0  0  0  0  0
    2.5548  -11.3198    2.7382 H   0  0  0  0  0  0  0  0  0  0  0  0
    3.4251   -9.8169    3.0424 H   0  0  0  0  0  0  0  0  0  0  0  0
  1  2  1  0
  1 18  1  0
  1 19  1  0
  1 20  1  0
  2  3  1  0
  2 21  1  0
  2 22  1  0
  3  4  1  0
  3 23  1  0
  3 24  1  0
  4  8  1  0
  4  5  1  0
  5  6  1  0
  5 25  1  0
  5 26  1  0
  6  7  1  0
  6 27  1  0
  6 28  1  0
  7  8  1  0
  7 29  1  0
  7 30  1  0
  8  9  1  0
  8 31  1  1
  9 16  1  0
  9 10  2  0
 10 11  1  0
 11 17  1  0
 11 12  1  0
 12 13  1  0
 12 16  2  0
 13 14  1  0
 13 15  1  0
 13 32  1  0
 14 33  1  0
 14 34  1  0
 14 35  1  0
 15 36  1  0
 15 37  1  0
 15 38  1  0
M  END
>  <i_m_ct_stereo_status>  (229) 
1

>  <s_m_source_file>  (229) 
/var/tmp/pbs.5076255.sched01/tmp7zsp0c9b/86_oh4d05k.sdf

>  <i_m_source_file_index>  (229) 
8

>  <i_lp_mmshare_version>  (229) 
48012

>  <i_f3d_flags>  (229) 
0

>  <s_epik_input>  (229) 
W0NIM11bQ0gyXVtDSDJdTjFbQ0gyXVtDSDJdW0NIMl1bQ0BIXTFjMm5bbkhdYyhuMilbQ0hdKFtDSDNdKVtDSDNd

>  <s_epik_cmdline>  (229) 
J2VwaWtfcHl0aG9uJywgJy1waHQnLCAnMi4wJywgJy1waCcsICc3LjAnLCAnLXRuJywgJzgnLCAnLW1hJywgJzIwMCcsICctaW1hZScsICc8aW5maWxlLm1hZT4nLCAnLW9tYWUnLCAnPG91dGZpbGUubWFlPic=

>  <r_lp_tautomer_probability>  (229) 
0.948284

>  <r_epik_Ionization_Penalty>  (229) 
1.5343

>  <r_epik_Ionization_Penalty_Charging>  (229) 
0

>  <r_epik_Ionization_Penalty_Neutral>  (229) 
1.5343

>  <r_epik_State_Penalty>  (229) 
1.91608

>  <r_epik_Charging_Adjusted_Penalty>  (229) 
1.91608

>  <i_epik_Tot_Q>  (229) 
0

>  <i_epik_Tot_abs_Q>  (229) 
0

>  <s_lp_Force_Field>  (229) 
OPLS3e

>  <r_lp_Energy>  (229) 
10.9395

>  <b_lp_Chiralities_Consistent>  (229) 
1

>  <s_lp_Variant>  (229) 
64:0-4

>  <s_i_glide_gridfile>  (229) 
pfpi4k_grid

>  <i_i_glide_lignum>  (229) 
8

>  <i_i_glide_rotatable_bonds>  (229) 
4

>  <r_i_docking_score>  (229) 
-3.68501

>  <r_i_glide_ligand_efficiency>  (229) 
-0.230313

>  <r_i_glide_ligand_efficiency_sa>  (229) 
-0.580353

>  <r_i_glide_ligand_efficiency_ln>  (229) 
-0.976786

>  <r_i_glide_gscore>  (229) 
-3.68501

>  <r_i_glide_lipo>  (229) 
-0.203958

>  <r_i_glide_hbond>  (229) 
-0.376551

>  <r_i_glide_metal>  (229) 
-0

>  <r_i_glide_rewards>  (229) 
-1.89321

>  <r_i_glide_evdw>  (229) 
-14.4907

>  <r_i_glide_ecoul>  (229) 
-6.90417

>  <r_i_glide_erotb>  (229) 
0.683751

>  <r_i_glide_esite>  (229) 
-0.134887

>  <r_i_glide_emodel>  (229) 
-21.7868

>  <r_i_glide_energy>  (229) 
-21.3948

>  <r_i_glide_einternal>  (229) 
10.3191

>  <r_i_glide_intrahb_reward>  (229) 
-0

>  <i_i_glide_confnum>  (229) 
2

>  <i_i_glide_posenum>  (229) 
3

>  <r_i_glide_eff_state_penalty>  (229) 
0

>  <ligand_id>  (229) 
64

>  <original_smiles>  (229) 
CCCN1CCCC1c1n[nH]c(C(C)C)n1

>  <smiles>  (229) 
[H]n1nc(C2([H])N(C([H])([H])C([H])([H])C([H])([H])[H])C([H])([H])C([H])([H])C2([H])[H])nc1C([H])(C([H])([H])[H])C([H])([H])[H]

$$$$
64:3:1
     RDKit          3D

 38 39  0  0  1  0  0  0  0  0999 V2000
    4.3029   -2.2663   -1.0453 C   0  0  0  0  0  0  0  0  0  0  0  0
    3.7451   -3.7117   -1.0884 C   0  0  0  0  0  0  0  0  0  0  0  0
    3.6481   -4.5037    0.2564 C   0  0  0  0  0  0  0  0  0  0  0  0
    2.6278   -3.9689    1.1729 N   0  0  0  0  0  0  0  0  0  0  0  0
    2.9632   -2.6795    1.7600 C   0  0  0  0  0  0  0  0  0  0  0  0
    2.0425   -2.5036    2.9142 C   0  0  0  0  0  0  0  0  0  0  0  0
    1.6837   -3.9268    3.3408 C   0  0  0  0  0  0  0  0  0  0  0  0
    2.4451   -4.8178    2.3473 C   0  0  1  0  0  0  0  0  0  0  0  0
    1.7706   -6.1311    2.1041 C   0  0  0  0  0  0  0  0  0  0  0  0
    0.8245   -6.2733    1.1684 N   0  0  0  0  0  0  0  0  0  0  0  0
    0.4861   -7.5769    1.3137 N   0  0  0  0  0  0  0  0  0  0  0  0
    1.1979   -8.1109    2.3247 C   0  0  0  0  0  0  0  0  0  0  0  0
    1.0604   -9.5349    2.7509 C   0  0  0  0  0  0  0  0  0  0  0  0
    0.4699   -9.6326    4.1635 C   0  0  0  0  0  0  0  0  0  0  0  0
    2.3982  -10.2808    2.6435 C   0  0  0  0  0  0  0  0  0  0  0  0
    2.0053   -7.2334    2.8929 N   0  0  0  0  0  0  0  0  0  0  0  0
   -0.1476   -8.0745    0.7023 H   0  0  0  0  0  0  0  0  0  0  0  0
    4.4096   -1.8755   -2.0490 H   0  0  0  0  0  0  0  0  0  0  0  0
    5.2530   -2.2487   -0.5169 H   0  0  0  0  0  0  0  0  0  0  0  0
    3.6049   -1.5743   -0.5718 H   0  0  0  0  0  0  0  0  0  0  0  0
    2.7633   -3.7550   -1.5810 H   0  0  0  0  0  0  0  0  0  0  0  0
    4.4133   -4.3110   -1.7368 H   0  0  0  0  0  0  0  0  0  0  0  0
    3.3796   -5.5476    0.0037 H   0  0  0  0  0  0  0  0  0  0  0  0
    4.6232   -4.5879    0.7482 H   0  0  0  0  0  0  0  0  0  0  0  0
    4.0057   -2.6569    2.0519 H   0  0  0  0  0  0  0  0  0  0  0  0
    2.6841   -1.8269    1.1442 H   0  0  0  0  0  0  0  0  0  0  0  0
    2.5021   -1.8847    3.6949 H   0  0  0  0  0  0  0  0  0  0  0  0
    1.1455   -1.9856    2.5547 H   0  0  0  0  0  0  0  0  0  0  0  0
    1.9793   -4.1018    4.3846 H   0  0  0  0  0  0  0  0  0  0  0  0
    0.5987   -4.0493    3.2453 H   0  0  0  0  0  0  0  0  0  0  0  0
    3.4367   -5.0132    2.7640 H   0  0  0  0  0  0  0  0  0  0  0  0
    0.3629  -10.0073    2.0689 H   0  0  0  0  0  0  0  0  0  0  0  0
   -0.5082   -9.1571    4.2249 H   0  0  0  0  0  0  0  0  0  0  0  0
    1.1196   -9.1636    4.9009 H   0  0  0  0  0  0  0  0  0  0  0  0
    0.3399  -10.6729    4.4580 H   0  0  0  0  0  0  0  0  0  0  0  0
    2.7866  -10.2559    1.6266 H   0  0  0  0  0  0  0  0  0  0  0  0
    2.2823  -11.3256    2.9310 H   0  0  0  0  0  0  0  0  0  0  0  0
    3.1511   -9.8431    3.2968 H   0  0  0  0  0  0  0  0  0  0  0  0
  1  2  1  0
  1 18  1  0
  1 19  1  0
  1 20  1  0
  2  3  1  0
  2 21  1  0
  2 22  1  0
  3  4  1  0
  3 23  1  0
  3 24  1  0
  4  8  1  0
  4  5  1  0
  5  6  1  0
  5 25  1  0
  5 26  1  0
  6  7  1  0
  6 27  1  0
  6 28  1  0
  7  8  1  0
  7 29  1  0
  7 30  1  0
  8  9  1  0
  8 31  1  1
  9 16  1  0
  9 10  2  0
 10 11  1  0
 11 17  1  0
 11 12  1  0
 12 13  1  0
 12 16  2  0
 13 14  1  0
 13 15  1  0
 13 32  1  0
 14 33  1  0
 14 34  1  0
 14 35  1  0
 15 36  1  0
 15 37  1  0
 15 38  1  0
M  END
>  <i_m_ct_stereo_status>  (230) 
1

>  <s_m_source_file>  (230) 
/var/tmp/pbs.5076255.sched01/tmp7zsp0c9b/86_oh4d05k.sdf

>  <i_m_source_file_index>  (230) 
8

>  <i_lp_mmshare_version>  (230) 
48012

>  <i_f3d_flags>  (230) 
0

>  <s_epik_input>  (230) 
W0NIM11bQ0gyXVtDSDJdTjFbQ0gyXVtDSDJdW0NIMl1bQ0BIXTFjMm5bbkhdYyhuMilbQ0hdKFtDSDNdKVtDSDNd

>  <s_epik_cmdline>  (230) 
J2VwaWtfcHl0aG9uJywgJy1waHQnLCAnMi4wJywgJy1waCcsICc3LjAnLCAnLXRuJywgJzgnLCAnLW1hJywgJzIwMCcsICctaW1hZScsICc8aW5maWxlLm1hZT4nLCAnLW9tYWUnLCAnPG91dGZpbGUubWFlPic=

>  <r_lp_tautomer_probability>  (230) 
0.948284

>  <r_epik_Ionization_Penalty>  (230) 
1.5343

>  <r_epik_Ionization_Penalty_Charging>  (230) 
0

>  <r_epik_Ionization_Penalty_Neutral>  (230) 
1.5343

>  <r_epik_State_Penalty>  (230) 
1.91608

>  <r_epik_Charging_Adjusted_Penalty>  (230) 
1.91608

>  <i_epik_Tot_Q>  (230) 
0

>  <i_epik_Tot_abs_Q>  (230) 
0

>  <s_lp_Force_Field>  (230) 
OPLS3e

>  <r_lp_Energy>  (230) 
10.9395

>  <b_lp_Chiralities_Consistent>  (230) 
1

>  <s_lp_Variant>  (230) 
64:0-4

>  <s_i_glide_gridfile>  (230) 
pfpi4k_grid

>  <i_i_glide_lignum>  (230) 
8

>  <i_i_glide_rotatable_bonds>  (230) 
4

>  <r_i_docking_score>  (230) 
-3.57284

>  <r_i_glide_ligand_efficiency>  (230) 
-0.223303

>  <r_i_glide_ligand_efficiency_sa>  (230) 
-0.562687

>  <r_i_glide_ligand_efficiency_ln>  (230) 
-0.947053

>  <r_i_glide_gscore>  (230) 
-3.57284

>  <r_i_glide_lipo>  (230) 
-0.0629615

>  <r_i_glide_hbond>  (230) 
-0.37756

>  <r_i_glide_metal>  (230) 
-0

>  <r_i_glide_rewards>  (230) 
-1.89321

>  <r_i_glide_evdw>  (230) 
-15.3104

>  <r_i_glide_ecoul>  (230) 
-6.79078

>  <r_i_glide_erotb>  (230) 
0.683751

>  <r_i_glide_esite>  (230) 
-0.138731

>  <r_i_glide_emodel>  (230) 
-25.8601

>  <r_i_glide_energy>  (230) 
-22.1012

>  <r_i_glide_einternal>  (230) 
2.37434

>  <r_i_glide_intrahb_reward>  (230) 
-0

>  <i_i_glide_confnum>  (230) 
2

>  <i_i_glide_posenum>  (230) 
10

>  <r_i_glide_eff_state_penalty>  (230) 
0

>  <ligand_id>  (230) 
64

>  <original_smiles>  (230) 
CCCN1CCCC1c1n[nH]c(C(C)C)n1

>  <smiles>  (230) 
[H]n1nc(C2([H])N(C([H])([H])C([H])([H])C([H])([H])[H])C([H])([H])C([H])([H])C2([H])[H])nc1C([H])(C([H])([H])[H])C([H])([H])[H]

$$$$
64:3:2
     RDKit          3D

 38 39  0  0  1  0  0  0  0  0999 V2000
   -3.5217    3.2811    2.5710 C   0  0  0  0  0  0  0  0  0  0  0  0
   -2.3032    4.1326    2.9620 C   0  0  0  0  0  0  0  0  0  0  0  0
   -1.0179    3.3218    3.1973 C   0  0  0  0  0  0  0  0  0  0  0  0
   -1.1698    2.2489    4.1839 N   0  0  0  0  0  0  0  0  0  0  0  0
   -1.7328    2.6909    5.4519 C   0  0  0  0  0  0  0  0  0  0  0  0
   -1.4613    1.5196    6.3894 C   0  0  0  0  0  0  0  0  0  0  0  0
   -0.2281    0.8396    5.8031 C   0  0  0  0  0  0  0  0  0  0  0  0
    0.1181    1.6385    4.5390 C   0  0  1  0  0  0  0  0  0  0  0  0
    0.7829    0.7933    3.4821 C   0  0  0  0  0  0  0  0  0  0  0  0
    0.1662    0.4890    2.3331 N   0  0  0  0  0  0  0  0  0  0  0  0
    1.1048   -0.2225    1.6794 N   0  0  0  0  0  0  0  0  0  0  0  0
    2.1660   -0.3793    2.4730 C   0  0  0  0  0  0  0  0  0  0  0  0
    3.3483   -1.1752    2.0582 C   0  0  0  0  0  0  0  0  0  0  0  0
    4.1236   -0.5035    0.9171 C   0  0  0  0  0  0  0  0  0  0  0  0
    2.9805   -2.6320    1.7329 C   0  0  0  0  0  0  0  0  0  0  0  0
    2.0351    0.2597    3.6363 N   0  0  0  0  0  0  0  0  0  0  0  0
    0.9959   -0.5514    0.7099 H   0  0  0  0  0  0  0  0  0  0  0  0
   -4.3937    3.9090    2.3889 H   0  0  0  0  0  0  0  0  0  0  0  0
   -3.7860    2.5745    3.3579 H   0  0  0  0  0  0  0  0  0  0  0  0
   -3.3295    2.6936    1.6768 H   0  0  0  0  0  0  0  0  0  0  0  0
   -2.1042    4.8626    2.1731 H   0  0  0  0  0  0  0  0  0  0  0  0
   -2.5315    4.7009    3.8599 H   0  0  0  0  0  0  0  0  0  0  0  0
   -0.7126    2.8946    2.2439 H   0  0  0  0  0  0  0  0  0  0  0  0
   -0.2149    3.9974    3.4952 H   0  0  0  0  0  0  0  0  0  0  0  0
   -1.2261    3.5955    5.7936 H   0  0  0  0  0  0  0  0  0  0  0  0
   -2.8022    2.8904    5.3762 H   0  0  0  0  0  0  0  0  0  0  0  0
   -1.3029    1.8669    7.4109 H   0  0  0  0  0  0  0  0  0  0  0  0
   -2.3020    0.8238    6.3874 H   0  0  0  0  0  0  0  0  0  0  0  0
    0.6143    0.8277    6.4959 H   0  0  0  0  0  0  0  0  0  0  0  0
   -0.4610   -0.1957    5.5491 H   0  0  0  0  0  0  0  0  0  0  0  0
    0.8049    2.4425    4.8156 H   0  0  0  0  0  0  0  0  0  0  0  0
    4.0059   -1.1971    2.9264 H   0  0  0  0  0  0  0  0  0  0  0  0
    4.4334    0.5055    1.1919 H   0  0  0  0  0  0  0  0  0  0  0  0
    3.5093   -0.4363    0.0212 H   0  0  0  0  0  0  0  0  0  0  0  0
    5.0194   -1.0736    0.6698 H   0  0  0  0  0  0  0  0  0  0  0  0
    2.5014   -3.1146    2.5856 H   0  0  0  0  0  0  0  0  0  0  0  0
    3.8710   -3.2092    1.4835 H   0  0  0  0  0  0  0  0  0  0  0  0
    2.2986   -2.6856    0.8848 H   0  0  0  0  0  0  0  0  0  0  0  0
  1  2  1  0
  1 18  1  0
  1 19  1  0
  1 20  1  0
  2  3  1  0
  2 21  1  0
  2 22  1  0
  3  4  1  0
  3 23  1  0
  3 24  1  0
  4  8  1  0
  4  5  1  0
  5  6  1  0
  5 25  1  0
  5 26  1  0
  6  7  1  0
  6 27  1  0
  6 28  1  0
  7  8  1  0
  7 29  1  0
  7 30  1  0
  8  9  1  0
  8 31  1  1
  9 16  1  0
  9 10  2  0
 10 11  1  0
 11 17  1  0
 11 12  1  0
 12 13  1  0
 12 16  2  0
 13 14  1  0
 13 15  1  0
 13 32  1  0
 14 33  1  0
 14 34  1  0
 14 35  1  0
 15 36  1  0
 15 37  1  0
 15 38  1  0
M  END
>  <i_m_ct_stereo_status>  (231) 
1

>  <s_m_source_file>  (231) 
/var/tmp/pbs.5076255.sched01/tmp7zsp0c9b/86_oh4d05k.sdf

>  <i_m_source_file_index>  (231) 
8

>  <i_lp_mmshare_version>  (231) 
48012

>  <i_f3d_flags>  (231) 
0

>  <s_epik_input>  (231) 
W0NIM11bQ0gyXVtDSDJdTjFbQ0gyXVtDSDJdW0NIMl1bQ0BIXTFjMm5bbkhdYyhuMilbQ0hdKFtDSDNdKVtDSDNd

>  <s_epik_cmdline>  (231) 
J2VwaWtfcHl0aG9uJywgJy1waHQnLCAnMi4wJywgJy1waCcsICc3LjAnLCAnLXRuJywgJzgnLCAnLW1hJywgJzIwMCcsICctaW1hZScsICc8aW5maWxlLm1hZT4nLCAnLW9tYWUnLCAnPG91dGZpbGUubWFlPic=

>  <r_lp_tautomer_probability>  (231) 
0.948284

>  <r_epik_Ionization_Penalty>  (231) 
1.5343

>  <r_epik_Ionization_Penalty_Charging>  (231) 
0

>  <r_epik_Ionization_Penalty_Neutral>  (231) 
1.5343

>  <r_epik_State_Penalty>  (231) 
1.91608

>  <r_epik_Charging_Adjusted_Penalty>  (231) 
1.91608

>  <i_epik_Tot_Q>  (231) 
0

>  <i_epik_Tot_abs_Q>  (231) 
0

>  <s_lp_Force_Field>  (231) 
OPLS3e

>  <r_lp_Energy>  (231) 
10.9395

>  <b_lp_Chiralities_Consistent>  (231) 
1

>  <s_lp_Variant>  (231) 
64:0-4

>  <s_i_glide_gridfile>  (231) 
pfpi4k_grid

>  <i_i_glide_lignum>  (231) 
8

>  <i_i_glide_rotatable_bonds>  (231) 
4

>  <r_i_docking_score>  (231) 
-2.94298

>  <r_i_glide_ligand_efficiency>  (231) 
-0.183936

>  <r_i_glide_ligand_efficiency_sa>  (231) 
-0.46349

>  <r_i_glide_ligand_efficiency_ln>  (231) 
-0.780095

>  <r_i_glide_gscore>  (231) 
-2.94298

>  <r_i_glide_lipo>  (231) 
-0.179313

>  <r_i_glide_hbond>  (231) 
-0.16

>  <r_i_glide_metal>  (231) 
-0

>  <r_i_glide_rewards>  (231) 
-1.89321

>  <r_i_glide_evdw>  (231) 
-15.0314

>  <r_i_glide_ecoul>  (231) 
-3.35707

>  <r_i_glide_erotb>  (231) 
0.683751

>  <r_i_glide_esite>  (231) 
-0.13908

>  <r_i_glide_emodel>  (231) 
-19.3742

>  <r_i_glide_energy>  (231) 
-18.3885

>  <r_i_glide_einternal>  (231) 
6.43162

>  <r_i_glide_intrahb_reward>  (231) 
-0

>  <i_i_glide_confnum>  (231) 
1

>  <i_i_glide_posenum>  (231) 
11

>  <r_i_glide_eff_state_penalty>  (231) 
0

>  <ligand_id>  (231) 
64

>  <original_smiles>  (231) 
CCCN1CCCC1c1n[nH]c(C(C)C)n1

>  <smiles>  (231) 
[H]n1nc(C2([H])N(C([H])([H])C([H])([H])C([H])([H])[H])C([H])([H])C([H])([H])C2([H])[H])nc1C([H])(C([H])([H])[H])C([H])([H])[H]

$$$$
64:4:0
     RDKit          3D

 39 40  0  0  1  0  0  0  0  0999 V2000
    8.6220   -2.5137    0.1350 C   0  0  0  0  0  0  0  0  0  0  0  0
    7.1254   -2.4739    0.4405 C   0  0  0  0  0  0  0  0  0  0  0  0
    6.3267   -3.3873   -0.4983 C   0  0  0  0  0  0  0  0  0  0  0  0
    4.8760   -3.3796   -0.1534 N   0  0  2  0  0  0  0  0  0  0  0  0
    4.5512   -4.2224    1.0246 C   0  0  0  0  0  0  0  0  0  0  0  0
    3.0318   -4.4034    0.9938 C   0  0  0  0  0  0  0  0  0  0  0  0
    2.6322   -4.1709   -0.4683 C   0  0  0  0  0  0  0  0  0  0  0  0
    3.9554   -3.8726   -1.1933 C   0  0  1  0  0  0  0  0  0  0  0  0
    3.9058   -2.8675   -2.3140 C   0  0  0  0  0  0  0  0  0  0  0  0
    4.4218   -3.1095   -3.5169 N   0  0  0  0  0  0  0  0  0  0  0  0
    4.1167   -2.0100   -4.3022 N   0  0  0  0  0  0  0  0  0  0  0  0
    3.4122   -1.2041   -3.5141 C   0  0  0  0  0  0  0  0  0  0  0  0
    2.8736    0.1293   -3.9301 C   0  0  0  0  0  0  0  0  0  0  0  0
    2.0419    0.1235   -5.2060 C   0  0  0  0  0  0  0  0  0  0  0  0
    3.9765    1.1621   -4.1151 C   0  0  0  0  0  0  0  0  0  0  0  0
    3.2871   -1.6719   -2.2566 N   0  0  0  0  0  0  0  0  0  0  0  0
    2.7292   -1.2736   -1.5074 H   0  0  0  0  0  0  0  0  0  0  0  0
    9.1698   -1.8406    0.7921 H   0  0  0  0  0  0  0  0  0  0  0  0
    8.8274   -2.2204   -0.8933 H   0  0  0  0  0  0  0  0  0  0  0  0
    9.0183   -3.5179    0.2783 H   0  0  0  0  0  0  0  0  0  0  0  0
    6.9709   -2.7668    1.4776 H   0  0  0  0  0  0  0  0  0  0  0  0
    6.7575   -1.4534    0.3517 H   0  0  0  0  0  0  0  0  0  0  0  0
    6.4958   -3.0584   -1.5267 H   0  0  0  0  0  0  0  0  0  0  0  0
    6.7239   -4.4039   -0.4524 H   0  0  0  0  0  0  0  0  0  0  0  0
    5.0142   -5.2072    0.9053 H   0  0  0  0  0  0  0  0  0  0  0  0
    4.9124   -3.8135    1.9735 H   0  0  0  0  0  0  0  0  0  0  0  0
    2.7423   -5.3888    1.3569 H   0  0  0  0  0  0  0  0  0  0  0  0
    2.5632   -3.6565    1.6309 H   0  0  0  0  0  0  0  0  0  0  0  0
    2.0918   -5.0160   -0.8951 H   0  0  0  0  0  0  0  0  0  0  0  0
    1.9682   -3.3086   -0.5181 H   0  0  0  0  0  0  0  0  0  0  0  0
    4.4030   -4.8004   -1.5559 H   0  0  0  0  0  0  0  0  0  0  0  0
    2.1930    0.4137   -3.1441 H   0  0  0  0  0  0  0  0  0  0  0  0
    1.2193   -0.5891   -5.1543 H   0  0  0  0  0  0  0  0  0  0  0  0
    2.6643   -0.1254   -6.0710 H   0  0  0  0  0  0  0  0  0  0  0  0
    1.6126    1.1103   -5.3885 H   0  0  0  0  0  0  0  0  0  0  0  0
    4.5515    1.2638   -3.2017 H   0  0  0  0  0  0  0  0  0  0  0  0
    3.5624    2.1403   -4.3541 H   0  0  0  0  0  0  0  0  0  0  0  0
    4.6302    0.8796   -4.9444 H   0  0  0  0  0  0  0  0  0  0  0  0
    4.5835   -2.4363    0.0614 H   0  0  0  0  0  0  0  0  0  0  0  0
  1  2  1  0
  1 18  1  0
  1 19  1  0
  1 20  1  0
  2  3  1  0
  2 21  1  0
  2 22  1  0
  3  4  1  0
  3 23  1  0
  3 24  1  0
  4  8  1  0
  4  5  1  0
  4 39  1  1
  5  6  1  0
  5 25  1  0
  5 26  1  0
  6  7  1  0
  6 27  1  0
  6 28  1  0
  7  8  1  0
  7 29  1  0
  7 30  1  0
  8 31  1  6
  8  9  1  0
  9 10  2  0
  9 16  1  0
 10 11  1  0
 11 12  2  0
 12 16  1  0
 12 13  1  0
 13 14  1  0
 13 15  1  0
 13 32  1  0
 14 33  1  0
 14 34  1  0
 14 35  1  0
 15 36  1  0
 15 37  1  0
 15 38  1  0
 16 17  1  0
M  CHG  1   4   1
M  END
>  <i_m_ct_stereo_status>  (232) 
1

>  <s_m_source_file>  (232) 
/var/tmp/pbs.5076255.sched01/tmp7zsp0c9b/86_oh4d05k.sdf

>  <i_m_source_file_index>  (232) 
9

>  <i_lp_mmshare_version>  (232) 
48012

>  <i_f3d_flags>  (232) 
0

>  <s_epik_input>  (232) 
W0NIM11bQ0gyXVtDSDJdTjFbQ0gyXVtDSDJdW0NIMl1bQ0BIXTFjMm5bbkhdYyhuMilbQ0hdKFtDSDNdKVtDSDNd

>  <s_epik_cmdline>  (232) 
J2VwaWtfcHl0aG9uJywgJy1waHQnLCAnMi4wJywgJy1waCcsICc3LjAnLCAnLXRuJywgJzgnLCAnLW1hJywgJzIwMCcsICctaW1hZScsICc8aW5maWxlLm1hZT4nLCAnLW9tYWUnLCAnPG91dGZpbGUubWFlPic=

>  <r_lp_tautomer_probability>  (232) 
0.0517155

>  <r_epik_Ionization_Penalty>  (232) 
0.17246

>  <r_epik_Ionization_Penalty_Charging>  (232) 
0.0894312

>  <r_epik_Ionization_Penalty_Neutral>  (232) 
0.0830289

>  <r_epik_State_Penalty>  (232) 
2.01105

>  <r_epik_Charging_Adjusted_Penalty>  (232) 
2.10048

>  <i_epik_Tot_Q>  (232) 
1

>  <i_epik_Tot_abs_Q>  (232) 
1

>  <s_lp_Force_Field>  (232) 
OPLS3e

>  <r_lp_Energy>  (232) 
14.5625

>  <b_lp_Chiralities_Consistent>  (232) 
1

>  <s_lp_Variant>  (232) 
64:0-5

>  <s_i_glide_gridfile>  (232) 
pfpi4k_grid

>  <i_i_glide_lignum>  (232) 
9

>  <i_i_glide_rotatable_bonds>  (232) 
4

>  <r_i_docking_score>  (232) 
-4.08595

>  <r_i_glide_ligand_efficiency>  (232) 
-0.255372

>  <r_i_glide_ligand_efficiency_sa>  (232) 
-0.643496

>  <r_i_glide_ligand_efficiency_ln>  (232) 
-1.08306

>  <r_i_glide_gscore>  (232) 
-4.08595

>  <r_i_glide_lipo>  (232) 
-0.272139

>  <r_i_glide_hbond>  (232) 
-0.104367

>  <r_i_glide_metal>  (232) 
-0

>  <r_i_glide_rewards>  (232) 
-2.15424

>  <r_i_glide_evdw>  (232) 
-14.8656

>  <r_i_glide_ecoul>  (232) 
-9.01182

>  <r_i_glide_erotb>  (232) 
0.678543

>  <r_i_glide_esite>  (232) 
-0.138696

>  <r_i_glide_emodel>  (232) 
-30.8386

>  <r_i_glide_energy>  (232) 
-23.8774

>  <r_i_glide_einternal>  (232) 
1.93178

>  <r_i_glide_intrahb_reward>  (232) 
-0

>  <i_i_glide_confnum>  (232) 
3

>  <i_i_glide_posenum>  (232) 
28

>  <r_i_glide_eff_state_penalty>  (232) 
0

>  <ligand_id>  (232) 
64

>  <original_smiles>  (232) 
CCCN1CCCC1c1n[nH]c(C(C)C)n1

>  <smiles>  (232) 
[H]n1c(C([H])(C([H])([H])[H])C([H])([H])[H])nnc1C1([H])C([H])([H])C([H])([H])C([H])([H])[N+]1([H])C([H])([H])C([H])([H])C([H])([H])[H]

$$$$
64:4:1
     RDKit          3D

 39 40  0  0  1  0  0  0  0  0999 V2000
    4.8066   -2.1459   -0.0205 C   0  0  0  0  0  0  0  0  0  0  0  0
    3.3836   -2.7699    0.0714 C   0  0  0  0  0  0  0  0  0  0  0  0
    3.3203   -4.2953   -0.1853 C   0  0  0  0  0  0  0  0  0  0  0  0
    3.8508   -5.0970    0.9733 N   0  0  2  0  0  0  0  0  0  0  0  0
    5.3431   -5.0588    1.0660 C   0  0  0  0  0  0  0  0  0  0  0  0
    5.7232   -6.2155    1.9907 C   0  0  0  0  0  0  0  0  0  0  0  0
    4.5436   -7.1788    1.9712 C   0  0  0  0  0  0  0  0  0  0  0  0
    3.5155   -6.5507    0.9827 C   0  0  1  0  0  0  0  0  0  0  0  0
    2.0568   -6.7925    1.3469 C   0  0  0  0  0  0  0  0  0  0  0  0
    0.9948   -6.2574    0.7128 N   0  0  0  0  0  0  0  0  0  0  0  0
   -0.1308   -6.7545    1.3226 N   0  0  0  0  0  0  0  0  0  0  0  0
    0.3084   -7.6178    2.2428 C   0  0  0  0  0  0  0  0  0  0  0  0
   -0.5736   -8.4120    3.1454 C   0  0  0  0  0  0  0  0  0  0  0  0
   -1.5733   -9.2679    2.3490 C   0  0  0  0  0  0  0  0  0  0  0  0
   -1.2893   -7.5086    4.1626 C   0  0  0  0  0  0  0  0  0  0  0  0
    1.6499   -7.6437    2.2792 N   0  0  0  0  0  0  0  0  0  0  0  0
    2.2436   -8.2376    2.8846 H   0  0  0  0  0  0  0  0  0  0  0  0
    4.7099   -1.0429    0.0040 H   0  0  0  0  0  0  0  0  0  0  0  0
    5.2390   -2.4168   -1.0014 H   0  0  0  0  0  0  0  0  0  0  0  0
    5.4490   -2.4591    0.7639 H   0  0  0  0  0  0  0  0  0  0  0  0
    2.9389   -2.5495    1.0442 H   0  0  0  0  0  0  0  0  0  0  0  0
    2.7248   -2.3130   -0.6459 H   0  0  0  0  0  0  0  0  0  0  0  0
    2.2619   -4.4847   -0.3850 H   0  0  0  0  0  0  0  0  0  0  0  0
    3.8131   -4.5841   -1.1150 H   0  0  0  0  0  0  0  0  0  0  0  0
    5.7380   -5.2861    0.0677 H   0  0  0  0  0  0  0  0  0  0  0  0
    5.7822   -4.1736    1.4481 H   0  0  0  0  0  0  0  0  0  0  0  0
    6.6792   -6.6460    1.7094 H   0  0  0  0  0  0  0  0  0  0  0  0
    5.8279   -5.7715    2.9778 H   0  0  0  0  0  0  0  0  0  0  0  0
    4.8440   -8.1921    1.6653 H   0  0  0  0  0  0  0  0  0  0  0  0
    4.1468   -7.2029    2.9892 H   0  0  0  0  0  0  0  0  0  0  0  0
    3.7276   -6.9347   -0.0093 H   0  0  0  0  0  0  0  0  0  0  0  0
    0.0672   -9.1000    3.7079 H   0  0  0  0  0  0  0  0  0  0  0  0
   -1.0617   -9.9674    1.6902 H   0  0  0  0  0  0  0  0  0  0  0  0
   -2.2291   -8.6507    1.7362 H   0  0  0  0  0  0  0  0  0  0  0  0
   -2.1987   -9.8485    3.0211 H   0  0  0  0  0  0  0  0  0  0  0  0
   -0.5802   -6.9505    4.7723 H   0  0  0  0  0  0  0  0  0  0  0  0
   -1.8917   -8.1130    4.8331 H   0  0  0  0  0  0  0  0  0  0  0  0
   -1.9502   -6.7953    3.6701 H   0  0  0  0  0  0  0  0  0  0  0  0
    3.4878   -4.7243    1.8413 H   0  0  0  0  0  0  0  0  0  0  0  0
  1  2  1  0
  1 18  1  0
  1 19  1  0
  1 20  1  0
  2  3  1  0
  2 21  1  0
  2 22  1  0
  3  4  1  0
  3 23  1  0
  3 24  1  0
  4  8  1  0
  4  5  1  0
  4 39  1  1
  5  6  1  0
  5 25  1  0
  5 26  1  0
  6  7  1  0
  6 27  1  0
  6 28  1  0
  7  8  1  0
  7 29  1  0
  7 30  1  0
  8 31  1  6
  8  9  1  0
  9 10  2  0
  9 16  1  0
 10 11  1  0
 11 12  2  0
 12 16  1  0
 12 13  1  0
 13 14  1  0
 13 15  1  0
 13 32  1  0
 14 33  1  0
 14 34  1  0
 14 35  1  0
 15 36  1  0
 15 37  1  0
 15 38  1  0
 16 17  1  0
M  CHG  1   4   1
M  END
>  <i_m_ct_stereo_status>  (233) 
1

>  <s_m_source_file>  (233) 
/var/tmp/pbs.5076255.sched01/tmp7zsp0c9b/86_oh4d05k.sdf

>  <i_m_source_file_index>  (233) 
9

>  <i_lp_mmshare_version>  (233) 
48012

>  <i_f3d_flags>  (233) 
0

>  <s_epik_input>  (233) 
W0NIM11bQ0gyXVtDSDJdTjFbQ0gyXVtDSDJdW0NIMl1bQ0BIXTFjMm5bbkhdYyhuMilbQ0hdKFtDSDNdKVtDSDNd

>  <s_epik_cmdline>  (233) 
J2VwaWtfcHl0aG9uJywgJy1waHQnLCAnMi4wJywgJy1waCcsICc3LjAnLCAnLXRuJywgJzgnLCAnLW1hJywgJzIwMCcsICctaW1hZScsICc8aW5maWxlLm1hZT4nLCAnLW9tYWUnLCAnPG91dGZpbGUubWFlPic=

>  <r_lp_tautomer_probability>  (233) 
0.0517155

>  <r_epik_Ionization_Penalty>  (233) 
0.17246

>  <r_epik_Ionization_Penalty_Charging>  (233) 
0.0894312

>  <r_epik_Ionization_Penalty_Neutral>  (233) 
0.0830289

>  <r_epik_State_Penalty>  (233) 
2.01105

>  <r_epik_Charging_Adjusted_Penalty>  (233) 
2.10048

>  <i_epik_Tot_Q>  (233) 
1

>  <i_epik_Tot_abs_Q>  (233) 
1

>  <s_lp_Force_Field>  (233) 
OPLS3e

>  <r_lp_Energy>  (233) 
14.5625

>  <b_lp_Chiralities_Consistent>  (233) 
1

>  <s_lp_Variant>  (233) 
64:0-5

>  <s_i_glide_gridfile>  (233) 
pfpi4k_grid

>  <i_i_glide_lignum>  (233) 
9

>  <i_i_glide_rotatable_bonds>  (233) 
4

>  <r_i_docking_score>  (233) 
-4.03524

>  <r_i_glide_ligand_efficiency>  (233) 
-0.252202

>  <r_i_glide_ligand_efficiency_sa>  (233) 
-0.63551

>  <r_i_glide_ligand_efficiency_ln>  (233) 
-1.06962

>  <r_i_glide_gscore>  (233) 
-4.03524

>  <r_i_glide_lipo>  (233) 
-0.498263

>  <r_i_glide_hbond>  (233) 
0

>  <r_i_glide_metal>  (233) 
-0

>  <r_i_glide_rewards>  (233) 
-1.88633

>  <r_i_glide_evdw>  (233) 
-18.1317

>  <r_i_glide_ecoul>  (233) 
-7.46924

>  <r_i_glide_erotb>  (233) 
0.678543

>  <r_i_glide_esite>  (233) 
-0.302215

>  <r_i_glide_emodel>  (233) 
-30.4093

>  <r_i_glide_energy>  (233) 
-25.6009

>  <r_i_glide_einternal>  (233) 
5.32994

>  <r_i_glide_intrahb_reward>  (233) 
-0

>  <i_i_glide_confnum>  (233) 
1

>  <i_i_glide_posenum>  (233) 
3

>  <r_i_glide_eff_state_penalty>  (233) 
0

>  <ligand_id>  (233) 
64

>  <original_smiles>  (233) 
CCCN1CCCC1c1n[nH]c(C(C)C)n1

>  <smiles>  (233) 
[H]n1c(C([H])(C([H])([H])[H])C([H])([H])[H])nnc1C1([H])C([H])([H])C([H])([H])C([H])([H])[N+]1([H])C([H])([H])C([H])([H])C([H])([H])[H]

$$$$
64:4:2
     RDKit          3D

 39 40  0  0  1  0  0  0  0  0999 V2000
    4.0168   -5.3851   -0.0273 C   0  0  0  0  0  0  0  0  0  0  0  0
    5.1109   -4.3785   -0.3639 C   0  0  0  0  0  0  0  0  0  0  0  0
    5.1551   -4.0173   -1.8593 C   0  0  0  0  0  0  0  0  0  0  0  0
    4.0826   -3.0586   -2.2586 N   0  0  2  0  0  0  0  0  0  0  0  0
    3.6702   -3.2104   -3.6704 C   0  0  0  0  0  0  0  0  0  0  0  0
    2.8733   -1.9419   -3.9956 C   0  0  0  0  0  0  0  0  0  0  0  0
    3.3450   -0.8904   -2.9874 C   0  0  0  0  0  0  0  0  0  0  0  0
    4.4087   -1.6102   -2.1510 C   0  0  1  0  0  0  0  0  0  0  0  0
    4.4811   -1.2287   -0.6926 C   0  0  0  0  0  0  0  0  0  0  0  0
    5.6295   -0.9946   -0.0487 N   0  0  0  0  0  0  0  0  0  0  0  0
    5.2670   -0.6394    1.2366 N   0  0  0  0  0  0  0  0  0  0  0  0
    3.9297   -0.6562    1.2549 C   0  0  0  0  0  0  0  0  0  0  0  0
    3.0926   -0.2819    2.4526 C   0  0  0  0  0  0  0  0  0  0  0  0
    2.1546   -1.4188    2.8892 C   0  0  0  0  0  0  0  0  0  0  0  0
    2.3268    1.0395    2.2642 C   0  0  0  0  0  0  0  0  0  0  0  0
    3.4080   -1.0407    0.0857 N   0  0  0  0  0  0  0  0  0  0  0  0
    2.4204   -1.0622   -0.1661 H   0  0  0  0  0  0  0  0  0  0  0  0
    3.9936   -5.5595    1.0443 H   0  0  0  0  0  0  0  0  0  0  0  0
    4.1840   -6.3413   -0.5257 H   0  0  0  0  0  0  0  0  0  0  0  0
    3.0315   -5.0179   -0.3175 H   0  0  0  0  0  0  0  0  0  0  0  0
    4.9474   -3.5138    0.2688 H   0  0  0  0  0  0  0  0  0  0  0  0
    6.0833   -4.7844   -0.0747 H   0  0  0  0  0  0  0  0  0  0  0  0
    6.1390   -3.6390   -2.1496 H   0  0  0  0  0  0  0  0  0  0  0  0
    5.0275   -4.9417   -2.4317 H   0  0  0  0  0  0  0  0  0  0  0  0
    4.5684   -3.2452   -4.3032 H   0  0  0  0  0  0  0  0  0  0  0  0
    3.1032   -4.1283   -3.8668 H   0  0  0  0  0  0  0  0  0  0  0  0
    3.0363   -1.6091   -5.0155 H   0  0  0  0  0  0  0  0  0  0  0  0
    1.8132   -2.1599   -3.8689 H   0  0  0  0  0  0  0  0  0  0  0  0
    3.7424    0.0107   -3.4522 H   0  0  0  0  0  0  0  0  0  0  0  0
    2.4826   -0.5946   -2.3883 H   0  0  0  0  0  0  0  0  0  0  0  0
    5.3854   -1.4289   -2.6008 H   0  0  0  0  0  0  0  0  0  0  0  0
    3.7903   -0.1159    3.2735 H   0  0  0  0  0  0  0  0  0  0  0  0
    2.7236   -2.3190    3.1280 H   0  0  0  0  0  0  0  0  0  0  0  0
    1.4297   -1.6683    2.1076 H   0  0  0  0  0  0  0  0  0  0  0  0
    1.5923   -1.1383    3.7831 H   0  0  0  0  0  0  0  0  0  0  0  0
    3.0073    1.8702    2.0694 H   0  0  0  0  0  0  0  0  0  0  0  0
    1.7735    1.2974    3.1705 H   0  0  0  0  0  0  0  0  0  0  0  0
    1.6009    0.9877    1.4451 H   0  0  0  0  0  0  0  0  0  0  0  0
    3.2534   -3.2520   -1.7092 H   0  0  0  0  0  0  0  0  0  0  0  0
  1  2  1  0
  1 18  1  0
  1 19  1  0
  1 20  1  0
  2  3  1  0
  2 21  1  0
  2 22  1  0
  3  4  1  0
  3 23  1  0
  3 24  1  0
  4  8  1  0
  4  5  1  0
  4 39  1  1
  5  6  1  0
  5 25  1  0
  5 26  1  0
  6  7  1  0
  6 27  1  0
  6 28  1  0
  7  8  1  0
  7 29  1  0
  7 30  1  0
  8 31  1  6
  8  9  1  0
  9 10  2  0
  9 16  1  0
 10 11  1  0
 11 12  2  0
 12 16  1  0
 12 13  1  0
 13 14  1  0
 13 15  1  0
 13 32  1  0
 14 33  1  0
 14 34  1  0
 14 35  1  0
 15 36  1  0
 15 37  1  0
 15 38  1  0
 16 17  1  0
M  CHG  1   4   1
M  END
>  <i_m_ct_stereo_status>  (234) 
1

>  <s_m_source_file>  (234) 
/var/tmp/pbs.5076255.sched01/tmp7zsp0c9b/86_oh4d05k.sdf

>  <i_m_source_file_index>  (234) 
9

>  <i_lp_mmshare_version>  (234) 
48012

>  <i_f3d_flags>  (234) 
0

>  <s_epik_input>  (234) 
W0NIM11bQ0gyXVtDSDJdTjFbQ0gyXVtDSDJdW0NIMl1bQ0BIXTFjMm5bbkhdYyhuMilbQ0hdKFtDSDNdKVtDSDNd

>  <s_epik_cmdline>  (234) 
J2VwaWtfcHl0aG9uJywgJy1waHQnLCAnMi4wJywgJy1waCcsICc3LjAnLCAnLXRuJywgJzgnLCAnLW1hJywgJzIwMCcsICctaW1hZScsICc8aW5maWxlLm1hZT4nLCAnLW9tYWUnLCAnPG91dGZpbGUubWFlPic=

>  <r_lp_tautomer_probability>  (234) 
0.0517155

>  <r_epik_Ionization_Penalty>  (234) 
0.17246

>  <r_epik_Ionization_Penalty_Charging>  (234) 
0.0894312

>  <r_epik_Ionization_Penalty_Neutral>  (234) 
0.0830289

>  <r_epik_State_Penalty>  (234) 
2.01105

>  <r_epik_Charging_Adjusted_Penalty>  (234) 
2.10048

>  <i_epik_Tot_Q>  (234) 
1

>  <i_epik_Tot_abs_Q>  (234) 
1

>  <s_lp_Force_Field>  (234) 
OPLS3e

>  <r_lp_Energy>  (234) 
14.5625

>  <b_lp_Chiralities_Consistent>  (234) 
1

>  <s_lp_Variant>  (234) 
64:0-5

>  <s_i_glide_gridfile>  (234) 
pfpi4k_grid

>  <i_i_glide_lignum>  (234) 
9

>  <i_i_glide_rotatable_bonds>  (234) 
4

>  <r_i_docking_score>  (234) 
-3.92557

>  <r_i_glide_ligand_efficiency>  (234) 
-0.245348

>  <r_i_glide_ligand_efficiency_sa>  (234) 
-0.618239

>  <r_i_glide_ligand_efficiency_ln>  (234) 
-1.04055

>  <r_i_glide_gscore>  (234) 
-3.92557

>  <r_i_glide_lipo>  (234) 
-0.349883

>  <r_i_glide_hbond>  (234) 
-0.16

>  <r_i_glide_metal>  (234) 
-0

>  <r_i_glide_rewards>  (234) 
-1.92764

>  <r_i_glide_evdw>  (234) 
-20.5403

>  <r_i_glide_ecoul>  (234) 
-6.66221

>  <r_i_glide_erotb>  (234) 
0.678543

>  <r_i_glide_esite>  (234) 
-0.140248

>  <r_i_glide_emodel>  (234) 
-31.0751

>  <r_i_glide_energy>  (234) 
-27.2026

>  <r_i_glide_einternal>  (234) 
7.6496

>  <r_i_glide_intrahb_reward>  (234) 
-0

>  <i_i_glide_confnum>  (234) 
5

>  <i_i_glide_posenum>  (234) 
34

>  <r_i_glide_eff_state_penalty>  (234) 
0

>  <ligand_id>  (234) 
64

>  <original_smiles>  (234) 
CCCN1CCCC1c1n[nH]c(C(C)C)n1

>  <smiles>  (234) 
[H]n1c(C([H])(C([H])([H])[H])C([H])([H])[H])nnc1C1([H])C([H])([H])C([H])([H])C([H])([H])[N+]1([H])C([H])([H])C([H])([H])C([H])([H])[H]

$$$$
65:0:0
     RDKit          3D

 29 31  0  0  1  0  0  0  0  0999 V2000
    3.6162   -1.3590   -2.5542 C   0  0  0  0  0  0  0  0  0  0  0  0
    4.1897   -2.1692   -1.3774 C   0  0  2  0  0  0  0  0  0  0  0  0
    5.6526   -2.5926   -1.6764 C   0  0  0  0  0  0  0  0  0  0  0  0
    6.3202   -3.3505   -0.5127 C   0  0  0  0  0  0  0  0  0  0  0  0
    5.3543   -4.3032    0.0891 C   0  0  0  0  0  0  0  0  0  0  0  0
    5.7969   -5.2368    0.9558 O   0  0  0  0  0  0  0  0  0  0  0  0
    4.6757   -5.9551    1.3868 N   0  0  0  0  0  0  0  0  0  0  0  0
    3.6062   -5.4381    0.7718 C   0  0  0  0  0  0  0  0  0  0  0  0
    2.1764   -5.9128    0.9054 C   0  0  0  0  0  0  0  0  0  0  0  0
    1.3810   -5.7303   -0.0289 O   0  0  0  0  0  0  0  0  0  0  0  0
    1.9089   -6.5207    2.0955 N   0  0  0  0  0  0  0  0  0  0  0  0
    0.8353   -7.3189    2.2990 C   0  0  0  0  0  0  0  0  0  0  0  0
   -0.4325   -6.8806    2.1682 N   0  0  0  0  0  0  0  0  0  0  0  0
   -1.3893   -7.8352    2.4924 N   0  0  0  0  0  0  0  0  0  0  0  0
   -0.8274   -8.9843    2.8791 C   0  0  0  0  0  0  0  0  0  0  0  0
    0.9313   -9.0013    2.8753 S   0  0  0  0  0  0  0  0  0  0  0  0
    4.0126   -4.3434   -0.0666 C   0  0  0  0  0  0  0  0  0  0  0  0
    3.2751   -3.3741   -0.9762 C   0  0  0  0  0  0  0  0  0  0  0  0
    3.5665   -1.9551   -3.4635 H   0  0  0  0  0  0  0  0  0  0  0  0
    4.2188   -0.4750   -2.7659 H   0  0  0  0  0  0  0  0  0  0  0  0
    2.6118   -1.0090   -2.3264 H   0  0  0  0  0  0  0  0  0  0  0  0
    4.2382   -1.5023   -0.5138 H   0  0  0  0  0  0  0  0  0  0  0  0
    5.6383   -3.2391   -2.5547 H   0  0  0  0  0  0  0  0  0  0  0  0
    6.2605   -1.7290   -1.9468 H   0  0  0  0  0  0  0  0  0  0  0  0
    7.2239   -3.8526   -0.8524 H   0  0  0  0  0  0  0  0  0  0  0  0
    6.6221   -2.6381    0.2522 H   0  0  0  0  0  0  0  0  0  0  0  0
   -1.4579   -9.8169    3.1715 H   0  0  0  0  0  0  0  0  0  0  0  0
    2.3456   -3.0063   -0.5382 H   0  0  0  0  0  0  0  0  0  0  0  0
    2.9869   -3.8737   -1.8977 H   0  0  0  0  0  0  0  0  0  0  0  0
  1  2  1  0
  1 19  1  0
  1 20  1  0
  1 21  1  0
  2 18  1  0
  2  3  1  0
  2 22  1  1
  3  4  1  0
  3 23  1  0
  3 24  1  0
  4  5  1  0
  4 25  1  0
  4 26  1  0
  5 17  2  0
  5  6  1  0
  6  7  1  0
  7  8  2  0
  8  9  1  0
  8 17  1  0
  9 10  2  0
  9 11  1  0
 11 12  1  0
 12 16  1  0
 12 13  2  0
 13 14  1  0
 14 15  2  0
 15 16  1  0
 15 27  1  0
 17 18  1  0
 18 28  1  0
 18 29  1  0
M  CHG  1  11  -1
M  END
>  <i_m_ct_stereo_status>  (235) 
1

>  <s_m_source_file>  (235) 
/var/tmp/pbs.5076255.sched01/tmp7zsp0c9b/86_oh4d05k.sdf

>  <i_m_source_file_index>  (235) 
10

>  <i_lp_mmshare_version>  (235) 
48012

>  <i_f3d_flags>  (235) 
0

>  <s_epik_input>  (235) 
W0NIMl0xW0NIMl1bQ0BASF0oW0NIM10pW0NIMl1jKGMxMiljKG5vMilDKD1PKS9OPWMzXFtuSF1uW2NIXXMz

>  <s_epik_cmdline>  (235) 
J2VwaWtfcHl0aG9uJywgJy1waHQnLCAnMi4wJywgJy1waCcsICc3LjAnLCAnLXRuJywgJzgnLCAnLW1hJywgJzIwMCcsICctaW1hZScsICc8aW5maWxlLm1hZT4nLCAnLW9tYWUnLCAnPG91dGZpbGUubWFlPic=

>  <r_epik_Ionization_Penalty>  (235) 
0.0585308

>  <r_epik_Ionization_Penalty_Charging>  (235) 
0.0574693

>  <r_epik_Ionization_Penalty_Neutral>  (235) 
0.00106141

>  <r_epik_State_Penalty>  (235) 
0.049637

>  <r_epik_Charging_Adjusted_Penalty>  (235) 
0.107106

>  <i_epik_Tot_Q>  (235) 
-1

>  <i_epik_Tot_abs_Q>  (235) 
1

>  <s_lp_Force_Field>  (235) 
OPLS3e

>  <r_lp_Energy>  (235) 
26.2824

>  <b_lp_Chiralities_Consistent>  (235) 
1

>  <s_lp_Variant>  (235) 
65:0-1

>  <s_i_glide_gridfile>  (235) 
pfpi4k_grid

>  <i_i_glide_lignum>  (235) 
10

>  <i_i_glide_rotatable_bonds>  (235) 
3

>  <r_i_docking_score>  (235) 
-3.52487

>  <r_i_glide_ligand_efficiency>  (235) 
-0.195826

>  <r_i_glide_ligand_efficiency_sa>  (235) 
-0.513209

>  <r_i_glide_ligand_efficiency_ln>  (235) 
-0.906049

>  <r_i_glide_gscore>  (235) 
-3.52487

>  <r_i_glide_lipo>  (235) 
-0.246305

>  <r_i_glide_hbond>  (235) 
-0.266376

>  <r_i_glide_metal>  (235) 
-0

>  <r_i_glide_rewards>  (235) 
-1.61389

>  <r_i_glide_evdw>  (235) 
-26.6723

>  <r_i_glide_ecoul>  (235) 
-4.33522

>  <r_i_glide_erotb>  (235) 
0.768388

>  <r_i_glide_esite>  (235) 
-0.182792

>  <r_i_glide_emodel>  (235) 
-38.5225

>  <r_i_glide_energy>  (235) 
-31.0075

>  <r_i_glide_einternal>  (235) 
1.18825

>  <r_i_glide_intrahb_reward>  (235) 
-0

>  <i_i_glide_confnum>  (235) 
4

>  <i_i_glide_posenum>  (235) 
20

>  <r_i_glide_eff_state_penalty>  (235) 
0

>  <ligand_id>  (235) 
65

>  <original_smiles>  (235) 
CC1CCc2onc(C(=O)N=c3[nH]ncs3)c2C1

>  <smiles>  (235) 
[H]c1nnc([N-]C(=O)c2noc3c2C([H])([H])C([H])(C([H])([H])[H])C([H])([H])C3([H])[H])s1

$$$$
65:0:1
     RDKit          3D

 29 31  0  0  1  0  0  0  0  0999 V2000
    3.2803   -1.5844   -3.6901 C   0  0  0  0  0  0  0  0  0  0  0  0
    3.5628   -1.7414   -2.1865 C   0  0  2  0  0  0  0  0  0  0  0  0
    5.0660   -1.5064   -1.8911 C   0  0  0  0  0  0  0  0  0  0  0  0
    5.4167   -1.5880   -0.3913 C   0  0  0  0  0  0  0  0  0  0  0  0
    4.6771   -2.7050    0.2405 C   0  0  0  0  0  0  0  0  0  0  0  0
    5.0200   -3.1009    1.4830 O   0  0  0  0  0  0  0  0  0  0  0  0
    4.1628   -4.1521    1.8229 N   0  0  0  0  0  0  0  0  0  0  0  0
    3.3281   -4.3427    0.7925 C   0  0  0  0  0  0  0  0  0  0  0  0
    2.1985   -5.3478    0.7245 C   0  0  0  0  0  0  0  0  0  0  0  0
    1.5208   -5.4626   -0.3111 O   0  0  0  0  0  0  0  0  0  0  0  0
    1.9604   -5.9727    1.9121 N   0  0  0  0  0  0  0  0  0  0  0  0
    1.0534   -6.9627    2.0476 C   0  0  0  0  0  0  0  0  0  0  0  0
   -0.2695   -6.7255    1.9672 N   0  0  0  0  0  0  0  0  0  0  0  0
   -1.0498   -7.8475    2.2127 N   0  0  0  0  0  0  0  0  0  0  0  0
   -0.2996   -8.9176    2.4865 C   0  0  0  0  0  0  0  0  0  0  0  0
    1.4382   -8.6472    2.4702 S   0  0  0  0  0  0  0  0  0  0  0  0
    3.6275   -3.3989   -0.2512 C   0  0  0  0  0  0  0  0  0  0  0  0
    3.0357   -3.0986   -1.6193 C   0  0  0  0  0  0  0  0  0  0  0  0
    3.8143   -2.3299   -4.2777 H   0  0  0  0  0  0  0  0  0  0  0  0
    3.5752   -0.5974   -4.0528 H   0  0  0  0  0  0  0  0  0  0  0  0
    2.2199   -1.6993   -3.9007 H   0  0  0  0  0  0  0  0  0  0  0  0
    3.0218   -0.9492   -1.6669 H   0  0  0  0  0  0  0  0  0  0  0  0
    5.6282   -2.2747   -2.4237 H   0  0  0  0  0  0  0  0  0  0  0  0
    5.4011   -0.5490   -2.2963 H   0  0  0  0  0  0  0  0  0  0  0  0
    6.4884   -1.7083   -0.2466 H   0  0  0  0  0  0  0  0  0  0  0  0
    5.1218   -0.6579    0.0934 H   0  0  0  0  0  0  0  0  0  0  0  0
   -0.7826   -9.8660    2.6948 H   0  0  0  0  0  0  0  0  0  0  0  0
    1.9440   -3.0989   -1.6233 H   0  0  0  0  0  0  0  0  0  0  0  0
    3.3391   -3.8654   -2.3190 H   0  0  0  0  0  0  0  0  0  0  0  0
  1  2  1  0
  1 19  1  0
  1 20  1  0
  1 21  1  0
  2 18  1  0
  2  3  1  0
  2 22  1  1
  3  4  1  0
  3 23  1  0
  3 24  1  0
  4  5  1  0
  4 25  1  0
  4 26  1  0
  5 17  2  0
  5  6  1  0
  6  7  1  0
  7  8  2  0
  8  9  1  0
  8 17  1  0
  9 10  2  0
  9 11  1  0
 11 12  1  0
 12 16  1  0
 12 13  2  0
 13 14  1  0
 14 15  2  0
 15 16  1  0
 15 27  1  0
 17 18  1  0
 18 28  1  0
 18 29  1  0
M  CHG  1  11  -1
M  END
>  <i_m_ct_stereo_status>  (236) 
1

>  <s_m_source_file>  (236) 
/var/tmp/pbs.5076255.sched01/tmp7zsp0c9b/86_oh4d05k.sdf

>  <i_m_source_file_index>  (236) 
10

>  <i_lp_mmshare_version>  (236) 
48012

>  <i_f3d_flags>  (236) 
0

>  <s_epik_input>  (236) 
W0NIMl0xW0NIMl1bQ0BASF0oW0NIM10pW0NIMl1jKGMxMiljKG5vMilDKD1PKS9OPWMzXFtuSF1uW2NIXXMz

>  <s_epik_cmdline>  (236) 
J2VwaWtfcHl0aG9uJywgJy1waHQnLCAnMi4wJywgJy1waCcsICc3LjAnLCAnLXRuJywgJzgnLCAnLW1hJywgJzIwMCcsICctaW1hZScsICc8aW5maWxlLm1hZT4nLCAnLW9tYWUnLCAnPG91dGZpbGUubWFlPic=

>  <r_epik_Ionization_Penalty>  (236) 
0.0585308

>  <r_epik_Ionization_Penalty_Charging>  (236) 
0.0574693

>  <r_epik_Ionization_Penalty_Neutral>  (236) 
0.00106141

>  <r_epik_State_Penalty>  (236) 
0.049637

>  <r_epik_Charging_Adjusted_Penalty>  (236) 
0.107106

>  <i_epik_Tot_Q>  (236) 
-1

>  <i_epik_Tot_abs_Q>  (236) 
1

>  <s_lp_Force_Field>  (236) 
OPLS3e

>  <r_lp_Energy>  (236) 
26.2824

>  <b_lp_Chiralities_Consistent>  (236) 
1

>  <s_lp_Variant>  (236) 
65:0-1

>  <s_i_glide_gridfile>  (236) 
pfpi4k_grid

>  <i_i_glide_lignum>  (236) 
10

>  <i_i_glide_rotatable_bonds>  (236) 
3

>  <r_i_docking_score>  (236) 
-3.379

>  <r_i_glide_ligand_efficiency>  (236) 
-0.187722

>  <r_i_glide_ligand_efficiency_sa>  (236) 
-0.491971

>  <r_i_glide_ligand_efficiency_ln>  (236) 
-0.868554

>  <r_i_glide_gscore>  (236) 
-3.379

>  <r_i_glide_lipo>  (236) 
-0.289075

>  <r_i_glide_hbond>  (236) 
-0.210915

>  <r_i_glide_metal>  (236) 
-0

>  <r_i_glide_rewards>  (236) 
-1.61389

>  <r_i_glide_evdw>  (236) 
-25.7102

>  <r_i_glide_ecoul>  (236) 
-3.51359

>  <r_i_glide_erotb>  (236) 
0.768388

>  <r_i_glide_esite>  (236) 
-0.220961

>  <r_i_glide_emodel>  (236) 
-36.3738

>  <r_i_glide_energy>  (236) 
-29.2238

>  <r_i_glide_einternal>  (236) 
0.478068

>  <r_i_glide_intrahb_reward>  (236) 
-0

>  <i_i_glide_confnum>  (236) 
4

>  <i_i_glide_posenum>  (236) 
38

>  <r_i_glide_eff_state_penalty>  (236) 
0

>  <ligand_id>  (236) 
65

>  <original_smiles>  (236) 
CC1CCc2onc(C(=O)N=c3[nH]ncs3)c2C1

>  <smiles>  (236) 
[H]c1nnc([N-]C(=O)c2noc3c2C([H])([H])C([H])(C([H])([H])[H])C([H])([H])C3([H])[H])s1

$$$$
65:0:2
     RDKit          3D

 29 31  0  0  1  0  0  0  0  0999 V2000
    3.8587   -2.2355   -2.8465 C   0  0  0  0  0  0  0  0  0  0  0  0
    3.7886   -2.2361   -1.3047 C   0  0  2  0  0  0  0  0  0  0  0  0
    5.1824   -1.9176   -0.6953 C   0  0  0  0  0  0  0  0  0  0  0  0
    5.1750   -1.8393    0.8453 C   0  0  0  0  0  0  0  0  0  0  0  0
    4.3140   -2.9119    1.4000 C   0  0  0  0  0  0  0  0  0  0  0  0
    4.3601   -3.1663    2.7212 O   0  0  0  0  0  0  0  0  0  0  0  0
    3.4495   -4.2034    2.9660 N   0  0  0  0  0  0  0  0  0  0  0  0
    2.8827   -4.5331    1.7965 C   0  0  0  0  0  0  0  0  0  0  0  0
    1.8144   -5.5817    1.5605 C   0  0  0  0  0  0  0  0  0  0  0  0
    1.4811   -5.8859    0.3971 O   0  0  0  0  0  0  0  0  0  0  0  0
    1.2252   -6.0293    2.7054 N   0  0  0  0  0  0  0  0  0  0  0  0
    0.4471   -7.1340    2.7092 C   0  0  0  0  0  0  0  0  0  0  0  0
   -0.8705   -7.0588    2.4470 N   0  0  0  0  0  0  0  0  0  0  0  0
   -1.5345   -8.2621    2.5186 N   0  0  0  0  0  0  0  0  0  0  0  0
   -0.7074   -9.2467    2.8789 C   0  0  0  0  0  0  0  0  0  0  0  0
    0.9684   -8.7780    3.1500 S   0  0  0  0  0  0  0  0  0  0  0  0
    3.4092   -3.6818    0.7621 C   0  0  0  0  0  0  0  0  0  0  0  0
    3.1548   -3.5466   -0.7296 C   0  0  0  0  0  0  0  0  0  0  0  0
    4.5251   -3.0148   -3.2135 H   0  0  0  0  0  0  0  0  0  0  0  0
    4.2274   -1.2815   -3.2297 H   0  0  0  0  0  0  0  0  0  0  0  0
    2.8746   -2.3993   -3.2826 H   0  0  0  0  0  0  0  0  0  0  0  0
    3.1384   -1.4095   -1.0084 H   0  0  0  0  0  0  0  0  0  0  0  0
    5.8613   -2.7141   -1.0009 H   0  0  0  0  0  0  0  0  0  0  0  0
    5.5933   -0.9920   -1.1087 H   0  0  0  0  0  0  0  0  0  0  0  0
    6.1845   -1.9048    1.2451 H   0  0  0  0  0  0  0  0  0  0  0  0
    4.7644   -0.8778    1.1460 H   0  0  0  0  0  0  0  0  0  0  0  0
   -1.1056  -10.2459    2.9996 H   0  0  0  0  0  0  0  0  0  0  0  0
    2.0977   -3.5908   -0.9998 H   0  0  0  0  0  0  0  0  0  0  0  0
    3.6363   -4.3711   -1.2452 H   0  0  0  0  0  0  0  0  0  0  0  0
  1  2  1  0
  1 19  1  0
  1 20  1  0
  1 21  1  0
  2 18  1  0
  2  3  1  0
  2 22  1  6
  3  4  1  0
  3 23  1  0
  3 24  1  0
  4  5  1  0
  4 25  1  0
  4 26  1  0
  5 17  2  0
  5  6  1  0
  6  7  1  0
  7  8  2  0
  8  9  1  0
  8 17  1  0
  9 10  2  0
  9 11  1  0
 11 12  1  0
 12 16  1  0
 12 13  2  0
 13 14  1  0
 14 15  2  0
 15 16  1  0
 15 27  1  0
 17 18  1  0
 18 28  1  0
 18 29  1  0
M  CHG  1  11  -1
M  END
>  <i_m_ct_stereo_status>  (237) 
1

>  <s_m_source_file>  (237) 
/var/tmp/pbs.5076255.sched01/tmp7zsp0c9b/86_oh4d05k.sdf

>  <i_m_source_file_index>  (237) 
10

>  <i_lp_mmshare_version>  (237) 
48012

>  <i_f3d_flags>  (237) 
0

>  <s_epik_input>  (237) 
W0NIMl0xW0NIMl1bQ0BASF0oW0NIM10pW0NIMl1jKGMxMiljKG5vMilDKD1PKS9OPWMzXFtuSF1uW2NIXXMz

>  <s_epik_cmdline>  (237) 
J2VwaWtfcHl0aG9uJywgJy1waHQnLCAnMi4wJywgJy1waCcsICc3LjAnLCAnLXRuJywgJzgnLCAnLW1hJywgJzIwMCcsICctaW1hZScsICc8aW5maWxlLm1hZT4nLCAnLW9tYWUnLCAnPG91dGZpbGUubWFlPic=

>  <r_epik_Ionization_Penalty>  (237) 
0.0585308

>  <r_epik_Ionization_Penalty_Charging>  (237) 
0.0574693

>  <r_epik_Ionization_Penalty_Neutral>  (237) 
0.00106141

>  <r_epik_State_Penalty>  (237) 
0.049637

>  <r_epik_Charging_Adjusted_Penalty>  (237) 
0.107106

>  <i_epik_Tot_Q>  (237) 
-1

>  <i_epik_Tot_abs_Q>  (237) 
1

>  <s_lp_Force_Field>  (237) 
OPLS3e

>  <r_lp_Energy>  (237) 
26.2824

>  <b_lp_Chiralities_Consistent>  (237) 
1

>  <s_lp_Variant>  (237) 
65:0-1

>  <s_i_glide_gridfile>  (237) 
pfpi4k_grid

>  <i_i_glide_lignum>  (237) 
10

>  <i_i_glide_rotatable_bonds>  (237) 
3

>  <r_i_docking_score>  (237) 
-3.04494

>  <r_i_glide_ligand_efficiency>  (237) 
-0.169163

>  <r_i_glide_ligand_efficiency_sa>  (237) 
-0.443334

>  <r_i_glide_ligand_efficiency_ln>  (237) 
-0.782687

>  <r_i_glide_gscore>  (237) 
-3.04494

>  <r_i_glide_lipo>  (237) 
-0.181356

>  <r_i_glide_hbond>  (237) 
-0.153062

>  <r_i_glide_metal>  (237) 
-0

>  <r_i_glide_rewards>  (237) 
-1.61389

>  <r_i_glide_evdw>  (237) 
-23.9175

>  <r_i_glide_ecoul>  (237) 
-3.39575

>  <r_i_glide_erotb>  (237) 
0.768388

>  <r_i_glide_esite>  (237) 
-0.159787

>  <r_i_glide_emodel>  (237) 
-34.063

>  <r_i_glide_energy>  (237) 
-27.3133

>  <r_i_glide_einternal>  (237) 
0.0885112

>  <r_i_glide_intrahb_reward>  (237) 
-0

>  <i_i_glide_confnum>  (237) 
1

>  <i_i_glide_posenum>  (237) 
29

>  <r_i_glide_eff_state_penalty>  (237) 
0

>  <ligand_id>  (237) 
65

>  <original_smiles>  (237) 
CC1CCc2onc(C(=O)N=c3[nH]ncs3)c2C1

>  <smiles>  (237) 
[H]c1nnc([N-]C(=O)c2noc3c2C([H])([H])C([H])(C([H])([H])[H])C([H])([H])C3([H])[H])s1

$$$$
65:1:0
     RDKit          3D

 30 32  0  0  1  0  0  0  0  0999 V2000
    3.8528   -2.9001   -3.4606 C   0  0  0  0  0  0  0  0  0  0  0  0
    3.5310   -2.3354   -2.0675 C   0  0  2  0  0  0  0  0  0  0  0  0
    4.6416   -1.3511   -1.6029 C   0  0  0  0  0  0  0  0  0  0  0  0
    5.9877   -2.0476   -1.3338 C   0  0  0  0  0  0  0  0  0  0  0  0
    5.7432   -3.3129   -0.6332 C   0  0  0  0  0  0  0  0  0  0  0  0
    6.7952   -3.9876   -0.1089 O   0  0  0  0  0  0  0  0  0  0  0  0
    6.2808   -5.1401    0.4814 N   0  0  0  0  0  0  0  0  0  0  0  0
    4.9683   -5.1087    0.2704 C   0  0  0  0  0  0  0  0  0  0  0  0
    4.0427   -6.2029    0.7200 C   0  0  0  0  0  0  0  0  0  0  0  0
    4.4405   -7.3683    0.7687 O   0  0  0  0  0  0  0  0  0  0  0  0
    2.8156   -5.8381    1.0960 N   0  0  0  0  0  0  0  0  0  0  0  0
    1.8148   -6.6951    1.6125 C   0  0  0  0  0  0  0  0  0  0  0  0
    0.5413   -6.3138    1.5115 N   0  0  0  0  0  0  0  0  0  0  0  0
   -0.3381   -7.2703    2.0239 N   0  0  0  0  0  0  0  0  0  0  0  0
    0.3079   -8.3442    2.4991 C   0  0  0  0  0  0  0  0  0  0  0  0
    2.0605   -8.2528    2.4040 S   0  0  0  0  0  0  0  0  0  0  0  0
    4.5702   -3.9671   -0.4742 C   0  0  0  0  0  0  0  0  0  0  0  0
    3.2495   -3.4595   -1.0281 C   0  0  0  0  0  0  0  0  0  0  0  0
    4.7673   -3.4876   -3.4456 H   0  0  0  0  0  0  0  0  0  0  0  0
    3.9881   -2.0906   -4.1704 H   0  0  0  0  0  0  0  0  0  0  0  0
    3.0565   -3.5450   -3.8226 H   0  0  0  0  0  0  0  0  0  0  0  0
    2.6055   -1.7710   -2.1504 H   0  0  0  0  0  0  0  0  0  0  0  0
    4.7752   -0.5393   -2.3117 H   0  0  0  0  0  0  0  0  0  0  0  0
    4.3031   -0.8877   -0.6755 H   0  0  0  0  0  0  0  0  0  0  0  0
    6.4845   -2.2706   -2.2770 H   0  0  0  0  0  0  0  0  0  0  0  0
    6.6566   -1.4388   -0.7328 H   0  0  0  0  0  0  0  0  0  0  0  0
   -0.2516   -9.1742    2.9199 H   0  0  0  0  0  0  0  0  0  0  0  0
    2.6377   -3.0664   -0.2097 H   0  0  0  0  0  0  0  0  0  0  0  0
    2.6439   -4.2574   -1.4682 H   0  0  0  0  0  0  0  0  0  0  0  0
    2.5549   -4.8695    0.9876 H   0  0  0  0  0  0  0  0  0  0  0  0
  1  2  1  0
  1 19  1  0
  1 20  1  0
  1 21  1  0
  2 18  1  0
  2  3  1  0
  2 22  1  6
  3  4  1  0
  3 23  1  0
  3 24  1  0
  4  5  1  0
  4 25  1  0
  4 26  1  0
  5 17  2  0
  5  6  1  0
  6  7  1  0
  7  8  2  0
  8  9  1  0
  8 17  1  0
  9 10  2  0
  9 11  1  0
 11 12  1  0
 11 30  1  0
 12 16  1  0
 12 13  2  0
 13 14  1  0
 14 15  2  0
 15 16  1  0
 15 27  1  0
 17 18  1  0
 18 28  1  0
 18 29  1  0
M  END
>  <i_m_ct_stereo_status>  (238) 
1

>  <s_m_source_file>  (238) 
/var/tmp/pbs.5076255.sched01/tmp7zsp0c9b/86_oh4d05k.sdf

>  <i_m_source_file_index>  (238) 
11

>  <i_lp_mmshare_version>  (238) 
48012

>  <i_f3d_flags>  (238) 
0

>  <s_epik_input>  (238) 
W0NIMl0xW0NIMl1bQ0BASF0oW0NIM10pW0NIMl1jKGMxMiljKG5vMilDKD1PKS9OPWMzXFtuSF1uW2NIXXMz

>  <s_epik_cmdline>  (238) 
J2VwaWtfcHl0aG9uJywgJy1waHQnLCAnMi4wJywgJy1waCcsICc3LjAnLCAnLXRuJywgJzgnLCAnLW1hJywgJzIwMCcsICctaW1hZScsICc8aW5maWxlLm1hZT4nLCAnLW9tYWUnLCAnPG91dGZpbGUubWFlPic=

>  <r_lp_tautomer_probability>  (238) 
1

>  <r_epik_Ionization_Penalty>  (238) 
1.41082

>  <r_epik_Ionization_Penalty_Charging>  (238) 
0

>  <r_epik_Ionization_Penalty_Neutral>  (238) 
1.41082

>  <r_epik_State_Penalty>  (238) 
1.49377

>  <r_epik_Charging_Adjusted_Penalty>  (238) 
1.49377

>  <i_epik_Tot_Q>  (238) 
0

>  <i_epik_Tot_abs_Q>  (238) 
0

>  <s_lp_Force_Field>  (238) 
OPLS3e

>  <r_lp_Energy>  (238) 
16.8865

>  <b_lp_Chiralities_Consistent>  (238) 
1

>  <s_lp_Variant>  (238) 
65:0-2

>  <s_i_glide_gridfile>  (238) 
pfpi4k_grid

>  <i_i_glide_lignum>  (238) 
11

>  <i_i_glide_rotatable_bonds>  (238) 
3

>  <r_i_docking_score>  (238) 
-3.65915

>  <r_i_glide_ligand_efficiency>  (238) 
-0.203286

>  <r_i_glide_ligand_efficiency_sa>  (238) 
-0.53276

>  <r_i_glide_ligand_efficiency_ln>  (238) 
-0.940565

>  <r_i_glide_gscore>  (238) 
-3.65915

>  <r_i_glide_lipo>  (238) 
-0.389059

>  <r_i_glide_hbond>  (238) 
0

>  <r_i_glide_metal>  (238) 
-0

>  <r_i_glide_rewards>  (238) 
-1.74072

>  <r_i_glide_evdw>  (238) 
-27.8736

>  <r_i_glide_ecoul>  (238) 
-4.64414

>  <r_i_glide_erotb>  (238) 
0.76334

>  <r_i_glide_esite>  (238) 
-0.202407

>  <r_i_glide_emodel>  (238) 
-38.6659

>  <r_i_glide_energy>  (238) 
-32.5178

>  <r_i_glide_einternal>  (238) 
4.05131

>  <r_i_glide_intrahb_reward>  (238) 
-0

>  <i_i_glide_confnum>  (238) 
4

>  <i_i_glide_posenum>  (238) 
1

>  <r_i_glide_eff_state_penalty>  (238) 
0

>  <ligand_id>  (238) 
65

>  <original_smiles>  (238) 
CC1CCc2onc(C(=O)N=c3[nH]ncs3)c2C1

>  <smiles>  (238) 
[H]c1nnc(N([H])C(=O)c2noc3c2C([H])([H])C([H])(C([H])([H])[H])C([H])([H])C3([H])[H])s1

$$$$
65:1:1
     RDKit          3D

 30 32  0  0  1  0  0  0  0  0999 V2000
    3.2933   -1.5177   -3.7057 C   0  0  0  0  0  0  0  0  0  0  0  0
    3.5925   -1.7443   -2.2179 C   0  0  2  0  0  0  0  0  0  0  0  0
    5.1019   -1.5501   -1.9258 C   0  0  0  0  0  0  0  0  0  0  0  0
    5.4721   -1.7028   -0.4375 C   0  0  0  0  0  0  0  0  0  0  0  0
    4.7250   -2.8330    0.1505 C   0  0  0  0  0  0  0  0  0  0  0  0
    5.0751   -3.2991    1.3690 O   0  0  0  0  0  0  0  0  0  0  0  0
    4.2091   -4.3544    1.6718 N   0  0  0  0  0  0  0  0  0  0  0  0
    3.3674   -4.4681    0.6476 C   0  0  0  0  0  0  0  0  0  0  0  0
    2.2197   -5.4510    0.5914 C   0  0  0  0  0  0  0  0  0  0  0  0
    1.3970   -5.4504   -0.3220 O   0  0  0  0  0  0  0  0  0  0  0  0
    2.1860   -6.3216    1.6147 N   0  0  0  0  0  0  0  0  0  0  0  0
    1.1423   -7.2036    1.9987 C   0  0  0  0  0  0  0  0  0  0  0  0
   -0.1511   -6.9964    1.6881 N   0  0  0  0  0  0  0  0  0  0  0  0
   -0.9811   -7.9596    2.2510 N   0  0  0  0  0  0  0  0  0  0  0  0
   -0.2846   -8.8610    2.9580 C   0  0  0  0  0  0  0  0  0  0  0  0
    1.4434   -8.5680    3.0594 S   0  0  0  0  0  0  0  0  0  0  0  0
    3.6502   -3.4919   -0.3667 C   0  0  0  0  0  0  0  0  0  0  0  0
    3.0476   -3.1132   -1.7073 C   0  0  0  0  0  0  0  0  0  0  0  0
    3.8078   -2.2426   -4.3299 H   0  0  0  0  0  0  0  0  0  0  0  0
    3.6041   -0.5244   -4.0242 H   0  0  0  0  0  0  0  0  0  0  0  0
    2.2290   -1.6024   -3.9089 H   0  0  0  0  0  0  0  0  0  0  0  0
    3.0682   -0.9760   -1.6487 H   0  0  0  0  0  0  0  0  0  0  0  0
    5.6492   -2.3022   -2.4952 H   0  0  0  0  0  0  0  0  0  0  0  0
    5.4354   -0.5784   -2.2856 H   0  0  0  0  0  0  0  0  0  0  0  0
    6.5454   -1.8493   -0.3077 H   0  0  0  0  0  0  0  0  0  0  0  0
    5.2003   -0.7929    0.0995 H   0  0  0  0  0  0  0  0  0  0  0  0
   -0.7946   -9.6822    3.4440 H   0  0  0  0  0  0  0  0  0  0  0  0
    1.9554   -3.1074   -1.6958 H   0  0  0  0  0  0  0  0  0  0  0  0
    3.3296   -3.8563   -2.4442 H   0  0  0  0  0  0  0  0  0  0  0  0
    3.0036   -6.3129    2.2066 H   0  0  0  0  0  0  0  0  0  0  0  0
  1  2  1  0
  1 19  1  0
  1 20  1  0
  1 21  1  0
  2 18  1  0
  2  3  1  0
  2 22  1  1
  3  4  1  0
  3 23  1  0
  3 24  1  0
  4  5  1  0
  4 25  1  0
  4 26  1  0
  5 17  2  0
  5  6  1  0
  6  7  1  0
  7  8  2  0
  8  9  1  0
  8 17  1  0
  9 10  2  0
  9 11  1  0
 11 12  1  0
 11 30  1  0
 12 16  1  0
 12 13  2  0
 13 14  1  0
 14 15  2  0
 15 16  1  0
 15 27  1  0
 17 18  1  0
 18 28  1  0
 18 29  1  0
M  END
>  <i_m_ct_stereo_status>  (239) 
1

>  <s_m_source_file>  (239) 
/var/tmp/pbs.5076255.sched01/tmp7zsp0c9b/86_oh4d05k.sdf

>  <i_m_source_file_index>  (239) 
11

>  <i_lp_mmshare_version>  (239) 
48012

>  <i_f3d_flags>  (239) 
0

>  <s_epik_input>  (239) 
W0NIMl0xW0NIMl1bQ0BASF0oW0NIM10pW0NIMl1jKGMxMiljKG5vMilDKD1PKS9OPWMzXFtuSF1uW2NIXXMz

>  <s_epik_cmdline>  (239) 
J2VwaWtfcHl0aG9uJywgJy1waHQnLCAnMi4wJywgJy1waCcsICc3LjAnLCAnLXRuJywgJzgnLCAnLW1hJywgJzIwMCcsICctaW1hZScsICc8aW5maWxlLm1hZT4nLCAnLW9tYWUnLCAnPG91dGZpbGUubWFlPic=

>  <r_lp_tautomer_probability>  (239) 
1

>  <r_epik_Ionization_Penalty>  (239) 
1.41082

>  <r_epik_Ionization_Penalty_Charging>  (239) 
0

>  <r_epik_Ionization_Penalty_Neutral>  (239) 
1.41082

>  <r_epik_State_Penalty>  (239) 
1.49377

>  <r_epik_Charging_Adjusted_Penalty>  (239) 
1.49377

>  <i_epik_Tot_Q>  (239) 
0

>  <i_epik_Tot_abs_Q>  (239) 
0

>  <s_lp_Force_Field>  (239) 
OPLS3e

>  <r_lp_Energy>  (239) 
16.8865

>  <b_lp_Chiralities_Consistent>  (239) 
1

>  <s_lp_Variant>  (239) 
65:0-2

>  <s_i_glide_gridfile>  (239) 
pfpi4k_grid

>  <i_i_glide_lignum>  (239) 
11

>  <i_i_glide_rotatable_bonds>  (239) 
3

>  <r_i_docking_score>  (239) 
-3.65757

>  <r_i_glide_ligand_efficiency>  (239) 
-0.203198

>  <r_i_glide_ligand_efficiency_sa>  (239) 
-0.53253

>  <r_i_glide_ligand_efficiency_ln>  (239) 
-0.940159

>  <r_i_glide_gscore>  (239) 
-3.65757

>  <r_i_glide_lipo>  (239) 
-0.271232

>  <r_i_glide_hbond>  (239) 
-0.263343

>  <r_i_glide_metal>  (239) 
-0

>  <r_i_glide_rewards>  (239) 
-1.60701

>  <r_i_glide_evdw>  (239) 
-28.0812

>  <r_i_glide_ecoul>  (239) 
-4.24096

>  <r_i_glide_erotb>  (239) 
0.76334

>  <r_i_glide_esite>  (239) 
-0.239115

>  <r_i_glide_emodel>  (239) 
-38.7436

>  <r_i_glide_energy>  (239) 
-32.3221

>  <r_i_glide_einternal>  (239) 
3.45677

>  <r_i_glide_intrahb_reward>  (239) 
-0

>  <i_i_glide_confnum>  (239) 
6

>  <i_i_glide_posenum>  (239) 
25

>  <r_i_glide_eff_state_penalty>  (239) 
0

>  <ligand_id>  (239) 
65

>  <original_smiles>  (239) 
CC1CCc2onc(C(=O)N=c3[nH]ncs3)c2C1

>  <smiles>  (239) 
[H]c1nnc(N([H])C(=O)c2noc3c2C([H])([H])C([H])(C([H])([H])[H])C([H])([H])C3([H])[H])s1

$$$$
65:1:2
     RDKit          3D

 30 32  0  0  1  0  0  0  0  0999 V2000
    3.9897   -1.3464   -2.2425 C   0  0  0  0  0  0  0  0  0  0  0  0
    4.4936   -2.2572   -1.1142 C   0  0  2  0  0  0  0  0  0  0  0  0
    5.9491   -2.7197   -1.3926 C   0  0  0  0  0  0  0  0  0  0  0  0
    6.5430   -3.5869   -0.2648 C   0  0  0  0  0  0  0  0  0  0  0  0
    5.5234   -4.5402    0.2304 C   0  0  0  0  0  0  0  0  0  0  0  0
    5.9014   -5.5600    1.0334 O   0  0  0  0  0  0  0  0  0  0  0  0
    4.7428   -6.2732    1.3628 N   0  0  0  0  0  0  0  0  0  0  0  0
    3.7280   -5.6512    0.7755 C   0  0  0  0  0  0  0  0  0  0  0  0
    2.2874   -6.0793    0.8746 C   0  0  0  0  0  0  0  0  0  0  0  0
    1.4201   -5.5837    0.1473 O   0  0  0  0  0  0  0  0  0  0  0  0
    2.0619   -7.0666    1.7584 N   0  0  0  0  0  0  0  0  0  0  0  0
    0.8374   -7.6775    2.1324 C   0  0  0  0  0  0  0  0  0  0  0  0
   -0.3521   -7.0726    2.0066 N   0  0  0  0  0  0  0  0  0  0  0  0
   -1.3854   -7.8692    2.4895 N   0  0  0  0  0  0  0  0  0  0  0  0
   -0.9344   -9.0382    2.9561 C   0  0  0  0  0  0  0  0  0  0  0  0
    0.8044   -9.2596    2.8965 S   0  0  0  0  0  0  0  0  0  0  0  0
    4.1804   -4.5149    0.0223 C   0  0  0  0  0  0  0  0  0  0  0  0
    3.5188   -3.4487   -0.8400 C   0  0  0  0  0  0  0  0  0  0  0  0
    3.9562   -1.8712   -3.1942 H   0  0  0  0  0  0  0  0  0  0  0  0
    4.6318   -0.4767   -2.3673 H   0  0  0  0  0  0  0  0  0  0  0  0
    2.9897   -0.9782   -2.0285 H   0  0  0  0  0  0  0  0  0  0  0  0
    4.5299   -1.6642   -0.1990 H   0  0  0  0  0  0  0  0  0  0  0  0
    5.9439   -3.3041   -2.3127 H   0  0  0  0  0  0  0  0  0  0  0  0
    6.6028   -1.8692   -1.5763 H   0  0  0  0  0  0  0  0  0  0  0  0
    7.4345   -4.1158   -0.6007 H   0  0  0  0  0  0  0  0  0  0  0  0
    6.8431   -2.9503    0.5669 H   0  0  0  0  0  0  0  0  0  0  0  0
   -1.6282   -9.7667    3.3509 H   0  0  0  0  0  0  0  0  0  0  0  0
    2.5848   -3.0814   -0.4073 H   0  0  0  0  0  0  0  0  0  0  0  0
    3.2449   -3.8740   -1.8040 H   0  0  0  0  0  0  0  0  0  0  0  0
    2.8899   -7.4560    2.1732 H   0  0  0  0  0  0  0  0  0  0  0  0
  1  2  1  0
  1 19  1  0
  1 20  1  0
  1 21  1  0
  2 18  1  0
  2  3  1  0
  2 22  1  1
  3  4  1  0
  3 23  1  0
  3 24  1  0
  4  5  1  0
  4 25  1  0
  4 26  1  0
  5 17  2  0
  5  6  1  0
  6  7  1  0
  7  8  2  0
  8  9  1  0
  8 17  1  0
  9 10  2  0
  9 11  1  0
 11 12  1  0
 11 30  1  0
 12 16  1  0
 12 13  2  0
 13 14  1  0
 14 15  2  0
 15 16  1  0
 15 27  1  0
 17 18  1  0
 18 28  1  0
 18 29  1  0
M  END
>  <i_m_ct_stereo_status>  (240) 
1

>  <s_m_source_file>  (240) 
/var/tmp/pbs.5076255.sched01/tmp7zsp0c9b/86_oh4d05k.sdf

>  <i_m_source_file_index>  (240) 
11

>  <i_lp_mmshare_version>  (240) 
48012

>  <i_f3d_flags>  (240) 
0

>  <s_epik_input>  (240) 
W0NIMl0xW0NIMl1bQ0BASF0oW0NIM10pW0NIMl1jKGMxMiljKG5vMilDKD1PKS9OPWMzXFtuSF1uW2NIXXMz

>  <s_epik_cmdline>  (240) 
J2VwaWtfcHl0aG9uJywgJy1waHQnLCAnMi4wJywgJy1waCcsICc3LjAnLCAnLXRuJywgJzgnLCAnLW1hJywgJzIwMCcsICctaW1hZScsICc8aW5maWxlLm1hZT4nLCAnLW9tYWUnLCAnPG91dGZpbGUubWFlPic=

>  <r_lp_tautomer_probability>  (240) 
1

>  <r_epik_Ionization_Penalty>  (240) 
1.41082

>  <r_epik_Ionization_Penalty_Charging>  (240) 
0

>  <r_epik_Ionization_Penalty_Neutral>  (240) 
1.41082

>  <r_epik_State_Penalty>  (240) 
1.49377

>  <r_epik_Charging_Adjusted_Penalty>  (240) 
1.49377

>  <i_epik_Tot_Q>  (240) 
0

>  <i_epik_Tot_abs_Q>  (240) 
0

>  <s_lp_Force_Field>  (240) 
OPLS3e

>  <r_lp_Energy>  (240) 
16.8865

>  <b_lp_Chiralities_Consistent>  (240) 
1

>  <s_lp_Variant>  (240) 
65:0-2

>  <s_i_glide_gridfile>  (240) 
pfpi4k_grid

>  <i_i_glide_lignum>  (240) 
11

>  <i_i_glide_rotatable_bonds>  (240) 
3

>  <r_i_docking_score>  (240) 
-3.57987

>  <r_i_glide_ligand_efficiency>  (240) 
-0.198882

>  <r_i_glide_ligand_efficiency_sa>  (240) 
-0.521218

>  <r_i_glide_ligand_efficiency_ln>  (240) 
-0.920188

>  <r_i_glide_gscore>  (240) 
-3.57987

>  <r_i_glide_lipo>  (240) 
-0.23788

>  <r_i_glide_hbond>  (240) 
-0.127536

>  <r_i_glide_metal>  (240) 
-0

>  <r_i_glide_rewards>  (240) 
-1.60701

>  <r_i_glide_evdw>  (240) 
-27.5498

>  <r_i_glide_ecoul>  (240) 
-5.34628

>  <r_i_glide_erotb>  (240) 
0.76334

>  <r_i_glide_esite>  (240) 
-0.191352

>  <r_i_glide_emodel>  (240) 
-39.8146

>  <r_i_glide_energy>  (240) 
-32.8961

>  <r_i_glide_einternal>  (240) 
2.18523

>  <r_i_glide_intrahb_reward>  (240) 
-0

>  <i_i_glide_confnum>  (240) 
6

>  <i_i_glide_posenum>  (240) 
14

>  <r_i_glide_eff_state_penalty>  (240) 
0

>  <ligand_id>  (240) 
65

>  <original_smiles>  (240) 
CC1CCc2onc(C(=O)N=c3[nH]ncs3)c2C1

>  <smiles>  (240) 
[H]c1nnc(N([H])C(=O)c2noc3c2C([H])([H])C([H])(C([H])([H])[H])C([H])([H])C3([H])[H])s1

$$$$
66:0:0
     RDKit          3D

 44 48  0  0  1  0  0  0  0  0999 V2000
   -4.7066   -8.8573   -5.2101 C   0  0  0  0  0  0  0  0  0  0  0  0
   -5.8859   -9.2602   -6.1174 C   0  0  0  0  0  0  0  0  0  0  0  0
   -6.9149   -8.4034   -6.4740 C   0  0  0  0  0  0  0  0  0  0  0  0
   -7.0275   -6.9929   -5.9872 C   0  0  0  0  0  0  0  0  0  0  0  0
   -7.5241   -5.9742   -6.8292 C   0  0  0  0  0  0  0  0  0  0  0  0
   -7.5919   -4.6306   -6.3969 C   0  0  0  0  0  0  0  0  0  0  0  0
   -7.1322   -4.2902   -5.1063 C   0  0  0  0  0  0  0  0  0  0  0  0
   -6.6549   -5.2915   -4.2603 C   0  0  0  0  0  0  0  0  0  0  0  0
   -6.6436   -6.6343   -4.6793 C   0  0  0  0  0  0  0  0  0  0  0  0
   -8.0050   -8.7112   -7.3199 N   0  0  0  0  0  0  0  0  0  0  0  0
   -7.8488   -9.2180   -8.6736 C   0  0  1  0  0  0  0  0  0  0  0  0
   -6.5964   -9.7245   -8.8037 O   0  0  0  0  0  0  0  0  0  0  0  0
   -6.4823  -11.0532   -8.3381 C   0  0  2  0  0  0  0  0  0  0  0  0
   -7.0226  -11.8649   -9.5149 C   0  0  0  0  0  0  0  0  0  0  0  0
   -8.3196  -11.1856  -10.0765 C   0  0  0  0  0  0  0  0  0  0  0  0
   -8.8705  -10.1521   -9.1730 N   0  0  0  0  0  0  0  0  0  0  0  0
   -9.9119  -10.6394   -8.2601 C   0  0  0  0  0  0  0  0  0  0  0  0
   -9.5080  -11.7874   -7.3177 C   0  0  0  0  0  0  0  0  0  0  0  0
   -8.3836  -11.4473   -6.3328 C   0  0  0  0  0  0  0  0  0  0  0  0
   -6.9786  -11.5159   -6.9415 C   0  0  2  0  0  0  0  0  0  0  0  0
   -5.7409  -10.7894   -6.4669 C   0  0  1  0  0  0  0  0  0  0  0  0
   -5.1486  -11.1475   -7.7761 O   0  0  0  0  0  0  0  0  0  0  0  0
   -4.6884   -9.5665   -4.3781 H   0  0  0  0  0  0  0  0  0  0  0  0
   -4.7118   -7.8849   -4.8072 H   0  0  0  0  0  0  0  0  0  0  0  0
   -3.7759   -9.0343   -5.7742 H   0  0  0  0  0  0  0  0  0  0  0  0
   -7.8258   -6.1933   -7.8523 H   0  0  0  0  0  0  0  0  0  0  0  0
   -7.9769   -3.8716   -7.0569 H   0  0  0  0  0  0  0  0  0  0  0  0
   -7.1663   -3.2569   -4.7536 H   0  0  0  0  0  0  0  0  0  0  0  0
   -6.3208   -5.0360   -3.2697 H   0  0  0  0  0  0  0  0  0  0  0  0
   -6.3209   -7.3908   -3.9811 H   0  0  0  0  0  0  0  0  0  0  0  0
   -7.8653   -8.3481   -9.3344 H   0  0  0  0  0  0  0  0  0  0  0  0
   -6.2626  -11.9394  -10.3032 H   0  0  0  0  0  0  0  0  0  0  0  0
   -7.2310  -12.8983   -9.2192 H   0  0  0  0  0  0  0  0  0  0  0  0
   -8.0542  -10.6566  -10.9931 H   0  0  0  0  0  0  0  0  0  0  0  0
   -9.0678  -11.9235  -10.3570 H   0  0  0  0  0  0  0  0  0  0  0  0
  -10.3188   -9.8034   -7.6879 H   0  0  0  0  0  0  0  0  0  0  0  0
  -10.7377  -10.9865   -8.8812 H   0  0  0  0  0  0  0  0  0  0  0  0
  -10.3934  -12.0319   -6.7358 H   0  0  0  0  0  0  0  0  0  0  0  0
   -9.2747  -12.6919   -7.8836 H   0  0  0  0  0  0  0  0  0  0  0  0
   -8.5830  -10.5143   -5.8039 H   0  0  0  0  0  0  0  0  0  0  0  0
   -8.4327  -12.1912   -5.5490 H   0  0  0  0  0  0  0  0  0  0  0  0
   -6.7148  -12.5805   -6.9105 H   0  0  0  0  0  0  0  0  0  0  0  0
   -5.2652  -11.3467   -5.6614 H   0  0  0  0  0  0  0  0  0  0  0  0
   -8.7186   -7.9986   -7.2917 H   0  0  0  0  0  0  0  0  0  0  0  0
  1 23  1  0
  1 24  1  0
  1 25  1  0
  1  2  1  0
  2 21  1  0
  2  3  2  0
  3  4  1  0
  3 10  1  0
  4  9  1  0
  4  5  2  0
  5  6  1  0
  5 26  1  0
  6  7  2  0
  6 27  1  0
  7  8  1  0
  7 28  1  0
  8  9  2  0
  8 29  1  0
  9 30  1  0
 10 11  1  0
 10 44  1  0
 11 16  1  0
 11 12  1  0
 11 31  1  6
 12 13  1  0
 13 20  1  0
 13 22  1  1
 13 14  1  0
 14 15  1  0
 14 32  1  0
 14 33  1  0
 15 16  1  0
 15 34  1  0
 15 35  1  0
 16 17  1  0
 17 18  1  0
 17 36  1  0
 17 37  1  0
 18 19  1  0
 18 38  1  0
 18 39  1  0
 19 20  1  0
 19 40  1  0
 19 41  1  0
 20 21  1  0
 20 42  1  6
 21 22  1  0
 21 43  1  1
M  END
>  <i_m_ct_stereo_status>  (241) 
1

>  <s_m_source_file>  (241) 
/var/tmp/pbs.5076255.sched01/tmp7zsp0c9b/86_oh4d05k.sdf

>  <i_m_source_file_index>  (241) 
12

>  <i_lp_mmshare_version>  (241) 
48012

>  <i_f3d_flags>  (241) 
0

>  <s_epik_input>  (241) 
W0NIMl0xW0NIMl1bQ0gyXU4oW0NIMl1bQ0gyXTIpW0NASF0oTzMpW05IXUMoPUMoXFtDSDNdKVtDQEhdKE80KVtDQEhdMVtDQEBdMjM0KVxjNVtjSF1bY0hdW2NIXVtjSF1bY0hdNQ==

>  <s_epik_cmdline>  (241) 
J2VwaWtfcHl0aG9uJywgJy1waHQnLCAnMi4wJywgJy1waCcsICc3LjAnLCAnLXRuJywgJzgnLCAnLW1hJywgJzIwMCcsICctaW1hZScsICc8aW5maWxlLm1hZT4nLCAnLW9tYWUnLCAnPG91dGZpbGUubWFlPic=

>  <r_lp_tautomer_probability>  (241) 
1

>  <r_epik_Ionization_Penalty>  (241) 
2.03229e-06

>  <r_epik_Ionization_Penalty_Charging>  (241) 
5.98406e-12

>  <r_epik_Ionization_Penalty_Neutral>  (241) 
2.03229e-06

>  <r_epik_State_Penalty>  (241) 
-0

>  <r_epik_Charging_Adjusted_Penalty>  (241) 
5.98406e-12

>  <i_epik_Tot_Q>  (241) 
0

>  <i_epik_Tot_abs_Q>  (241) 
0

>  <s_epik_Chemistry_Notes>  (241) 
This compound has an imine and may undergo hydrolysis. This compound contains an acetal/aminal-like group ( X-CH(R)-Y where X, Y are N, S, or O) that may be acid/base labile, releasing an aldehyde.

>  <s_lp_Force_Field>  (241) 
OPLS3e

>  <r_lp_Energy>  (241) 
73.4714

>  <b_lp_Chiralities_Consistent>  (241) 
1

>  <s_lp_Variant>  (241) 
66:0-1

>  <s_i_glide_gridfile>  (241) 
pfpi4k_grid

>  <i_i_glide_lignum>  (241) 
12

>  <i_i_glide_rotatable_bonds>  (241) 
1

>  <r_i_docking_score>  (241) 
-5.9817

>  <r_i_glide_ligand_efficiency>  (241) 
-0.271895

>  <r_i_glide_ligand_efficiency_sa>  (241) 
-0.761861

>  <r_i_glide_ligand_efficiency_ln>  (241) 
-1.46215

>  <r_i_glide_gscore>  (241) 
-5.9817

>  <r_i_glide_lipo>  (241) 
-2.56902

>  <r_i_glide_hbond>  (241) 
0

>  <r_i_glide_metal>  (241) 
-0

>  <r_i_glide_rewards>  (241) 
-2.24106

>  <r_i_glide_evdw>  (241) 
-25.5106

>  <r_i_glide_ecoul>  (241) 
-0.681309

>  <r_i_glide_erotb>  (241) 
0.206111

>  <r_i_glide_esite>  (241) 
0

>  <r_i_glide_emodel>  (241) 
-33.3835

>  <r_i_glide_energy>  (241) 
-26.1919

>  <r_i_glide_einternal>  (241) 
2.31974

>  <r_i_glide_intrahb_reward>  (241) 
-0

>  <i_i_glide_confnum>  (241) 
6

>  <i_i_glide_posenum>  (241) 
17

>  <r_i_glide_eff_state_penalty>  (241) 
0

>  <ligand_id>  (241) 
66

>  <original_smiles>  (241) 
CC1=C(c2ccccc2)NC2OC34CCN2CCCC3C1O4

>  <smiles>  (241) 
[H]c1c([H])c([H])c(C2=C(C([H])([H])[H])C3([H])OC45OC([H])(N2[H])N(C([H])([H])C([H])([H])C([H])([H])C34[H])C([H])([H])C5([H])[H])c([H])c1[H]

$$$$
66:0:1
     RDKit          3D

 44 48  0  0  1  0  0  0  0  0999 V2000
    7.4152   -2.9013   -1.1520 C   0  0  0  0  0  0  0  0  0  0  0  0
    6.3435   -3.5910   -0.3104 C   0  0  0  0  0  0  0  0  0  0  0  0
    5.0010   -3.4228   -0.5787 C   0  0  0  0  0  0  0  0  0  0  0  0
    4.5456   -2.5682   -1.7020 C   0  0  0  0  0  0  0  0  0  0  0  0
    4.6462   -1.1636   -1.6559 C   0  0  0  0  0  0  0  0  0  0  0  0
    4.2120   -0.3954   -2.7617 C   0  0  0  0  0  0  0  0  0  0  0  0
    3.6278   -1.0047   -3.8844 C   0  0  0  0  0  0  0  0  0  0  0  0
    3.4850   -2.4049   -3.9068 C   0  0  0  0  0  0  0  0  0  0  0  0
    3.9472   -3.1772   -2.8276 C   0  0  0  0  0  0  0  0  0  0  0  0
    3.9185   -3.9915    0.1184 N   0  0  0  0  0  0  0  0  0  0  0  0
    3.7873   -5.4264    0.3329 C   0  0  1  0  0  0  0  0  0  0  0  0
    4.9834   -6.0244    0.0992 O   0  0  0  0  0  0  0  0  0  0  0  0
    5.8485   -5.9809    1.2201 C   0  0  2  0  0  0  0  0  0  0  0  0
    5.3410   -7.1747    2.0372 C   0  0  0  0  0  0  0  0  0  0  0  0
    3.7723   -7.1533    2.0801 C   0  0  0  0  0  0  0  0  0  0  0  0
    3.2141   -5.8684    1.5993 N   0  0  0  0  0  0  0  0  0  0  0  0
    2.8952   -4.8872    2.6311 C   0  0  0  0  0  0  0  0  0  0  0  0
    4.0693   -4.4343    3.5160 C   0  0  0  0  0  0  0  0  0  0  0  0
    5.2007   -3.7231    2.7646 C   0  0  0  0  0  0  0  0  0  0  0  0
    6.1464   -4.6896    2.0258 C   0  0  2  0  0  0  0  0  0  0  0  0
    7.0300   -4.3803    0.8515 C   0  0  1  0  0  0  0  0  0  0  0  0
    7.1975   -5.8423    0.6913 O   0  0  0  0  0  0  0  0  0  0  0  0
    8.0823   -2.3311   -0.5011 H   0  0  0  0  0  0  0  0  0  0  0  0
    7.0242   -2.2150   -1.9009 H   0  0  0  0  0  0  0  0  0  0  0  0
    8.0140   -3.6365   -1.6911 H   0  0  0  0  0  0  0  0  0  0  0  0
    5.0835   -0.6770   -0.7912 H   0  0  0  0  0  0  0  0  0  0  0  0
    4.2996    0.6861   -2.7345 H   0  0  0  0  0  0  0  0  0  0  0  0
    3.2807   -0.4054   -4.7216 H   0  0  0  0  0  0  0  0  0  0  0  0
    3.0096   -2.8949   -4.7380 H   0  0  0  0  0  0  0  0  0  0  0  0
    3.8471   -4.2411   -2.8704 H   0  0  0  0  0  0  0  0  0  0  0  0
    3.1223   -5.7769   -0.4482 H   0  0  0  0  0  0  0  0  0  0  0  0
    5.6815   -8.1246    1.6165 H   0  0  0  0  0  0  0  0  0  0  0  0
    5.7232   -7.1490    3.0609 H   0  0  0  0  0  0  0  0  0  0  0  0
    3.4082   -7.9254    1.3990 H   0  0  0  0  0  0  0  0  0  0  0  0
    3.3898   -7.4144    3.0700 H   0  0  0  0  0  0  0  0  0  0  0  0
    2.4026   -4.0207    2.1867 H   0  0  0  0  0  0  0  0  0  0  0  0
    2.1471   -5.3405    3.2819 H   0  0  0  0  0  0  0  0  0  0  0  0
    3.6682   -3.7318    4.2476 H   0  0  0  0  0  0  0  0  0  0  0  0
    4.4594   -5.2720    4.0943 H   0  0  0  0  0  0  0  0  0  0  0  0
    4.8167   -2.9267    2.1352 H   0  0  0  0  0  0  0  0  0  0  0  0
    5.7950   -3.1913    3.5090 H   0  0  0  0  0  0  0  0  0  0  0  0
    6.8367   -5.0442    2.7820 H   0  0  0  0  0  0  0  0  0  0  0  0
    7.9551   -3.9008    1.1856 H   0  0  0  0  0  0  0  0  0  0  0  0
    3.0570   -3.5873   -0.2082 H   0  0  0  0  0  0  0  0  0  0  0  0
  1 23  1  0
  1 24  1  0
  1 25  1  0
  1  2  1  0
  2 21  1  0
  2  3  2  0
  3  4  1  0
  3 10  1  0
  4  9  1  0
  4  5  2  0
  5  6  1  0
  5 26  1  0
  6  7  2  0
  6 27  1  0
  7  8  1  0
  7 28  1  0
  8  9  2  0
  8 29  1  0
  9 30  1  0
 10 11  1  0
 10 44  1  0
 11 16  1  0
 11 12  1  0
 11 31  1  6
 12 13  1  0
 13 20  1  0
 13 22  1  6
 13 14  1  0
 14 15  1  0
 14 32  1  0
 14 33  1  0
 15 16  1  0
 15 34  1  0
 15 35  1  0
 16 17  1  0
 17 18  1  0
 17 36  1  0
 17 37  1  0
 18 19  1  0
 18 38  1  0
 18 39  1  0
 19 20  1  0
 19 40  1  0
 19 41  1  0
 20 21  1  0
 20 42  1  1
 21 22  1  0
 21 43  1  1
M  END
>  <i_m_ct_stereo_status>  (242) 
1

>  <s_m_source_file>  (242) 
/var/tmp/pbs.5076255.sched01/tmp7zsp0c9b/86_oh4d05k.sdf

>  <i_m_source_file_index>  (242) 
12

>  <i_lp_mmshare_version>  (242) 
48012

>  <i_f3d_flags>  (242) 
0

>  <s_epik_input>  (242) 
W0NIMl0xW0NIMl1bQ0gyXU4oW0NIMl1bQ0gyXTIpW0NASF0oTzMpW05IXUMoPUMoXFtDSDNdKVtDQEhdKE80KVtDQEhdMVtDQEBdMjM0KVxjNVtjSF1bY0hdW2NIXVtjSF1bY0hdNQ==

>  <s_epik_cmdline>  (242) 
J2VwaWtfcHl0aG9uJywgJy1waHQnLCAnMi4wJywgJy1waCcsICc3LjAnLCAnLXRuJywgJzgnLCAnLW1hJywgJzIwMCcsICctaW1hZScsICc8aW5maWxlLm1hZT4nLCAnLW9tYWUnLCAnPG91dGZpbGUubWFlPic=

>  <r_lp_tautomer_probability>  (242) 
1

>  <r_epik_Ionization_Penalty>  (242) 
2.03229e-06

>  <r_epik_Ionization_Penalty_Charging>  (242) 
5.98406e-12

>  <r_epik_Ionization_Penalty_Neutral>  (242) 
2.03229e-06

>  <r_epik_State_Penalty>  (242) 
-0

>  <r_epik_Charging_Adjusted_Penalty>  (242) 
5.98406e-12

>  <i_epik_Tot_Q>  (242) 
0

>  <i_epik_Tot_abs_Q>  (242) 
0

>  <s_epik_Chemistry_Notes>  (242) 
This compound has an imine and may undergo hydrolysis. This compound contains an acetal/aminal-like group ( X-CH(R)-Y where X, Y are N, S, or O) that may be acid/base labile, releasing an aldehyde.

>  <s_lp_Force_Field>  (242) 
OPLS3e

>  <r_lp_Energy>  (242) 
73.4714

>  <b_lp_Chiralities_Consistent>  (242) 
1

>  <s_lp_Variant>  (242) 
66:0-1

>  <s_i_glide_gridfile>  (242) 
pfpi4k_grid

>  <i_i_glide_lignum>  (242) 
12

>  <i_i_glide_rotatable_bonds>  (242) 
1

>  <r_i_docking_score>  (242) 
-3.80902

>  <r_i_glide_ligand_efficiency>  (242) 
-0.173137

>  <r_i_glide_ligand_efficiency_sa>  (242) 
-0.485138

>  <r_i_glide_ligand_efficiency_ln>  (242) 
-0.931064

>  <r_i_glide_gscore>  (242) 
-3.80902

>  <r_i_glide_lipo>  (242) 
-0.844979

>  <r_i_glide_hbond>  (242) 
0

>  <r_i_glide_metal>  (242) 
-0

>  <r_i_glide_rewards>  (242) 
-1.49057

>  <r_i_glide_evdw>  (242) 
-26.8069

>  <r_i_glide_ecoul>  (242) 
-2.24367

>  <r_i_glide_erotb>  (242) 
0.206111

>  <r_i_glide_esite>  (242) 
-0.00268561

>  <r_i_glide_emodel>  (242) 
-34.9173

>  <r_i_glide_energy>  (242) 
-29.0506

>  <r_i_glide_einternal>  (242) 
0.647726

>  <r_i_glide_intrahb_reward>  (242) 
-0

>  <i_i_glide_confnum>  (242) 
4

>  <i_i_glide_posenum>  (242) 
1

>  <r_i_glide_eff_state_penalty>  (242) 
0

>  <ligand_id>  (242) 
66

>  <original_smiles>  (242) 
CC1=C(c2ccccc2)NC2OC34CCN2CCCC3C1O4

>  <smiles>  (242) 
[H]c1c([H])c([H])c(C2=C(C([H])([H])[H])C3([H])OC45OC([H])(N2[H])N(C([H])([H])C([H])([H])C([H])([H])C34[H])C([H])([H])C5([H])[H])c([H])c1[H]

$$$$
66:0:2
     RDKit          3D

 44 48  0  0  1  0  0  0  0  0999 V2000
    5.5685   -4.1363   -0.0188 C   0  0  0  0  0  0  0  0  0  0  0  0
    4.7617   -3.1908    0.8685 C   0  0  0  0  0  0  0  0  0  0  0  0
    3.9454   -2.2206    0.3201 C   0  0  0  0  0  0  0  0  0  0  0  0
    3.7641   -2.1158   -1.1417 C   0  0  0  0  0  0  0  0  0  0  0  0
    3.0006   -3.0738   -1.8433 C   0  0  0  0  0  0  0  0  0  0  0  0
    2.8016   -2.9438   -3.2318 C   0  0  0  0  0  0  0  0  0  0  0  0
    3.3375   -1.8425   -3.9173 C   0  0  0  0  0  0  0  0  0  0  0  0
    4.0823   -0.8760   -3.2193 C   0  0  0  0  0  0  0  0  0  0  0  0
    4.3001   -1.0168   -1.8348 C   0  0  0  0  0  0  0  0  0  0  0  0
    3.1382   -1.2961    0.9998 N   0  0  0  0  0  0  0  0  0  0  0  0
    2.1880   -1.6796    2.0308 C   0  0  1  0  0  0  0  0  0  0  0  0
    2.4453   -2.9514    2.4390 O   0  0  0  0  0  0  0  0  0  0  0  0
    3.4618   -3.0085    3.4327 C   0  0  2  0  0  0  0  0  0  0  0  0
    2.6734   -2.6898    4.7070 C   0  0  0  0  0  0  0  0  0  0  0  0
    1.7175   -1.4743    4.4350 C   0  0  0  0  0  0  0  0  0  0  0  0
    2.0236   -0.7744    3.1655 N   0  0  0  0  0  0  0  0  0  0  0  0
    2.8914    0.3941    3.2887 C   0  0  0  0  0  0  0  0  0  0  0  0
    4.2848    0.1457    3.8962 C   0  0  0  0  0  0  0  0  0  0  0  0
    5.1813   -0.8010    3.0853 C   0  0  0  0  0  0  0  0  0  0  0  0
    4.8412   -2.2901    3.3018 C   0  0  2  0  0  0  0  0  0  0  0  0
    5.1266   -3.4295    2.3661 C   0  0  1  0  0  0  0  0  0  0  0  0
    4.1909   -4.2360    3.1807 O   0  0  0  0  0  0  0  0  0  0  0  0
    6.6240   -4.0758    0.2545 H   0  0  0  0  0  0  0  0  0  0  0  0
    5.5134   -3.9056   -1.0824 H   0  0  0  0  0  0  0  0  0  0  0  0
    5.2364   -5.1661    0.1260 H   0  0  0  0  0  0  0  0  0  0  0  0
    2.5726   -3.9132   -1.3193 H   0  0  0  0  0  0  0  0  0  0  0  0
    2.2175   -3.6830   -3.7616 H   0  0  0  0  0  0  0  0  0  0  0  0
    3.1633   -1.7179   -4.9709 H   0  0  0  0  0  0  0  0  0  0  0  0
    4.4605   -0.0191   -3.7519 H   0  0  0  0  0  0  0  0  0  0  0  0
    4.8592   -0.2639   -1.3000 H   0  0  0  0  0  0  0  0  0  0  0  0
    1.2310   -1.7247    1.5192 H   0  0  0  0  0  0  0  0  0  0  0  0
    2.0926   -3.5511    5.0341 H   0  0  0  0  0  0  0  0  0  0  0  0
    3.3428   -2.4422    5.5347 H   0  0  0  0  0  0  0  0  0  0  0  0
    0.7044   -1.8667    4.3315 H   0  0  0  0  0  0  0  0  0  0  0  0
    1.6930   -0.7858    5.2837 H   0  0  0  0  0  0  0  0  0  0  0  0
    2.9843    0.8910    2.3238 H   0  0  0  0  0  0  0  0  0  0  0  0
    2.3742    1.1099    3.9269 H   0  0  0  0  0  0  0  0  0  0  0  0
    4.7872    1.1120    3.9507 H   0  0  0  0  0  0  0  0  0  0  0  0
    4.2010   -0.1927    4.9266 H   0  0  0  0  0  0  0  0  0  0  0  0
    5.2252   -0.5025    2.0404 H   0  0  0  0  0  0  0  0  0  0  0  0
    6.2066   -0.6453    3.4259 H   0  0  0  0  0  0  0  0  0  0  0  0
    5.3586   -2.5637    4.2210 H   0  0  0  0  0  0  0  0  0  0  0  0
    6.1601   -3.7718    2.4839 H   0  0  0  0  0  0  0  0  0  0  0  0
    2.6811   -0.6942    0.3276 H   0  0  0  0  0  0  0  0  0  0  0  0
  1 23  1  0
  1 24  1  0
  1 25  1  0
  1  2  1  0
  2 21  1  0
  2  3  2  0
  3  4  1  0
  3 10  1  0
  4  9  1  0
  4  5  2  0
  5  6  1  0
  5 26  1  0
  6  7  2  0
  6 27  1  0
  7  8  1  0
  7 28  1  0
  8  9  2  0
  8 29  1  0
  9 30  1  0
 10 11  1  0
 10 44  1  0
 11 16  1  0
 11 12  1  0
 11 31  1  6
 12 13  1  0
 13 20  1  0
 13 22  1  1
 13 14  1  0
 14 15  1  0
 14 32  1  0
 14 33  1  0
 15 16  1  0
 15 34  1  0
 15 35  1  0
 16 17  1  0
 17 18  1  0
 17 36  1  0
 17 37  1  0
 18 19  1  0
 18 38  1  0
 18 39  1  0
 19 20  1  0
 19 40  1  0
 19 41  1  0
 20 21  1  0
 20 42  1  1
 21 22  1  0
 21 43  1  6
M  END
>  <i_m_ct_stereo_status>  (243) 
1

>  <s_m_source_file>  (243) 
/var/tmp/pbs.5076255.sched01/tmp7zsp0c9b/86_oh4d05k.sdf

>  <i_m_source_file_index>  (243) 
12

>  <i_lp_mmshare_version>  (243) 
48012

>  <i_f3d_flags>  (243) 
0

>  <s_epik_input>  (243) 
W0NIMl0xW0NIMl1bQ0gyXU4oW0NIMl1bQ0gyXTIpW0NASF0oTzMpW05IXUMoPUMoXFtDSDNdKVtDQEhdKE80KVtDQEhdMVtDQEBdMjM0KVxjNVtjSF1bY0hdW2NIXVtjSF1bY0hdNQ==

>  <s_epik_cmdline>  (243) 
J2VwaWtfcHl0aG9uJywgJy1waHQnLCAnMi4wJywgJy1waCcsICc3LjAnLCAnLXRuJywgJzgnLCAnLW1hJywgJzIwMCcsICctaW1hZScsICc8aW5maWxlLm1hZT4nLCAnLW9tYWUnLCAnPG91dGZpbGUubWFlPic=

>  <r_lp_tautomer_probability>  (243) 
1

>  <r_epik_Ionization_Penalty>  (243) 
2.03229e-06

>  <r_epik_Ionization_Penalty_Charging>  (243) 
5.98406e-12

>  <r_epik_Ionization_Penalty_Neutral>  (243) 
2.03229e-06

>  <r_epik_State_Penalty>  (243) 
-0

>  <r_epik_Charging_Adjusted_Penalty>  (243) 
5.98406e-12

>  <i_epik_Tot_Q>  (243) 
0

>  <i_epik_Tot_abs_Q>  (243) 
0

>  <s_epik_Chemistry_Notes>  (243) 
This compound has an imine and may undergo hydrolysis. This compound contains an acetal/aminal-like group ( X-CH(R)-Y where X, Y are N, S, or O) that may be acid/base labile, releasing an aldehyde.

>  <s_lp_Force_Field>  (243) 
OPLS3e

>  <r_lp_Energy>  (243) 
73.4714

>  <b_lp_Chiralities_Consistent>  (243) 
1

>  <s_lp_Variant>  (243) 
66:0-1

>  <s_i_glide_gridfile>  (243) 
pfpi4k_grid

>  <i_i_glide_lignum>  (243) 
12

>  <i_i_glide_rotatable_bonds>  (243) 
1

>  <r_i_docking_score>  (243) 
-3.43058

>  <r_i_glide_ligand_efficiency>  (243) 
-0.155935

>  <r_i_glide_ligand_efficiency_sa>  (243) 
-0.436937

>  <r_i_glide_ligand_efficiency_ln>  (243) 
-0.838559

>  <r_i_glide_gscore>  (243) 
-3.43058

>  <r_i_glide_lipo>  (243) 
-0.700517

>  <r_i_glide_hbond>  (243) 
-0.0380854

>  <r_i_glide_metal>  (243) 
-0

>  <r_i_glide_rewards>  (243) 
-1.37469

>  <r_i_glide_evdw>  (243) 
-24.9595

>  <r_i_glide_ecoul>  (243) 
-1.18214

>  <r_i_glide_erotb>  (243) 
0.206111

>  <r_i_glide_esite>  (243) 
-0.0981087

>  <r_i_glide_emodel>  (243) 
-31.5798

>  <r_i_glide_energy>  (243) 
-26.1416

>  <r_i_glide_einternal>  (243) 
0.531763

>  <r_i_glide_intrahb_reward>  (243) 
-0

>  <i_i_glide_confnum>  (243) 
1

>  <i_i_glide_posenum>  (243) 
25

>  <r_i_glide_eff_state_penalty>  (243) 
0

>  <ligand_id>  (243) 
66

>  <original_smiles>  (243) 
CC1=C(c2ccccc2)NC2OC34CCN2CCCC3C1O4

>  <smiles>  (243) 
[H]c1c([H])c([H])c(C2=C(C([H])([H])[H])C3([H])OC45OC([H])(N2[H])N(C([H])([H])C([H])([H])C([H])([H])C34[H])C([H])([H])C5([H])[H])c([H])c1[H]

$$$$
66:1:0
     RDKit          3D

 44 48  0  0  1  0  0  0  0  0999 V2000
    3.4044   -1.0749    1.2712 C   0  0  0  0  0  0  0  0  0  0  0  0
    3.6653   -2.5801    1.1490 C   0  0  0  0  0  0  0  0  0  0  0  0
    3.6915   -3.2567   -0.0763 C   0  0  0  0  0  0  0  0  0  0  0  0
    3.5986   -2.5403   -1.3779 C   0  0  0  0  0  0  0  0  0  0  0  0
    4.3227   -1.3539   -1.6484 C   0  0  0  0  0  0  0  0  0  0  0  0
    4.1406   -0.6646   -2.8651 C   0  0  0  0  0  0  0  0  0  0  0  0
    3.3104   -1.1978   -3.8630 C   0  0  0  0  0  0  0  0  0  0  0  0
    2.6215   -2.4001   -3.6224 C   0  0  0  0  0  0  0  0  0  0  0  0
    2.7507   -3.0527   -2.3855 C   0  0  0  0  0  0  0  0  0  0  0  0
    3.9184   -4.6521   -0.2940 N   0  0  0  0  0  0  0  0  0  0  0  0
    5.0241   -5.3937    0.3125 C   0  0  1  0  0  0  0  0  0  0  0  0
    5.6812   -4.5570    1.1803 O   0  0  0  0  0  0  0  0  0  0  0  0
    5.1224   -4.6633    2.4788 C   0  0  2  0  0  0  0  0  0  0  0  0
    5.9017   -5.8897    2.9972 C   0  0  0  0  0  0  0  0  0  0  0  0
    5.8234   -7.0360    1.9213 C   0  0  0  0  0  0  0  0  0  0  0  0
    4.7832   -6.7392    0.9157 N   0  0  0  0  0  0  0  0  0  0  0  0
    3.4374   -7.1675    1.3813 C   0  0  0  0  0  0  0  0  0  0  0  0
    3.0230   -7.0430    2.9078 C   0  0  0  0  0  0  0  0  0  0  0  0
    2.9236   -5.6210    3.5402 C   0  0  0  0  0  0  0  0  0  0  0  0
    3.5590   -4.6668    2.5796 C   0  0  1  0  0  0  0  0  0  0  0  0
    3.7529   -3.1805    2.6015 C   0  0  1  0  0  0  0  0  0  0  0  0
    5.1095   -3.3742    3.1316 O   0  0  0  0  0  0  0  0  0  0  0  0
    2.6342   -0.8839    2.0212 H   0  0  0  0  0  0  0  0  0  0  0  0
    3.0205   -0.6016    0.3680 H   0  0  0  0  0  0  0  0  0  0  0  0
    4.3127   -0.5570    1.5879 H   0  0  0  0  0  0  0  0  0  0  0  0
    4.9763   -0.9309   -0.9036 H   0  0  0  0  0  0  0  0  0  0  0  0
    4.6158    0.2919   -3.0108 H   0  0  0  0  0  0  0  0  0  0  0  0
    3.1633   -0.6626   -4.7908 H   0  0  0  0  0  0  0  0  0  0  0  0
    1.9590   -2.8169   -4.3624 H   0  0  0  0  0  0  0  0  0  0  0  0
    2.1637   -3.9431   -2.2132 H   0  0  0  0  0  0  0  0  0  0  0  0
    5.7359   -5.5383   -0.4993 H   0  0  0  0  0  0  0  0  0  0  0  0
    6.9434   -5.6317    3.1885 H   0  0  0  0  0  0  0  0  0  0  0  0
    5.5084   -6.2468    3.9514 H   0  0  0  0  0  0  0  0  0  0  0  0
    6.7804   -7.0660    1.3957 H   0  0  0  0  0  0  0  0  0  0  0  0
    5.6972   -8.0226    2.3771 H   0  0  0  0  0  0  0  0  0  0  0  0
    2.6711   -6.7448    0.7351 H   0  0  0  0  0  0  0  0  0  0  0  0
    3.4195   -8.2382    1.1721 H   0  0  0  0  0  0  0  0  0  0  0  0
    2.0472   -7.5157    3.0183 H   0  0  0  0  0  0  0  0  0  0  0  0
    3.6809   -7.6579    3.5179 H   0  0  0  0  0  0  0  0  0  0  0  0
    1.8786   -5.3524    3.7016 H   0  0  0  0  0  0  0  0  0  0  0  0
    3.4118   -5.5889    4.5152 H   0  0  0  0  0  0  0  0  0  0  0  0
    2.8980   -4.7815    1.7402 H   0  0  0  0  0  0  0  0  0  0  0  0
    3.0782   -2.6971    3.3130 H   0  0  0  0  0  0  0  0  0  0  0  0
    3.7817   -4.9191   -1.2645 H   0  0  0  0  0  0  0  0  0  0  0  0
  1 23  1  0
  1 24  1  0
  1 25  1  0
  1  2  1  0
  2 21  1  0
  2  3  2  0
  3  4  1  0
  3 10  1  0
  4  9  1  0
  4  5  2  0
  5  6  1  0
  5 26  1  0
  6  7  2  0
  6 27  1  0
  7  8  1  0
  7 28  1  0
  8  9  2  0
  8 29  1  0
  9 30  1  0
 10 11  1  0
 10 44  1  0
 11 16  1  0
 11 12  1  0
 11 31  1  6
 12 13  1  0
 13 20  1  0
 13 22  1  1
 13 14  1  0
 14 15  1  0
 14 32  1  0
 14 33  1  0
 15 16  1  0
 15 34  1  0
 15 35  1  0
 16 17  1  0
 17 18  1  0
 17 36  1  0
 17 37  1  0
 18 19  1  0
 18 38  1  0
 18 39  1  0
 19 20  1  0
 19 40  1  0
 19 41  1  0
 20 21  1  0
 20 42  1  6
 21 22  1  0
 21 43  1  1
M  END
>  <i_m_ct_stereo_status>  (244) 
1

>  <s_m_source_file>  (244) 
/var/tmp/pbs.5076255.sched01/tmp7zsp0c9b/86_oh4d05k.sdf

>  <i_m_source_file_index>  (244) 
13

>  <i_lp_mmshare_version>  (244) 
48012

>  <i_f3d_flags>  (244) 
0

>  <s_epik_input>  (244) 
W0NIMl0xW0NIMl1bQ0gyXU4oW0NIMl1bQ0gyXTIpW0NASF0oTzMpW05IXUMoPUMoXFtDSDNdKVtDQEhdKE80KVtDQEhdMVtDQEBdMjM0KVxjNVtjSF1bY0hdW2NIXVtjSF1bY0hdNQ==

>  <s_epik_cmdline>  (244) 
J2VwaWtfcHl0aG9uJywgJy1waHQnLCAnMi4wJywgJy1waCcsICc3LjAnLCAnLXRuJywgJzgnLCAnLW1hJywgJzIwMCcsICctaW1hZScsICc8aW5maWxlLm1hZT4nLCAnLW9tYWUnLCAnPG91dGZpbGUubWFlPic=

>  <r_lp_tautomer_probability>  (244) 
1

>  <r_epik_Ionization_Penalty>  (244) 
2.03229e-06

>  <r_epik_Ionization_Penalty_Charging>  (244) 
5.98406e-12

>  <r_epik_Ionization_Penalty_Neutral>  (244) 
2.03229e-06

>  <r_epik_State_Penalty>  (244) 
-0

>  <r_epik_Charging_Adjusted_Penalty>  (244) 
5.98406e-12

>  <i_epik_Tot_Q>  (244) 
0

>  <i_epik_Tot_abs_Q>  (244) 
0

>  <s_epik_Chemistry_Notes>  (244) 
This compound has an imine and may undergo hydrolysis. This compound contains an acetal/aminal-like group ( X-CH(R)-Y where X, Y are N, S, or O) that may be acid/base labile, releasing an aldehyde.

>  <s_lp_Force_Field>  (244) 
OPLS3e

>  <r_lp_Energy>  (244) 
96.7568

>  <b_lp_Chiralities_Consistent>  (244) 
1

>  <s_lp_Variant>  (244) 
66:0-2

>  <s_i_glide_gridfile>  (244) 
pfpi4k_grid

>  <i_i_glide_lignum>  (244) 
13

>  <i_i_glide_rotatable_bonds>  (244) 
1

>  <r_i_docking_score>  (244) 
-4.24377

>  <r_i_glide_ligand_efficiency>  (244) 
-0.192898

>  <r_i_glide_ligand_efficiency_sa>  (244) 
-0.540509

>  <r_i_glide_ligand_efficiency_ln>  (244) 
-1.03733

>  <r_i_glide_gscore>  (244) 
-4.24377

>  <r_i_glide_lipo>  (244) 
-0.73468

>  <r_i_glide_hbond>  (244) 
-0.317374

>  <r_i_glide_metal>  (244) 
-0

>  <r_i_glide_rewards>  (244) 
-1.5126

>  <r_i_glide_evdw>  (244) 
-25.7834

>  <r_i_glide_ecoul>  (244) 
-3.78304

>  <r_i_glide_erotb>  (244) 
0.206111

>  <r_i_glide_esite>  (244) 
-0.0285961

>  <r_i_glide_emodel>  (244) 
-36.6623

>  <r_i_glide_energy>  (244) 
-29.5664

>  <r_i_glide_einternal>  (244) 
0.210166

>  <r_i_glide_intrahb_reward>  (244) 
-0

>  <i_i_glide_confnum>  (244) 
3

>  <i_i_glide_posenum>  (244) 
10

>  <r_i_glide_eff_state_penalty>  (244) 
0

>  <ligand_id>  (244) 
66

>  <original_smiles>  (244) 
CC1=C(c2ccccc2)NC2OC34CCN2CCCC3C1O4

>  <smiles>  (244) 
[H]c1c([H])c([H])c(C2=C(C([H])([H])[H])C3([H])OC45OC([H])(N2[H])N(C([H])([H])C([H])([H])C([H])([H])C34[H])C([H])([H])C5([H])[H])c([H])c1[H]

$$$$
66:1:1
     RDKit          3D

 44 48  0  0  1  0  0  0  0  0999 V2000
    6.4430   -1.8098    0.1386 C   0  0  0  0  0  0  0  0  0  0  0  0
    5.1569   -1.5197    0.9113 C   0  0  0  0  0  0  0  0  0  0  0  0
    3.9035   -1.4960    0.2965 C   0  0  0  0  0  0  0  0  0  0  0  0
    3.7694   -1.7324   -1.1565 C   0  0  0  0  0  0  0  0  0  0  0  0
    3.0241   -2.8440   -1.6133 C   0  0  0  0  0  0  0  0  0  0  0  0
    2.8453   -3.0531   -2.9937 C   0  0  0  0  0  0  0  0  0  0  0  0
    3.4290   -2.1690   -3.9177 C   0  0  0  0  0  0  0  0  0  0  0  0
    4.1628   -1.0600   -3.4769 C   0  0  0  0  0  0  0  0  0  0  0  0
    4.3199   -0.8340   -2.0974 C   0  0  0  0  0  0  0  0  0  0  0  0
    2.6359   -1.2459    0.8959 N   0  0  0  0  0  0  0  0  0  0  0  0
    2.1796   -1.9719    2.0935 C   0  0  1  0  0  0  0  0  0  0  0  0
    3.2125   -2.7593    2.5403 O   0  0  0  0  0  0  0  0  0  0  0  0
    4.0039   -2.0445    3.4789 C   0  0  2  0  0  0  0  0  0  0  0  0
    3.1867   -2.3210    4.7595 C   0  0  0  0  0  0  0  0  0  0  0  0
    1.6721   -2.0019    4.4763 C   0  0  0  0  0  0  0  0  0  0  0  0
    1.5244   -1.2428    3.2175 N   0  0  0  0  0  0  0  0  0  0  0  0
    1.7253    0.2151    3.4256 C   0  0  0  0  0  0  0  0  0  0  0  0
    2.7919    0.7435    4.4749 C   0  0  0  0  0  0  0  0  0  0  0  0
    4.2976    0.4439    4.2155 C   0  0  0  0  0  0  0  0  0  0  0  0
    4.3694   -0.5686    3.1188 C   0  0  1  0  0  0  0  0  0  0  0  0
    5.5157   -1.2305    2.4165 C   0  0  1  0  0  0  0  0  0  0  0  0
    5.4020   -2.3746    3.3276 O   0  0  0  0  0  0  0  0  0  0  0  0
    7.1749   -1.0345    0.3704 H   0  0  0  0  0  0  0  0  0  0  0  0
    6.3400   -1.8366   -0.9427 H   0  0  0  0  0  0  0  0  0  0  0  0
    6.8620   -2.7709    0.4353 H   0  0  0  0  0  0  0  0  0  0  0  0
    2.5786   -3.5346   -0.9109 H   0  0  0  0  0  0  0  0  0  0  0  0
    2.2613   -3.8868   -3.3499 H   0  0  0  0  0  0  0  0  0  0  0  0
    3.2952   -2.3486   -4.9702 H   0  0  0  0  0  0  0  0  0  0  0  0
    4.5950   -0.3782   -4.1913 H   0  0  0  0  0  0  0  0  0  0  0  0
    4.8666    0.0244   -1.7572 H   0  0  0  0  0  0  0  0  0  0  0  0
    1.4469   -2.6852    1.7208 H   0  0  0  0  0  0  0  0  0  0  0  0
    3.2954   -3.3591    5.0752 H   0  0  0  0  0  0  0  0  0  0  0  0
    3.5375   -1.7246    5.6051 H   0  0  0  0  0  0  0  0  0  0  0  0
    1.1522   -2.9530    4.3431 H   0  0  0  0  0  0  0  0  0  0  0  0
    1.1894   -1.5096    5.3261 H   0  0  0  0  0  0  0  0  0  0  0  0
    1.8278    0.7170    2.4651 H   0  0  0  0  0  0  0  0  0  0  0  0
    0.7634    0.5531    3.8128 H   0  0  0  0  0  0  0  0  0  0  0  0
    2.6814    1.8267    4.5310 H   0  0  0  0  0  0  0  0  0  0  0  0
    2.5327    0.3965    5.4730 H   0  0  0  0  0  0  0  0  0  0  0  0
    4.8080    1.3561    3.9190 H   0  0  0  0  0  0  0  0  0  0  0  0
    4.7952    0.0943    5.1212 H   0  0  0  0  0  0  0  0  0  0  0  0
    3.9226   -0.0167    2.3109 H   0  0  0  0  0  0  0  0  0  0  0  0
    6.4404   -0.6612    2.5386 H   0  0  0  0  0  0  0  0  0  0  0  0
    1.8957   -1.1521    0.1793 H   0  0  0  0  0  0  0  0  0  0  0  0
  1 23  1  0
  1 24  1  0
  1 25  1  0
  1  2  1  0
  2 21  1  0
  2  3  2  0
  3  4  1  0
  3 10  1  0
  4  9  1  0
  4  5  2  0
  5  6  1  0
  5 26  1  0
  6  7  2  0
  6 27  1  0
  7  8  1  0
  7 28  1  0
  8  9  2  0
  8 29  1  0
  9 30  1  0
 10 11  1  0
 10 44  1  0
 11 16  1  0
 11 12  1  0
 11 31  1  6
 12 13  1  0
 13 20  1  0
 13 22  1  1
 13 14  1  0
 14 15  1  0
 14 32  1  0
 14 33  1  0
 15 16  1  0
 15 34  1  0
 15 35  1  0
 16 17  1  0
 17 18  1  0
 17 36  1  0
 17 37  1  0
 18 19  1  0
 18 38  1  0
 18 39  1  0
 19 20  1  0
 19 40  1  0
 19 41  1  0
 20 21  1  0
 20 42  1  6
 21 22  1  0
 21 43  1  6
M  END
>  <i_m_ct_stereo_status>  (245) 
1

>  <s_m_source_file>  (245) 
/var/tmp/pbs.5076255.sched01/tmp7zsp0c9b/86_oh4d05k.sdf

>  <i_m_source_file_index>  (245) 
13

>  <i_lp_mmshare_version>  (245) 
48012

>  <i_f3d_flags>  (245) 
0

>  <s_epik_input>  (245) 
W0NIMl0xW0NIMl1bQ0gyXU4oW0NIMl1bQ0gyXTIpW0NASF0oTzMpW05IXUMoPUMoXFtDSDNdKVtDQEhdKE80KVtDQEhdMVtDQEBdMjM0KVxjNVtjSF1bY0hdW2NIXVtjSF1bY0hdNQ==

>  <s_epik_cmdline>  (245) 
J2VwaWtfcHl0aG9uJywgJy1waHQnLCAnMi4wJywgJy1waCcsICc3LjAnLCAnLXRuJywgJzgnLCAnLW1hJywgJzIwMCcsICctaW1hZScsICc8aW5maWxlLm1hZT4nLCAnLW9tYWUnLCAnPG91dGZpbGUubWFlPic=

>  <r_lp_tautomer_probability>  (245) 
1

>  <r_epik_Ionization_Penalty>  (245) 
2.03229e-06

>  <r_epik_Ionization_Penalty_Charging>  (245) 
5.98406e-12

>  <r_epik_Ionization_Penalty_Neutral>  (245) 
2.03229e-06

>  <r_epik_State_Penalty>  (245) 
-0

>  <r_epik_Charging_Adjusted_Penalty>  (245) 
5.98406e-12

>  <i_epik_Tot_Q>  (245) 
0

>  <i_epik_Tot_abs_Q>  (245) 
0

>  <s_epik_Chemistry_Notes>  (245) 
This compound has an imine and may undergo hydrolysis. This compound contains an acetal/aminal-like group ( X-CH(R)-Y where X, Y are N, S, or O) that may be acid/base labile, releasing an aldehyde.

>  <s_lp_Force_Field>  (245) 
OPLS3e

>  <r_lp_Energy>  (245) 
96.7568

>  <b_lp_Chiralities_Consistent>  (245) 
1

>  <s_lp_Variant>  (245) 
66:0-2

>  <s_i_glide_gridfile>  (245) 
pfpi4k_grid

>  <i_i_glide_lignum>  (245) 
13

>  <i_i_glide_rotatable_bonds>  (245) 
1

>  <r_i_docking_score>  (245) 
-3.84532

>  <r_i_glide_ligand_efficiency>  (245) 
-0.174787

>  <r_i_glide_ligand_efficiency_sa>  (245) 
-0.489761

>  <r_i_glide_ligand_efficiency_ln>  (245) 
-0.939937

>  <r_i_glide_gscore>  (245) 
-3.84532

>  <r_i_glide_lipo>  (245) 
-0.592685

>  <r_i_glide_hbond>  (245) 
-0.159973

>  <r_i_glide_metal>  (245) 
-0

>  <r_i_glide_rewards>  (245) 
-1.37496

>  <r_i_glide_evdw>  (245) 
-21.947

>  <r_i_glide_ecoul>  (245) 
-4.90992

>  <r_i_glide_erotb>  (245) 
0.206111

>  <r_i_glide_esite>  (245) 
-0.0899721

>  <r_i_glide_emodel>  (245) 
-33.1466

>  <r_i_glide_energy>  (245) 
-26.8569

>  <r_i_glide_einternal>  (245) 
0.43983

>  <r_i_glide_intrahb_reward>  (245) 
-0

>  <i_i_glide_confnum>  (245) 
2

>  <i_i_glide_posenum>  (245) 
34

>  <r_i_glide_eff_state_penalty>  (245) 
0

>  <ligand_id>  (245) 
66

>  <original_smiles>  (245) 
CC1=C(c2ccccc2)NC2OC34CCN2CCCC3C1O4

>  <smiles>  (245) 
[H]c1c([H])c([H])c(C2=C(C([H])([H])[H])C3([H])OC45OC([H])(N2[H])N(C([H])([H])C([H])([H])C([H])([H])C34[H])C([H])([H])C5([H])[H])c([H])c1[H]

$$$$
66:1:2
     RDKit          3D

 44 48  0  0  1  0  0  0  0  0999 V2000
    6.8792   -2.7482   -0.8240 C   0  0  0  0  0  0  0  0  0  0  0  0
    5.6517   -3.3093   -0.0911 C   0  0  0  0  0  0  0  0  0  0  0  0
    4.3396   -3.1140   -0.5199 C   0  0  0  0  0  0  0  0  0  0  0  0
    4.0257   -2.3047   -1.7222 C   0  0  0  0  0  0  0  0  0  0  0  0
    3.2374   -2.8589   -2.7537 C   0  0  0  0  0  0  0  0  0  0  0  0
    2.9445   -2.1171   -3.9164 C   0  0  0  0  0  0  0  0  0  0  0  0
    3.4239   -0.8054   -4.0601 C   0  0  0  0  0  0  0  0  0  0  0  0
    4.2011   -0.2491   -3.0333 C   0  0  0  0  0  0  0  0  0  0  0  0
    4.4667   -0.9742   -1.8517 C   0  0  0  0  0  0  0  0  0  0  0  0
    3.1368   -3.6033    0.0705 N   0  0  0  0  0  0  0  0  0  0  0  0
    2.9435   -5.0222    0.4092 C   0  0  1  0  0  0  0  0  0  0  0  0
    4.1338   -5.6807    0.2042 O   0  0  0  0  0  0  0  0  0  0  0  0
    4.9202   -5.6626    1.3859 C   0  0  2  0  0  0  0  0  0  0  0  0
    4.3182   -6.8852    2.1057 C   0  0  0  0  0  0  0  0  0  0  0  0
    2.7491   -6.7654    2.0972 C   0  0  0  0  0  0  0  0  0  0  0  0
    2.3241   -5.4008    1.7132 N   0  0  0  0  0  0  0  0  0  0  0  0
    2.3357   -4.4755    2.8758 C   0  0  0  0  0  0  0  0  0  0  0  0
    3.4343   -4.6008    4.0137 C   0  0  0  0  0  0  0  0  0  0  0  0
    4.9251   -4.3302    3.6450 C   0  0  0  0  0  0  0  0  0  0  0  0
    5.0109   -4.2960    2.1512 C   0  0  1  0  0  0  0  0  0  0  0  0
    6.1463   -4.0613    1.2025 C   0  0  1  0  0  0  0  0  0  0  0  0
    6.3213   -5.5156    1.0668 O   0  0  0  0  0  0  0  0  0  0  0  0
    7.4949   -2.2033   -0.1032 H   0  0  0  0  0  0  0  0  0  0  0  0
    6.6831   -2.0746   -1.6552 H   0  0  0  0  0  0  0  0  0  0  0  0
    7.4814   -3.5556   -1.2383 H   0  0  0  0  0  0  0  0  0  0  0  0
    2.8466   -3.8598   -2.6775 H   0  0  0  0  0  0  0  0  0  0  0  0
    2.3373   -2.5742   -4.6758 H   0  0  0  0  0  0  0  0  0  0  0  0
    3.1870   -0.2328   -4.9454 H   0  0  0  0  0  0  0  0  0  0  0  0
    4.5532    0.7675   -3.1186 H   0  0  0  0  0  0  0  0  0  0  0  0
    5.0193   -0.5004   -1.0600 H   0  0  0  0  0  0  0  0  0  0  0  0
    2.2865   -5.4107   -0.3732 H   0  0  0  0  0  0  0  0  0  0  0  0
    4.6229   -7.8060    1.6122 H   0  0  0  0  0  0  0  0  0  0  0  0
    4.6776   -6.9681    3.1327 H   0  0  0  0  0  0  0  0  0  0  0  0
    2.3706   -7.4502    1.3348 H   0  0  0  0  0  0  0  0  0  0  0  0
    2.3112   -7.0914    3.0471 H   0  0  0  0  0  0  0  0  0  0  0  0
    2.2394   -3.4470    2.5304 H   0  0  0  0  0  0  0  0  0  0  0  0
    1.3928   -4.6872    3.3806 H   0  0  0  0  0  0  0  0  0  0  0  0
    3.1616   -3.9018    4.8040 H   0  0  0  0  0  0  0  0  0  0  0  0
    3.3597   -5.5786    4.4873 H   0  0  0  0  0  0  0  0  0  0  0  0
    5.2493   -3.3763    4.0634 H   0  0  0  0  0  0  0  0  0  0  0  0
    5.5739   -5.0986    4.0663 H   0  0  0  0  0  0  0  0  0  0  0  0
    4.3945   -3.4376    1.9524 H   0  0  0  0  0  0  0  0  0  0  0  0
    6.9806   -3.5624    1.6996 H   0  0  0  0  0  0  0  0  0  0  0  0
    2.3421   -3.2178   -0.4230 H   0  0  0  0  0  0  0  0  0  0  0  0
  1 23  1  0
  1 24  1  0
  1 25  1  0
  1  2  1  0
  2 21  1  0
  2  3  2  0
  3  4  1  0
  3 10  1  0
  4  9  1  0
  4  5  2  0
  5  6  1  0
  5 26  1  0
  6  7  2  0
  6 27  1  0
  7  8  1  0
  7 28  1  0
  8  9  2  0
  8 29  1  0
  9 30  1  0
 10 11  1  0
 10 44  1  0
 11 16  1  0
 11 12  1  0
 11 31  1  6
 12 13  1  0
 13 20  1  0
 13 22  1  6
 13 14  1  0
 14 15  1  0
 14 32  1  0
 14 33  1  0
 15 16  1  0
 15 34  1  0
 15 35  1  0
 16 17  1  0
 17 18  1  0
 17 36  1  0
 17 37  1  0
 18 19  1  0
 18 38  1  0
 18 39  1  0
 19 20  1  0
 19 40  1  0
 19 41  1  0
 20 21  1  0
 20 42  1  6
 21 22  1  0
 21 43  1  1
M  END
>  <i_m_ct_stereo_status>  (246) 
1

>  <s_m_source_file>  (246) 
/var/tmp/pbs.5076255.sched01/tmp7zsp0c9b/86_oh4d05k.sdf

>  <i_m_source_file_index>  (246) 
13

>  <i_lp_mmshare_version>  (246) 
48012

>  <i_f3d_flags>  (246) 
0

>  <s_epik_input>  (246) 
W0NIMl0xW0NIMl1bQ0gyXU4oW0NIMl1bQ0gyXTIpW0NASF0oTzMpW05IXUMoPUMoXFtDSDNdKVtDQEhdKE80KVtDQEhdMVtDQEBdMjM0KVxjNVtjSF1bY0hdW2NIXVtjSF1bY0hdNQ==

>  <s_epik_cmdline>  (246) 
J2VwaWtfcHl0aG9uJywgJy1waHQnLCAnMi4wJywgJy1waCcsICc3LjAnLCAnLXRuJywgJzgnLCAnLW1hJywgJzIwMCcsICctaW1hZScsICc8aW5maWxlLm1hZT4nLCAnLW9tYWUnLCAnPG91dGZpbGUubWFlPic=

>  <r_lp_tautomer_probability>  (246) 
1

>  <r_epik_Ionization_Penalty>  (246) 
2.03229e-06

>  <r_epik_Ionization_Penalty_Charging>  (246) 
5.98406e-12

>  <r_epik_Ionization_Penalty_Neutral>  (246) 
2.03229e-06

>  <r_epik_State_Penalty>  (246) 
-0

>  <r_epik_Charging_Adjusted_Penalty>  (246) 
5.98406e-12

>  <i_epik_Tot_Q>  (246) 
0

>  <i_epik_Tot_abs_Q>  (246) 
0

>  <s_epik_Chemistry_Notes>  (246) 
This compound has an imine and may undergo hydrolysis. This compound contains an acetal/aminal-like group ( X-CH(R)-Y where X, Y are N, S, or O) that may be acid/base labile, releasing an aldehyde.

>  <s_lp_Force_Field>  (246) 
OPLS3e

>  <r_lp_Energy>  (246) 
96.7568

>  <b_lp_Chiralities_Consistent>  (246) 
1

>  <s_lp_Variant>  (246) 
66:0-2

>  <s_i_glide_gridfile>  (246) 
pfpi4k_grid

>  <i_i_glide_lignum>  (246) 
13

>  <i_i_glide_rotatable_bonds>  (246) 
1

>  <r_i_docking_score>  (246) 
-3.59059

>  <r_i_glide_ligand_efficiency>  (246) 
-0.163209

>  <r_i_glide_ligand_efficiency_sa>  (246) 
-0.457317

>  <r_i_glide_ligand_efficiency_ln>  (246) 
-0.877672

>  <r_i_glide_gscore>  (246) 
-3.59059

>  <r_i_glide_lipo>  (246) 
-0.706997

>  <r_i_glide_hbond>  (246) 
0

>  <r_i_glide_metal>  (246) 
-0

>  <r_i_glide_rewards>  (246) 
-1.44769

>  <r_i_glide_evdw>  (246) 
-26.4856

>  <r_i_glide_ecoul>  (246) 
-1.88494

>  <r_i_glide_erotb>  (246) 
0.206111

>  <r_i_glide_esite>  (246) 
-0.0349952

>  <r_i_glide_emodel>  (246) 
-34.1949

>  <r_i_glide_energy>  (246) 
-28.3706

>  <r_i_glide_einternal>  (246) 
0.21643

>  <r_i_glide_intrahb_reward>  (246) 
-0

>  <i_i_glide_confnum>  (246) 
6

>  <i_i_glide_posenum>  (246) 
5

>  <r_i_glide_eff_state_penalty>  (246) 
0

>  <ligand_id>  (246) 
66

>  <original_smiles>  (246) 
CC1=C(c2ccccc2)NC2OC34CCN2CCCC3C1O4

>  <smiles>  (246) 
[H]c1c([H])c([H])c(C2=C(C([H])([H])[H])C3([H])OC45OC([H])(N2[H])N(C([H])([H])C([H])([H])C([H])([H])C34[H])C([H])([H])C5([H])[H])c([H])c1[H]

$$$$
67:0:0
     RDKit          3D

 67 72  0  0  1  0  0  0  0  0999 V2000
   -1.7139   -8.5069    3.5035 C   0  0  0  0  0  0  0  0  0  0  0  0
   -0.2484   -8.2247    3.8785 C   0  0  2  0  0  0  0  0  0  0  0  0
   -0.1865   -7.0193    4.8755 C   0  0  0  0  0  0  0  0  0  0  0  0
    1.1438   -6.6566    5.6239 C   0  0  1  0  0  0  0  0  0  0  0  0
    1.3005   -7.4430    6.7813 O   0  0  0  0  0  0  0  0  0  0  0  0
    2.4982   -6.5008    4.8411 C   0  0  1  0  0  0  0  0  0  0  0  0
    3.2292   -7.7072    4.9114 O   0  0  0  0  0  0  0  0  0  0  0  0
    2.4056   -8.6531    4.0884 O   0  0  0  0  0  0  0  0  0  0  0  0
    2.0767   -7.9096    2.9208 C   0  0  1  0  0  0  0  0  0  0  0  0
    3.0426   -8.4495    1.8480 C   0  0  0  0  0  0  0  0  0  0  0  0
    4.3593   -7.6818    1.7560 C   0  0  0  0  0  0  0  0  0  0  0  0
    4.2194   -6.1460    1.6265 C   0  0  2  0  0  0  0  0  0  0  0  0
    5.5380   -5.3745    2.0392 C   0  0  1  0  0  0  0  0  0  0  0  0
    5.8218   -5.5397    3.5660 C   0  0  0  0  0  0  0  0  0  0  0  0
    6.7617   -6.0119    1.3178 C   0  0  0  0  0  0  0  0  0  0  0  0
    7.9500   -5.0532    1.1563 C   0  0  0  0  0  0  0  0  0  0  0  0
    7.6194   -3.8207    0.3174 C   0  0  0  0  0  0  0  0  0  0  0  0
    6.1133   -3.4236    0.3324 C   0  0  0  0  0  0  0  0  0  0  0  0
    6.0707   -1.8941    0.1806 C   0  0  0  0  0  0  0  0  0  0  0  0
    5.3940   -4.0004   -0.9271 C   0  0  0  0  0  0  0  0  0  0  0  0
    5.4289   -3.8555    1.6892 C   0  0  1  0  0  0  0  0  0  0  0  0
    3.9819   -3.2859    1.8338 C   0  0  0  0  0  0  0  0  0  0  0  0
    3.0566   -4.1080    2.7397 C   0  0  0  0  0  0  0  0  0  0  0  0
    2.8934   -5.5684    2.2639 C   0  0  1  0  0  0  0  0  0  0  0  0
    1.8521   -5.3899    1.2649 O   0  0  0  0  0  0  0  0  0  0  0  0
    0.9654   -6.3941    0.8272 C   0  0  0  0  0  0  0  0  0  0  0  0
    0.1112   -6.9608    1.7990 O   0  0  0  0  0  0  0  0  0  0  0  0
    0.6073   -8.0922    2.5769 C   0  0  2  0  0  0  0  0  0  0  0  0
    2.2161   -6.4414    3.3370 C   0  0  2  0  0  0  0  0  0  0  0  0
   -2.1704   -7.6675    2.9731 H   0  0  0  0  0  0  0  0  0  0  0  0
   -2.3044   -8.6993    4.3998 H   0  0  0  0  0  0  0  0  0  0  0  0
   -1.7974   -9.3923    2.8697 H   0  0  0  0  0  0  0  0  0  0  0  0
    0.0751   -9.1096    4.4352 H   0  0  0  0  0  0  0  0  0  0  0  0
   -0.5677   -6.1335    4.3576 H   0  0  0  0  0  0  0  0  0  0  0  0
   -0.9362   -7.1831    5.6478 H   0  0  0  0  0  0  0  0  0  0  0  0
    0.9367   -5.6678    6.0283 H   0  0  0  0  0  0  0  0  0  0  0  0
    1.4747   -8.3429    6.5154 H   0  0  0  0  0  0  0  0  0  0  0  0
    3.0801   -5.6757    5.2333 H   0  0  0  0  0  0  0  0  0  0  0  0
    3.2968   -9.4900    2.0705 H   0  0  0  0  0  0  0  0  0  0  0  0
    2.5616   -8.5260    0.8823 H   0  0  0  0  0  0  0  0  0  0  0  0
    4.9957   -7.9714    2.5940 H   0  0  0  0  0  0  0  0  0  0  0  0
    4.8705   -8.0419    0.8733 H   0  0  0  0  0  0  0  0  0  0  0  0
    4.0937   -5.9578    0.5588 H   0  0  0  0  0  0  0  0  0  0  0  0
    6.7844   -5.1355    3.8421 H   0  0  0  0  0  0  0  0  0  0  0  0
    5.8415   -6.5706    3.8930 H   0  0  0  0  0  0  0  0  0  0  0  0
    5.1018   -5.0425    4.2001 H   0  0  0  0  0  0  0  0  0  0  0  0
    7.1286   -6.8550    1.8897 H   0  0  0  0  0  0  0  0  0  0  0  0
    6.4922   -6.4160    0.3481 H   0  0  0  0  0  0  0  0  0  0  0  0
    8.3058   -4.7341    2.1357 H   0  0  0  0  0  0  0  0  0  0  0  0
    8.8018   -5.5767    0.7124 H   0  0  0  0  0  0  0  0  0  0  0  0
    8.2494   -2.9801    0.6280 H   0  0  0  0  0  0  0  0  0  0  0  0
    7.9133   -4.0219   -0.7107 H   0  0  0  0  0  0  0  0  0  0  0  0
    5.0553   -1.4969    0.0730 H   0  0  0  0  0  0  0  0  0  0  0  0
    6.6255   -1.5630   -0.7032 H   0  0  0  0  0  0  0  0  0  0  0  0
    6.5197   -1.3960    1.0445 H   0  0  0  0  0  0  0  0  0  0  0  0
    4.3290   -3.7611   -0.9715 H   0  0  0  0  0  0  0  0  0  0  0  0
    5.4596   -5.0776   -0.9910 H   0  0  0  0  0  0  0  0  0  0  0  0
    5.8313   -3.6085   -1.8510 H   0  0  0  0  0  0  0  0  0  0  0  0
    6.0152   -3.3294    2.4463 H   0  0  0  0  0  0  0  0  0  0  0  0
    4.0650   -2.2885    2.2577 H   0  0  0  0  0  0  0  0  0  0  0  0
    3.5008   -3.1456    0.8600 H   0  0  0  0  0  0  0  0  0  0  0  0
    3.3836   -4.0149    3.7731 H   0  0  0  0  0  0  0  0  0  0  0  0
    2.0885   -3.6114    2.7152 H   0  0  0  0  0  0  0  0  0  0  0  0
    0.2703   -5.8863    0.1659 H   0  0  0  0  0  0  0  0  0  0  0  0
    1.4213   -7.0687    0.1329 H   0  0  0  0  0  0  0  0  0  0  0  0
    0.4820   -9.0249    2.0132 H   0  0  0  0  0  0  0  0  0  0  0  0
    1.3000   -5.8778    3.3735 H   0  0  0  0  0  0  0  0  0  0  0  0
  1  2  1  0
  1 30  1  0
  1 31  1  0
  1 32  1  0
  2 28  1  0
  2  3  1  0
  2 33  1  1
  3  4  1  0
  3 34  1  0
  3 35  1  0
  4  5  1  0
  4  6  1  0
  4 36  1  1
  5 37  1  0
  6 29  1  0
  6  7  1  0
  6 38  1  1
  7  8  1  0
  9  8  1  1
  9 28  1  0
  9 29  1  0
  9 10  1  0
 10 11  1  0
 10 39  1  0
 10 40  1  0
 11 12  1  0
 11 41  1  0
 11 42  1  0
 12 24  1  0
 12 13  1  0
 12 43  1  6
 13 21  1  0
 13 14  1  1
 13 15  1  0
 14 44  1  0
 14 45  1  0
 14 46  1  0
 15 16  1  0
 15 47  1  0
 15 48  1  0
 16 17  1  0
 16 49  1  0
 16 50  1  0
 17 18  1  0
 17 51  1  0
 17 52  1  0
 18 19  1  0
 18 20  1  0
 18 21  1  0
 19 53  1  0
 19 54  1  0
 19 55  1  0
 20 56  1  0
 20 57  1  0
 20 58  1  0
 21 22  1  0
 21 59  1  1
 22 23  1  0
 22 60  1  0
 22 61  1  0
 23 24  1  0
 23 62  1  0
 23 63  1  0
 24 25  1  6
 24 29  1  0
 25 26  1  0
 26 27  1  0
 26 64  1  0
 26 65  1  0
 27 28  1  0
 28 66  1  6
 29 67  1  1
M  END
>  <i_m_ct_stereo_status>  (247) 
1

>  <s_m_source_file>  (247) 
/var/tmp/pbs.5076255.sched01/tmp7zsp0c9b/86_oh4d05k.sdf

>  <i_m_source_file_index>  (247) 
14

>  <i_lp_mmshare_version>  (247) 
48012

>  <i_f3d_flags>  (247) 
0

>  <s_epik_input>  (247) 
W0NAXTEyM1tDQEhdNFtDQEhdKFtDSDNdKVtDSDJdW0NAQEhdKFtPSF0pW0NAQEhdKE9PMSlbQ0BIXTNbQ0BdNShPW0NIMl1PNClbQ0BIXShbQ0gyXVtDSDJdMilbQ0BdNihbQ0gzXSlbQ0BIXShbQ0gyXVtDSDJdNSlDKFtDSDNdKShbQ0gzXSlbQ0gyXVtDSDJdW0NIMl02

>  <s_epik_cmdline>  (247) 
J2VwaWtfcHl0aG9uJywgJy1waHQnLCAnMi4wJywgJy1waCcsICc3LjAnLCAnLXRuJywgJzgnLCAnLW1hJywgJzIwMCcsICctaW1hZScsICc8aW5maWxlLm1hZT4nLCAnLW9tYWUnLCAnPG91dGZpbGUubWFlPic=

>  <r_lp_tautomer_probability>  (247) 
1

>  <r_epik_Ionization_Penalty>  (247) 
7.21364e-08

>  <r_epik_Ionization_Penalty_Charging>  (247) 
0

>  <r_epik_Ionization_Penalty_Neutral>  (247) 
7.21364e-08

>  <r_epik_State_Penalty>  (247) 
-0

>  <r_epik_Charging_Adjusted_Penalty>  (247) 
0

>  <i_epik_Tot_Q>  (247) 
0

>  <i_epik_Tot_abs_Q>  (247) 
0

>  <s_epik_Chemistry_Notes>  (247) 
This compound contains an acetal/aminal-like group ( X-CH(R)-Y where X, Y are N, S, or O) that may be acid/base labile, releasing an aldehyde.

>  <s_lp_Force_Field>  (247) 
OPLS3e

>  <r_lp_Energy>  (247) 
100.419

>  <b_lp_Chiralities_Consistent>  (247) 
1

>  <s_lp_Variant>  (247) 
67:0-1

>  <s_i_glide_gridfile>  (247) 
pfpi4k_grid

>  <i_i_glide_lignum>  (247) 
14

>  <i_i_glide_rotatable_bonds>  (247) 
1

>  <r_i_docking_score>  (247) 
-2.82105

>  <r_i_glide_ligand_efficiency>  (247) 
-0.0972774

>  <r_i_glide_ligand_efficiency_sa>  (247) 
-0.298867

>  <r_i_glide_ligand_efficiency_ln>  (247) 
-0.645948

>  <r_i_glide_gscore>  (247) 
-2.82105

>  <r_i_glide_lipo>  (247) 
-0.693069

>  <r_i_glide_hbond>  (247) 
-0.0722303

>  <r_i_glide_metal>  (247) 
-0

>  <r_i_glide_rewards>  (247) 
-0.637121

>  <r_i_glide_evdw>  (247) 
-28.2902

>  <r_i_glide_ecoul>  (247) 
0.615473

>  <r_i_glide_erotb>  (247) 
0

>  <r_i_glide_esite>  (247) 
-0.0964359

>  <r_i_glide_emodel>  (247) 
-32.1293

>  <r_i_glide_energy>  (247) 
-27.6747

>  <r_i_glide_einternal>  (247) 
0.00138142

>  <r_i_glide_intrahb_reward>  (247) 
-0

>  <i_i_glide_confnum>  (247) 
2

>  <i_i_glide_posenum>  (247) 
33

>  <r_i_glide_eff_state_penalty>  (247) 
0

>  <ligand_id>  (247) 
67

>  <original_smiles>  (247) 
CC1CC(O)C2OOC34CCC5C6(C)CCCC(C)(C)C6CCC5(OCOC13)C24

>  <smiles>  (247) 
[H]OC1([H])C([H])([H])C([H])(C([H])([H])[H])C2([H])OC([H])([H])OC34C([H])([H])C([H])([H])C5([H])C(C([H])([H])[H])(C([H])([H])[H])C([H])([H])C([H])([H])C([H])([H])C5(C([H])([H])[H])C3([H])C([H])([H])C([H])([H])C23OOC1([H])C34[H]

$$$$
67:0:1
     RDKit          3D

 67 72  0  0  1  0  0  0  0  0999 V2000
    0.7674  -11.4452    4.3395 C   0  0  0  0  0  0  0  0  0  0  0  0
    2.0301  -10.5748    4.2530 C   0  0  2  0  0  0  0  0  0  0  0  0
    2.1234   -9.6629    5.5192 C   0  0  0  0  0  0  0  0  0  0  0  0
    3.4263   -8.8396    5.8248 C   0  0  1  0  0  0  0  0  0  0  0  0
    4.3771   -9.6328    6.5005 O   0  0  0  0  0  0  0  0  0  0  0  0
    4.1063   -7.9475    4.7181 C   0  0  1  0  0  0  0  0  0  0  0  0
    5.1473   -8.6578    4.0876 O   0  0  0  0  0  0  0  0  0  0  0  0
    4.4346   -9.7233    3.3275 O   0  0  0  0  0  0  0  0  0  0  0  0
    3.3508   -9.0560    2.7013 C   0  0  1  0  0  0  0  0  0  0  0  0
    3.8158   -8.9090    1.2359 C   0  0  0  0  0  0  0  0  0  0  0  0
    4.5674   -7.6108    0.9585 C   0  0  0  0  0  0  0  0  0  0  0  0
    3.8746   -6.3174    1.4451 C   0  0  2  0  0  0  0  0  0  0  0  0
    4.8731   -5.1062    1.6011 C   0  0  1  0  0  0  0  0  0  0  0  0
    5.8691   -5.3583    2.7732 C   0  0  0  0  0  0  0  0  0  0  0  0
    5.7564   -4.9734    0.3235 C   0  0  0  0  0  0  0  0  0  0  0  0
    6.3148   -3.5587    0.1112 C   0  0  0  0  0  0  0  0  0  0  0  0
    5.2193   -2.5102   -0.0900 C   0  0  0  0  0  0  0  0  0  0  0  0
    3.8660   -2.8552    0.5970 C   0  0  0  0  0  0  0  0  0  0  0  0
    3.2400   -1.5129    1.0224 C   0  0  0  0  0  0  0  0  0  0  0  0
    2.9060   -3.4898   -0.4518 C   0  0  0  0  0  0  0  0  0  0  0  0
    4.0918   -3.7709    1.8630 C   0  0  1  0  0  0  0  0  0  0  0  0
    2.7988   -3.9603    2.7107 C   0  0  0  0  0  0  0  0  0  0  0  0
    2.7432   -5.2562    3.5278 C   0  0  0  0  0  0  0  0  0  0  0  0
    2.8976   -6.5290    2.6631 C   0  0  1  0  0  0  0  0  0  0  0  0
    1.5256   -6.6818    2.2033 O   0  0  0  0  0  0  0  0  0  0  0  0
    0.9291   -7.9096    1.8067 C   0  0  0  0  0  0  0  0  0  0  0  0
    0.9133   -8.9642    2.7572 O   0  0  0  0  0  0  0  0  0  0  0  0
    2.0628   -9.8492    2.8659 C   0  0  2  0  0  0  0  0  0  0  0  0
    3.1542   -7.7783    3.5304 C   0  0  2  0  0  0  0  0  0  0  0  0
   -0.1303  -10.8253    4.3213 H   0  0  0  0  0  0  0  0  0  0  0  0
    0.7424  -12.0277    5.2661 H   0  0  0  0  0  0  0  0  0  0  0  0
    0.6996  -12.1484    3.5082 H   0  0  0  0  0  0  0  0  0  0  0  0
    2.8656  -11.2745    4.3084 H   0  0  0  0  0  0  0  0  0  0  0  0
    1.2665   -8.9838    5.5047 H   0  0  0  0  0  0  0  0  0  0  0  0
    1.9233  -10.2810    6.3978 H   0  0  0  0  0  0  0  0  0  0  0  0
    3.1009   -8.1414    6.5924 H   0  0  0  0  0  0  0  0  0  0  0  0
    3.9194  -10.2123    7.0985 H   0  0  0  0  0  0  0  0  0  0  0  0
    4.4772   -7.0199    5.1445 H   0  0  0  0  0  0  0  0  0  0  0  0
    4.4823   -9.7360    0.9838 H   0  0  0  0  0  0  0  0  0  0  0  0
    3.0141   -9.0529    0.5185 H   0  0  0  0  0  0  0  0  0  0  0  0
    5.5746   -7.7079    1.3623 H   0  0  0  0  0  0  0  0  0  0  0  0
    4.6841   -7.5384   -0.1164 H   0  0  0  0  0  0  0  0  0  0  0  0
    3.2096   -6.0376    0.6278 H   0  0  0  0  0  0  0  0  0  0  0  0
    6.6115   -4.5744    2.8229 H   0  0  0  0  0  0  0  0  0  0  0  0
    6.4167   -6.2886    2.6844 H   0  0  0  0  0  0  0  0  0  0  0  0
    5.4091   -5.3757    3.7505 H   0  0  0  0  0  0  0  0  0  0  0  0
    6.6080   -5.6411    0.3975 H   0  0  0  0  0  0  0  0  0  0  0  0
    5.2303   -5.2929   -0.5754 H   0  0  0  0  0  0  0  0  0  0  0  0
    6.9331   -3.2715    0.9621 H   0  0  0  0  0  0  0  0  0  0  0  0
    6.9821   -3.5411   -0.7528 H   0  0  0  0  0  0  0  0  0  0  0  0
    5.5894   -1.5376    0.2504 H   0  0  0  0  0  0  0  0  0  0  0  0
    5.0463   -2.3885   -1.1602 H   0  0  0  0  0  0  0  0  0  0  0  0
    2.2263   -1.6239    1.4172 H   0  0  0  0  0  0  0  0  0  0  0  0
    3.1653   -0.8230    0.1754 H   0  0  0  0  0  0  0  0  0  0  0  0
    3.8412   -1.0190    1.7893 H   0  0  0  0  0  0  0  0  0  0  0  0
    1.9462   -3.7827   -0.0295 H   0  0  0  0  0  0  0  0  0  0  0  0
    3.3231   -4.3706   -0.9245 H   0  0  0  0  0  0  0  0  0  0  0  0
    2.6779   -2.7860   -1.2561 H   0  0  0  0  0  0  0  0  0  0  0  0
    4.7484   -3.1688    2.4947 H   0  0  0  0  0  0  0  0  0  0  0  0
    2.7192   -3.1199    3.3973 H   0  0  0  0  0  0  0  0  0  0  0  0
    1.9054   -3.9115    2.0851 H   0  0  0  0  0  0  0  0  0  0  0  0
    3.4610   -5.1993    4.3418 H   0  0  0  0  0  0  0  0  0  0  0  0
    1.7816   -5.2773    4.0364 H   0  0  0  0  0  0  0  0  0  0  0  0
   -0.1293   -7.6727    1.6979 H   0  0  0  0  0  0  0  0  0  0  0  0
    1.2285   -8.2209    0.8101 H   0  0  0  0  0  0  0  0  0  0  0  0
    2.0188  -10.6143    2.0852 H   0  0  0  0  0  0  0  0  0  0  0  0
    2.2289   -7.7214    4.0830 H   0  0  0  0  0  0  0  0  0  0  0  0
  1  2  1  0
  1 30  1  0
  1 31  1  0
  1 32  1  0
  2 28  1  0
  2  3  1  0
  2 33  1  6
  3  4  1  0
  3 34  1  0
  3 35  1  0
  4  5  1  0
  4  6  1  0
  4 36  1  1
  5 37  1  0
  6 29  1  0
  6  7  1  0
  6 38  1  1
  7  8  1  0
  9  8  1  1
  9 28  1  0
  9 29  1  0
  9 10  1  0
 10 11  1  0
 10 39  1  0
 10 40  1  0
 11 12  1  0
 11 41  1  0
 11 42  1  0
 12 24  1  0
 12 13  1  0
 12 43  1  6
 13 21  1  0
 13 14  1  1
 13 15  1  0
 14 44  1  0
 14 45  1  0
 14 46  1  0
 15 16  1  0
 15 47  1  0
 15 48  1  0
 16 17  1  0
 16 49  1  0
 16 50  1  0
 17 18  1  0
 17 51  1  0
 17 52  1  0
 18 19  1  0
 18 20  1  0
 18 21  1  0
 19 53  1  0
 19 54  1  0
 19 55  1  0
 20 56  1  0
 20 57  1  0
 20 58  1  0
 21 22  1  0
 21 59  1  1
 22 23  1  0
 22 60  1  0
 22 61  1  0
 23 24  1  0
 23 62  1  0
 23 63  1  0
 24 25  1  6
 24 29  1  0
 25 26  1  0
 26 27  1  0
 26 64  1  0
 26 65  1  0
 27 28  1  0
 28 66  1  6
 29 67  1  1
M  END
>  <i_m_ct_stereo_status>  (248) 
1

>  <s_m_source_file>  (248) 
/var/tmp/pbs.5076255.sched01/tmp7zsp0c9b/86_oh4d05k.sdf

>  <i_m_source_file_index>  (248) 
14

>  <i_lp_mmshare_version>  (248) 
48012

>  <i_f3d_flags>  (248) 
0

>  <s_epik_input>  (248) 
W0NAXTEyM1tDQEhdNFtDQEhdKFtDSDNdKVtDSDJdW0NAQEhdKFtPSF0pW0NAQEhdKE9PMSlbQ0BIXTNbQ0BdNShPW0NIMl1PNClbQ0BIXShbQ0gyXVtDSDJdMilbQ0BdNihbQ0gzXSlbQ0BIXShbQ0gyXVtDSDJdNSlDKFtDSDNdKShbQ0gzXSlbQ0gyXVtDSDJdW0NIMl02

>  <s_epik_cmdline>  (248) 
J2VwaWtfcHl0aG9uJywgJy1waHQnLCAnMi4wJywgJy1waCcsICc3LjAnLCAnLXRuJywgJzgnLCAnLW1hJywgJzIwMCcsICctaW1hZScsICc8aW5maWxlLm1hZT4nLCAnLW9tYWUnLCAnPG91dGZpbGUubWFlPic=

>  <r_lp_tautomer_probability>  (248) 
1

>  <r_epik_Ionization_Penalty>  (248) 
7.21364e-08

>  <r_epik_Ionization_Penalty_Charging>  (248) 
0

>  <r_epik_Ionization_Penalty_Neutral>  (248) 
7.21364e-08

>  <r_epik_State_Penalty>  (248) 
-0

>  <r_epik_Charging_Adjusted_Penalty>  (248) 
0

>  <i_epik_Tot_Q>  (248) 
0

>  <i_epik_Tot_abs_Q>  (248) 
0

>  <s_epik_Chemistry_Notes>  (248) 
This compound contains an acetal/aminal-like group ( X-CH(R)-Y where X, Y are N, S, or O) that may be acid/base labile, releasing an aldehyde.

>  <s_lp_Force_Field>  (248) 
OPLS3e

>  <r_lp_Energy>  (248) 
100.419

>  <b_lp_Chiralities_Consistent>  (248) 
1

>  <s_lp_Variant>  (248) 
67:0-1

>  <s_i_glide_gridfile>  (248) 
pfpi4k_grid

>  <i_i_glide_lignum>  (248) 
14

>  <i_i_glide_rotatable_bonds>  (248) 
1

>  <r_i_docking_score>  (248) 
-2.71754

>  <r_i_glide_ligand_efficiency>  (248) 
-0.0937083

>  <r_i_glide_ligand_efficiency_sa>  (248) 
-0.287902

>  <r_i_glide_ligand_efficiency_ln>  (248) 
-0.622248

>  <r_i_glide_gscore>  (248) 
-2.71754

>  <r_i_glide_lipo>  (248) 
-0.422322

>  <r_i_glide_hbond>  (248) 
0

>  <r_i_glide_metal>  (248) 
-0

>  <r_i_glide_rewards>  (248) 
-0.637121

>  <r_i_glide_evdw>  (248) 
-27.2494

>  <r_i_glide_ecoul>  (248) 
-1.63763

>  <r_i_glide_erotb>  (248) 
0

>  <r_i_glide_esite>  (248) 
-0.049982

>  <r_i_glide_emodel>  (248) 
-32.8945

>  <r_i_glide_energy>  (248) 
-28.887

>  <r_i_glide_einternal>  (248) 
0.518509

>  <r_i_glide_intrahb_reward>  (248) 
-0

>  <i_i_glide_confnum>  (248) 
2

>  <i_i_glide_posenum>  (248) 
7

>  <r_i_glide_eff_state_penalty>  (248) 
0

>  <ligand_id>  (248) 
67

>  <original_smiles>  (248) 
CC1CC(O)C2OOC34CCC5C6(C)CCCC(C)(C)C6CCC5(OCOC13)C24

>  <smiles>  (248) 
[H]OC1([H])C([H])([H])C([H])(C([H])([H])[H])C2([H])OC([H])([H])OC34C([H])([H])C([H])([H])C5([H])C(C([H])([H])[H])(C([H])([H])[H])C([H])([H])C([H])([H])C([H])([H])C5(C([H])([H])[H])C3([H])C([H])([H])C([H])([H])C23OOC1([H])C34[H]

$$$$
67:0:2
     RDKit          3D

 67 72  0  0  1  0  0  0  0  0999 V2000
   -0.1502   -8.6081    4.9849 C   0  0  0  0  0  0  0  0  0  0  0  0
    1.1366   -7.7653    4.9338 C   0  0  2  0  0  0  0  0  0  0  0  0
    0.8649   -6.3588    5.5566 C   0  0  0  0  0  0  0  0  0  0  0  0
    2.0481   -5.3675    5.8659 C   0  0  1  0  0  0  0  0  0  0  0  0
    2.6281   -5.6488    7.1154 O   0  0  0  0  0  0  0  0  0  0  0  0
    3.1437   -5.0437    4.7811 C   0  0  1  0  0  0  0  0  0  0  0  0
    4.2682   -5.8674    4.9849 O   0  0  0  0  0  0  0  0  0  0  0  0
    3.7691   -7.2338    4.6219 O   0  0  0  0  0  0  0  0  0  0  0  0
    3.0502   -7.0423    3.4105 C   0  0  1  0  0  0  0  0  0  0  0  0
    4.0144   -7.5482    2.3111 C   0  0  0  0  0  0  0  0  0  0  0  0
    4.9345   -6.4686    1.7564 C   0  0  0  0  0  0  0  0  0  0  0  0
    4.2167   -5.1858    1.2826 C   0  0  2  0  0  0  0  0  0  0  0  0
    5.1827   -3.9445    1.1735 C   0  0  1  0  0  0  0  0  0  0  0  0
    5.6675   -3.4974    2.5705 C   0  0  0  0  0  0  0  0  0  0  0  0
    6.4766   -4.3434    0.4103 C   0  0  0  0  0  0  0  0  0  0  0  0
    7.1938   -3.1538   -0.2451 C   0  0  0  0  0  0  0  0  0  0  0  0
    6.3318   -2.4437   -1.2851 C   0  0  0  0  0  0  0  0  0  0  0  0
    4.8053   -2.5360   -1.0378 C   0  0  0  0  0  0  0  0  0  0  0  0
    4.1875   -1.2248   -1.5558 C   0  0  0  0  0  0  0  0  0  0  0  0
    4.2293   -3.6616   -1.9233 C   0  0  0  0  0  0  0  0  0  0  0  0
    4.4873   -2.7223    0.4892 C   0  0  1  0  0  0  0  0  0  0  0  0
    2.9726   -2.6248    0.8181 C   0  0  0  0  0  0  0  0  0  0  0  0
    2.5422   -3.3834    2.0816 C   0  0  0  0  0  0  0  0  0  0  0  0
    2.8643   -4.8972    2.0283 C   0  0  1  0  0  0  0  0  0  0  0  0
    1.7419   -5.4121    1.2512 O   0  0  0  0  0  0  0  0  0  0  0  0
    1.2007   -6.7246    1.3186 C   0  0  0  0  0  0  0  0  0  0  0  0
    0.7507   -7.1591    2.5822 O   0  0  0  0  0  0  0  0  0  0  0  0
    1.7164   -7.7774    3.4773 C   0  0  2  0  0  0  0  0  0  0  0  0
    2.6866   -5.5496    3.4106 C   0  0  2  0  0  0  0  0  0  0  0  0
   -0.9403   -8.1658    4.3752 H   0  0  0  0  0  0  0  0  0  0  0  0
   -0.5332   -8.7032    6.0028 H   0  0  0  0  0  0  0  0  0  0  0  0
    0.0209   -9.6204    4.6131 H   0  0  0  0  0  0  0  0  0  0  0  0
    1.8380   -8.2718    5.5969 H   0  0  0  0  0  0  0  0  0  0  0  0
    0.1242   -5.8467    4.9294 H   0  0  0  0  0  0  0  0  0  0  0  0
    0.3283   -6.5029    6.4975 H   0  0  0  0  0  0  0  0  0  0  0  0
    1.5376   -4.4126    6.0396 H   0  0  0  0  0  0  0  0  0  0  0  0
    3.0603   -6.5014    7.0532 H   0  0  0  0  0  0  0  0  0  0  0  0
    3.4212   -3.9957    4.8170 H   0  0  0  0  0  0  0  0  0  0  0  0
    4.6514   -8.3250    2.7370 H   0  0  0  0  0  0  0  0  0  0  0  0
    3.5214   -8.0680    1.4917 H   0  0  0  0  0  0  0  0  0  0  0  0
    5.7144   -6.2601    2.4900 H   0  0  0  0  0  0  0  0  0  0  0  0
    5.4415   -6.9017    0.9012 H   0  0  0  0  0  0  0  0  0  0  0  0
    3.9081   -5.3939    0.2536 H   0  0  0  0  0  0  0  0  0  0  0  0
    6.3770   -2.6848    2.4634 H   0  0  0  0  0  0  0  0  0  0  0  0
    6.1576   -4.2887    3.1235 H   0  0  0  0  0  0  0  0  0  0  0  0
    4.9025   -3.1120    3.2258 H   0  0  0  0  0  0  0  0  0  0  0  0
    7.1893   -4.7924    1.0887 H   0  0  0  0  0  0  0  0  0  0  0  0
    6.2678   -5.1154   -0.3218 H   0  0  0  0  0  0  0  0  0  0  0  0
    7.4979   -2.4355    0.5156 H   0  0  0  0  0  0  0  0  0  0  0  0
    8.1217   -3.4763   -0.7250 H   0  0  0  0  0  0  0  0  0  0  0  0
    6.6144   -1.3916   -1.3318 H   0  0  0  0  0  0  0  0  0  0  0  0
    6.5598   -2.8547   -2.2701 H   0  0  0  0  0  0  0  0  0  0  0  0
    3.0918   -1.2350   -1.5293 H   0  0  0  0  0  0  0  0  0  0  0  0
    4.4700   -1.0218   -2.5949 H   0  0  0  0  0  0  0  0  0  0  0  0
    4.5142   -0.3684   -0.9623 H   0  0  0  0  0  0  0  0  0  0  0  0
    3.1559   -3.7965   -1.7866 H   0  0  0  0  0  0  0  0  0  0  0  0
    4.6930   -4.6212   -1.7345 H   0  0  0  0  0  0  0  0  0  0  0  0
    4.3723   -3.4575   -2.9875 H   0  0  0  0  0  0  0  0  0  0  0  0
    4.9215   -1.8267    0.9442 H   0  0  0  0  0  0  0  0  0  0  0  0
    2.7240   -1.5742    0.9499 H   0  0  0  0  0  0  0  0  0  0  0  0
    2.3604   -2.9648   -0.0211 H   0  0  0  0  0  0  0  0  0  0  0  0
    2.9273   -2.8737    2.9608 H   0  0  0  0  0  0  0  0  0  0  0  0
    1.4696   -3.2457    2.1755 H   0  0  0  0  0  0  0  0  0  0  0  0
    0.2875   -6.6670    0.7344 H   0  0  0  0  0  0  0  0  0  0  0  0
    1.7917   -7.4647    0.7935 H   0  0  0  0  0  0  0  0  0  0  0  0
    1.8786   -8.8263    3.1904 H   0  0  0  0  0  0  0  0  0  0  0  0
    1.6320   -5.3228    3.5075 H   0  0  0  0  0  0  0  0  0  0  0  0
  1  2  1  0
  1 30  1  0
  1 31  1  0
  1 32  1  0
  2 28  1  0
  2  3  1  0
  2 33  1  1
  3  4  1  0
  3 34  1  0
  3 35  1  0
  4  5  1  0
  4  6  1  0
  4 36  1  1
  5 37  1  0
  6 29  1  0
  6  7  1  0
  6 38  1  6
  7  8  1  0
  9  8  1  1
  9 28  1  0
  9 29  1  0
  9 10  1  0
 10 11  1  0
 10 39  1  0
 10 40  1  0
 11 12  1  0
 11 41  1  0
 11 42  1  0
 12 24  1  0
 12 13  1  0
 12 43  1  6
 13 21  1  0
 13 14  1  1
 13 15  1  0
 14 44  1  0
 14 45  1  0
 14 46  1  0
 15 16  1  0
 15 47  1  0
 15 48  1  0
 16 17  1  0
 16 49  1  0
 16 50  1  0
 17 18  1  0
 17 51  1  0
 17 52  1  0
 18 19  1  0
 18 20  1  0
 18 21  1  0
 19 53  1  0
 19 54  1  0
 19 55  1  0
 20 56  1  0
 20 57  1  0
 20 58  1  0
 21 22  1  0
 21 59  1  1
 22 23  1  0
 22 60  1  0
 22 61  1  0
 23 24  1  0
 23 62  1  0
 23 63  1  0
 24 25  1  6
 24 29  1  0
 25 26  1  0
 26 27  1  0
 26 64  1  0
 26 65  1  0
 27 28  1  0
 28 66  1  6
 29 67  1  1
M  END
>  <i_m_ct_stereo_status>  (249) 
1

>  <s_m_source_file>  (249) 
/var/tmp/pbs.5076255.sched01/tmp7zsp0c9b/86_oh4d05k.sdf

>  <i_m_source_file_index>  (249) 
14

>  <i_lp_mmshare_version>  (249) 
48012

>  <i_f3d_flags>  (249) 
0

>  <s_epik_input>  (249) 
W0NAXTEyM1tDQEhdNFtDQEhdKFtDSDNdKVtDSDJdW0NAQEhdKFtPSF0pW0NAQEhdKE9PMSlbQ0BIXTNbQ0BdNShPW0NIMl1PNClbQ0BIXShbQ0gyXVtDSDJdMilbQ0BdNihbQ0gzXSlbQ0BIXShbQ0gyXVtDSDJdNSlDKFtDSDNdKShbQ0gzXSlbQ0gyXVtDSDJdW0NIMl02

>  <s_epik_cmdline>  (249) 
J2VwaWtfcHl0aG9uJywgJy1waHQnLCAnMi4wJywgJy1waCcsICc3LjAnLCAnLXRuJywgJzgnLCAnLW1hJywgJzIwMCcsICctaW1hZScsICc8aW5maWxlLm1hZT4nLCAnLW9tYWUnLCAnPG91dGZpbGUubWFlPic=

>  <r_lp_tautomer_probability>  (249) 
1

>  <r_epik_Ionization_Penalty>  (249) 
7.21364e-08

>  <r_epik_Ionization_Penalty_Charging>  (249) 
0

>  <r_epik_Ionization_Penalty_Neutral>  (249) 
7.21364e-08

>  <r_epik_State_Penalty>  (249) 
-0

>  <r_epik_Charging_Adjusted_Penalty>  (249) 
0

>  <i_epik_Tot_Q>  (249) 
0

>  <i_epik_Tot_abs_Q>  (249) 
0

>  <s_epik_Chemistry_Notes>  (249) 
This compound contains an acetal/aminal-like group ( X-CH(R)-Y where X, Y are N, S, or O) that may be acid/base labile, releasing an aldehyde.

>  <s_lp_Force_Field>  (249) 
OPLS3e

>  <r_lp_Energy>  (249) 
100.419

>  <b_lp_Chiralities_Consistent>  (249) 
1

>  <s_lp_Variant>  (249) 
67:0-1

>  <s_i_glide_gridfile>  (249) 
pfpi4k_grid

>  <i_i_glide_lignum>  (249) 
14

>  <i_i_glide_rotatable_bonds>  (249) 
1

>  <r_i_docking_score>  (249) 
-2.55253

>  <r_i_glide_ligand_efficiency>  (249) 
-0.0880183

>  <r_i_glide_ligand_efficiency_sa>  (249) 
-0.27042

>  <r_i_glide_ligand_efficiency_ln>  (249) 
-0.584465

>  <r_i_glide_gscore>  (249) 
-2.55253

>  <r_i_glide_lipo>  (249) 
-0.382401

>  <r_i_glide_hbond>  (249) 
-0.0984419

>  <r_i_glide_metal>  (249) 
-0

>  <r_i_glide_rewards>  (249) 
-0.637121

>  <r_i_glide_evdw>  (249) 
-24.2331

>  <r_i_glide_ecoul>  (249) 
-1.04252

>  <r_i_glide_erotb>  (249) 
0

>  <r_i_glide_esite>  (249) 
-0.0665356

>  <r_i_glide_emodel>  (249) 
-29.2732

>  <r_i_glide_energy>  (249) 
-25.2756

>  <r_i_glide_einternal>  (249) 
0.013136

>  <r_i_glide_intrahb_reward>  (249) 
-0

>  <i_i_glide_confnum>  (249) 
1

>  <i_i_glide_posenum>  (249) 
4

>  <r_i_glide_eff_state_penalty>  (249) 
0

>  <ligand_id>  (249) 
67

>  <original_smiles>  (249) 
CC1CC(O)C2OOC34CCC5C6(C)CCCC(C)(C)C6CCC5(OCOC13)C24

>  <smiles>  (249) 
[H]OC1([H])C([H])([H])C([H])(C([H])([H])[H])C2([H])OC([H])([H])OC34C([H])([H])C([H])([H])C5([H])C(C([H])([H])[H])(C([H])([H])[H])C([H])([H])C([H])([H])C([H])([H])C5(C([H])([H])[H])C3([H])C([H])([H])C([H])([H])C23OOC1([H])C34[H]

$$$$
68:0:0
     RDKit          3D

 33 35  0  0  1  0  0  0  0  0999 V2000
    4.9525   -5.6294    1.7880 C   0  0  0  0  0  0  0  0  0  0  0  0
    4.0749   -4.7769    0.9648 N   0  0  0  0  0  0  0  0  0  0  0  0
    2.8261   -5.4036    0.4680 C   0  0  0  0  0  0  0  0  0  0  0  0
    1.8797   -5.9784    1.5167 C   0  0  2  0  0  0  0  0  0  0  0  0
    2.2949   -7.3214    2.0879 C   0  0  0  0  0  0  0  0  0  0  0  0
    1.0133   -8.1034    2.2438 C   0  0  0  0  0  0  0  0  0  0  0  0
   -0.0682   -7.1479    1.7588 C   0  0  0  0  0  0  0  0  0  0  0  0
    0.6304   -6.2569    0.8927 O   0  0  0  0  0  0  0  0  0  0  0  0
    4.7267   -3.7531    0.1898 C   0  0  0  0  0  0  0  0  0  0  0  0
    5.9346   -3.3916    0.6723 N   0  0  0  0  0  0  0  0  0  0  0  0
    6.6299   -2.4707   -0.0047 C   0  0  0  0  0  0  0  0  0  0  0  0
    6.2651   -1.8500   -1.1310 N   0  0  0  0  0  0  0  0  0  0  0  0
    5.0456   -2.1520   -1.6263 C   0  0  0  0  0  0  0  0  0  0  0  0
    4.6379   -1.5118   -2.7490 N   0  0  0  0  0  0  0  0  0  0  0  0
    3.4305   -1.8273   -3.2311 C   0  0  0  0  0  0  0  0  0  0  0  0
    2.6154   -2.7682   -2.6037 C   0  0  0  0  0  0  0  0  0  0  0  0
    2.9965   -3.4081   -1.5002 N   0  0  0  0  0  0  0  0  0  0  0  0
    4.2075   -3.1333   -0.9789 C   0  0  0  0  0  0  0  0  0  0  0  0
    5.7183   -5.0846    2.3456 H   0  0  0  0  0  0  0  0  0  0  0  0
    5.4342   -6.3791    1.1539 H   0  0  0  0  0  0  0  0  0  0  0  0
    4.3892   -6.1502    2.5583 H   0  0  0  0  0  0  0  0  0  0  0  0
    2.1222   -4.6719    0.0717 H   0  0  0  0  0  0  0  0  0  0  0  0
    3.0799   -6.1312   -0.3077 H   0  0  0  0  0  0  0  0  0  0  0  0
    1.6893   -5.2360    2.2921 H   0  0  0  0  0  0  0  0  0  0  0  0
    2.9667   -7.8333    1.3939 H   0  0  0  0  0  0  0  0  0  0  0  0
    2.7714   -7.2146    3.0644 H   0  0  0  0  0  0  0  0  0  0  0  0
    1.0632   -9.0162    1.6458 H   0  0  0  0  0  0  0  0  0  0  0  0
    0.8753   -8.3705    3.2909 H   0  0  0  0  0  0  0  0  0  0  0  0
   -0.8884   -7.6662    1.2611 H   0  0  0  0  0  0  0  0  0  0  0  0
   -0.4627   -6.5598    2.5899 H   0  0  0  0  0  0  0  0  0  0  0  0
    7.5929   -2.2201    0.4250 H   0  0  0  0  0  0  0  0  0  0  0  0
    3.1082   -1.3059   -4.1214 H   0  0  0  0  0  0  0  0  0  0  0  0
    1.6332   -3.0049   -2.9621 H   0  0  0  0  0  0  0  0  0  0  0  0
  1  2  1  0
  1 19  1  0
  1 20  1  0
  1 21  1  0
  2  3  1  0
  2  9  1  0
  3  4  1  0
  3 22  1  0
  3 23  1  0
  4  8  1  0
  4  5  1  0
  4 24  1  1
  5  6  1  0
  5 25  1  0
  5 26  1  0
  6  7  1  0
  6 27  1  0
  6 28  1  0
  7  8  1  0
  7 29  1  0
  7 30  1  0
  9 18  1  0
  9 10  2  0
 10 11  1  0
 11 12  2  0
 11 31  1  0
 12 13  1  0
 13 18  2  0
 13 14  1  0
 14 15  2  0
 15 16  1  0
 15 32  1  0
 16 17  2  0
 16 33  1  0
 17 18  1  0
M  END
>  <i_m_ct_stereo_status>  (250) 
1

>  <s_m_source_file>  (250) 
/var/tmp/pbs.5076255.sched01/tmp7zsp0c9b/86_oh4d05k.sdf

>  <i_m_source_file_index>  (250) 
15

>  <i_lp_mmshare_version>  (250) 
48012

>  <i_f3d_flags>  (250) 
0

>  <s_epik_input>  (250) 
bjFbY0hdW2NIXW5jKGMxMiljKG5bY0hdbjIpTihbQ0gzXSlbQ0gyXVtDQEBIXTNbQ0gyXVtDSDJdW0NIMl1PMw==

>  <s_epik_cmdline>  (250) 
J2VwaWtfcHl0aG9uJywgJy1waHQnLCAnMi4wJywgJy1waCcsICc3LjAnLCAnLXRuJywgJzgnLCAnLW1hJywgJzIwMCcsICctaW1hZScsICc8aW5maWxlLm1hZT4nLCAnLW9tYWUnLCAnPG91dGZpbGUubWFlPic=

>  <r_lp_tautomer_probability>  (250) 
1

>  <r_epik_Ionization_Penalty>  (250) 
0.00887384

>  <r_epik_Ionization_Penalty_Charging>  (250) 
0

>  <r_epik_Ionization_Penalty_Neutral>  (250) 
0.00887384

>  <r_epik_State_Penalty>  (250) 
0.00864249

>  <r_epik_Charging_Adjusted_Penalty>  (250) 
0.00864249

>  <i_epik_Tot_Q>  (250) 
0

>  <i_epik_Tot_abs_Q>  (250) 
0

>  <s_lp_Force_Field>  (250) 
OPLS3e

>  <r_lp_Energy>  (250) 
35.8689

>  <b_lp_Chiralities_Consistent>  (250) 
1

>  <s_lp_Variant>  (250) 
68:0-1

>  <s_i_glide_gridfile>  (250) 
pfpi4k_grid

>  <i_i_glide_lignum>  (250) 
15

>  <i_i_glide_rotatable_bonds>  (250) 
3

>  <r_i_docking_score>  (250) 
-3.4201

>  <r_i_glide_ligand_efficiency>  (250) 
-0.190006

>  <r_i_glide_ligand_efficiency_sa>  (250) 
-0.497956

>  <r_i_glide_ligand_efficiency_ln>  (250) 
-0.879119

>  <r_i_glide_gscore>  (250) 
-3.4201

>  <r_i_glide_lipo>  (250) 
-0.159969

>  <r_i_glide_hbond>  (250) 
-0.309833

>  <r_i_glide_metal>  (250) 
-0

>  <r_i_glide_rewards>  (250) 
-1.80244

>  <r_i_glide_evdw>  (250) 
-23.5737

>  <r_i_glide_ecoul>  (250) 
-5.39684

>  <r_i_glide_erotb>  (250) 
0.867866

>  <r_i_glide_esite>  (250) 
-0.0275095

>  <r_i_glide_emodel>  (250) 
-32.2963

>  <r_i_glide_energy>  (250) 
-28.9705

>  <r_i_glide_einternal>  (250) 
6.40401

>  <r_i_glide_intrahb_reward>  (250) 
-0

>  <i_i_glide_confnum>  (250) 
6

>  <i_i_glide_posenum>  (250) 
28

>  <r_i_glide_eff_state_penalty>  (250) 
0

>  <ligand_id>  (250) 
68

>  <original_smiles>  (250) 
CN(CC1CCCO1)c1ncnc2nccnc12

>  <smiles>  (250) 
[H]c1nc(N(C([H])([H])[H])C([H])([H])C2([H])OC([H])([H])C([H])([H])C2([H])[H])c2nc([H])c([H])nc2n1

$$$$
68:0:1
     RDKit          3D

 33 35  0  0  1  0  0  0  0  0999 V2000
    3.5310   -8.4369    1.9673 C   0  0  0  0  0  0  0  0  0  0  0  0
    3.1533   -7.0132    1.7585 N   0  0  0  0  0  0  0  0  0  0  0  0
    1.7267   -6.7224    1.4822 C   0  0  0  0  0  0  0  0  0  0  0  0
    0.7078   -7.1562    2.5248 C   0  0  2  0  0  0  0  0  0  0  0  0
    0.4914   -8.6511    2.6619 C   0  0  0  0  0  0  0  0  0  0  0  0
   -0.9815   -8.8366    2.8874 C   0  0  0  0  0  0  0  0  0  0  0  0
   -1.5294   -7.4128    2.8909 C   0  0  0  0  0  0  0  0  0  0  0  0
   -0.5789   -6.6997    2.1222 O   0  0  0  0  0  0  0  0  0  0  0  0
    4.1821   -6.1732    1.2372 C   0  0  0  0  0  0  0  0  0  0  0  0
    5.4278   -6.5350    1.5507 N   0  0  0  0  0  0  0  0  0  0  0  0
    6.4482   -5.8133    1.0843 C   0  0  0  0  0  0  0  0  0  0  0  0
    6.3802   -4.7121    0.3223 N   0  0  0  0  0  0  0  0  0  0  0  0
    5.1430   -4.3059   -0.0163 C   0  0  0  0  0  0  0  0  0  0  0  0
    5.0514   -3.1810   -0.7941 N   0  0  0  0  0  0  0  0  0  0  0  0
    3.8114   -2.7724   -1.0892 C   0  0  0  0  0  0  0  0  0  0  0  0
    2.6847   -3.4336   -0.6603 C   0  0  0  0  0  0  0  0  0  0  0  0
    2.7537   -4.5465    0.0818 N   0  0  0  0  0  0  0  0  0  0  0  0
    3.9576   -4.9895    0.4194 C   0  0  0  0  0  0  0  0  0  0  0  0
    4.5209   -8.5624    2.4275 H   0  0  0  0  0  0  0  0  0  0  0  0
    3.5377   -8.9384    0.9920 H   0  0  0  0  0  0  0  0  0  0  0  0
    2.8534   -8.9515    2.6272 H   0  0  0  0  0  0  0  0  0  0  0  0
    1.5097   -5.6601    1.5255 H   0  0  0  0  0  0  0  0  0  0  0  0
    1.4724   -7.1126    0.4843 H   0  0  0  0  0  0  0  0  0  0  0  0
    0.9455   -6.6912    3.4841 H   0  0  0  0  0  0  0  0  0  0  0  0
    0.7852   -9.1548    1.7372 H   0  0  0  0  0  0  0  0  0  0  0  0
    1.0775   -9.0436    3.5012 H   0  0  0  0  0  0  0  0  0  0  0  0
   -1.4094   -9.4316    2.0744 H   0  0  0  0  0  0  0  0  0  0  0  0
   -1.1521   -9.3374    3.8375 H   0  0  0  0  0  0  0  0  0  0  0  0
   -2.5395   -7.3615    2.4803 H   0  0  0  0  0  0  0  0  0  0  0  0
   -1.5371   -6.9949    3.9044 H   0  0  0  0  0  0  0  0  0  0  0  0
    7.4346   -6.1750    1.3613 H   0  0  0  0  0  0  0  0  0  0  0  0
    3.7430   -1.8618   -1.6912 H   0  0  0  0  0  0  0  0  0  0  0  0
    1.6951   -3.0717   -0.8724 H   0  0  0  0  0  0  0  0  0  0  0  0
  1  2  1  0
  1 19  1  0
  1 20  1  0
  1 21  1  0
  2  3  1  0
  2  9  1  0
  3  4  1  0
  3 22  1  0
  3 23  1  0
  4  8  1  0
  4  5  1  0
  4 24  1  1
  5  6  1  0
  5 25  1  0
  5 26  1  0
  6  7  1  0
  6 27  1  0
  6 28  1  0
  7  8  1  0
  7 29  1  0
  7 30  1  0
  9 18  1  0
  9 10  2  0
 10 11  1  0
 11 12  2  0
 11 31  1  0
 12 13  1  0
 13 18  2  0
 13 14  1  0
 14 15  2  0
 15 16  1  0
 15 32  1  0
 16 17  2  0
 16 33  1  0
 17 18  1  0
M  END
>  <i_m_ct_stereo_status>  (251) 
1

>  <s_m_source_file>  (251) 
/var/tmp/pbs.5076255.sched01/tmp7zsp0c9b/86_oh4d05k.sdf

>  <i_m_source_file_index>  (251) 
15

>  <i_lp_mmshare_version>  (251) 
48012

>  <i_f3d_flags>  (251) 
0

>  <s_epik_input>  (251) 
bjFbY0hdW2NIXW5jKGMxMiljKG5bY0hdbjIpTihbQ0gzXSlbQ0gyXVtDQEBIXTNbQ0gyXVtDSDJdW0NIMl1PMw==

>  <s_epik_cmdline>  (251) 
J2VwaWtfcHl0aG9uJywgJy1waHQnLCAnMi4wJywgJy1waCcsICc3LjAnLCAnLXRuJywgJzgnLCAnLW1hJywgJzIwMCcsICctaW1hZScsICc8aW5maWxlLm1hZT4nLCAnLW9tYWUnLCAnPG91dGZpbGUubWFlPic=

>  <r_lp_tautomer_probability>  (251) 
1

>  <r_epik_Ionization_Penalty>  (251) 
0.00887384

>  <r_epik_Ionization_Penalty_Charging>  (251) 
0

>  <r_epik_Ionization_Penalty_Neutral>  (251) 
0.00887384

>  <r_epik_State_Penalty>  (251) 
0.00864249

>  <r_epik_Charging_Adjusted_Penalty>  (251) 
0.00864249

>  <i_epik_Tot_Q>  (251) 
0

>  <i_epik_Tot_abs_Q>  (251) 
0

>  <s_lp_Force_Field>  (251) 
OPLS3e

>  <r_lp_Energy>  (251) 
35.8689

>  <b_lp_Chiralities_Consistent>  (251) 
1

>  <s_lp_Variant>  (251) 
68:0-1

>  <s_i_glide_gridfile>  (251) 
pfpi4k_grid

>  <i_i_glide_lignum>  (251) 
15

>  <i_i_glide_rotatable_bonds>  (251) 
3

>  <r_i_docking_score>  (251) 
-3.05235

>  <r_i_glide_ligand_efficiency>  (251) 
-0.169575

>  <r_i_glide_ligand_efficiency_sa>  (251) 
-0.444412

>  <r_i_glide_ligand_efficiency_ln>  (251) 
-0.784591

>  <r_i_glide_gscore>  (251) 
-3.05235

>  <r_i_glide_lipo>  (251) 
-0.0915147

>  <r_i_glide_hbond>  (251) 
-0.16

>  <r_i_glide_metal>  (251) 
-0

>  <r_i_glide_rewards>  (251) 
-1.99149

>  <r_i_glide_evdw>  (251) 
-20.6683

>  <r_i_glide_ecoul>  (251) 
-4.292

>  <r_i_glide_erotb>  (251) 
0.867866

>  <r_i_glide_esite>  (251) 
0

>  <r_i_glide_emodel>  (251) 
-27.2089

>  <r_i_glide_energy>  (251) 
-24.9603

>  <r_i_glide_einternal>  (251) 
6.70432

>  <r_i_glide_intrahb_reward>  (251) 
-0

>  <i_i_glide_confnum>  (251) 
1

>  <i_i_glide_posenum>  (251) 
24

>  <r_i_glide_eff_state_penalty>  (251) 
0

>  <ligand_id>  (251) 
68

>  <original_smiles>  (251) 
CN(CC1CCCO1)c1ncnc2nccnc12

>  <smiles>  (251) 
[H]c1nc(N(C([H])([H])[H])C([H])([H])C2([H])OC([H])([H])C([H])([H])C2([H])[H])c2nc([H])c([H])nc2n1

$$$$
68:0:2
     RDKit          3D

 33 35  0  0  1  0  0  0  0  0999 V2000
    7.2055   -3.1851   -1.8297 C   0  0  0  0  0  0  0  0  0  0  0  0
    5.9030   -3.4587   -1.2269 N   0  0  0  0  0  0  0  0  0  0  0  0
    4.7761   -3.6200   -2.1505 C   0  0  0  0  0  0  0  0  0  0  0  0
    4.5397   -2.3791   -3.0336 C   0  0  2  0  0  0  0  0  0  0  0  0
    4.2184   -1.1058   -2.2486 C   0  0  0  0  0  0  0  0  0  0  0  0
    3.2247   -0.3587   -3.1161 C   0  0  0  0  0  0  0  0  0  0  0  0
    3.0401   -1.2505   -4.3305 C   0  0  0  0  0  0  0  0  0  0  0  0
    3.4169   -2.5469   -3.8883 O   0  0  0  0  0  0  0  0  0  0  0  0
    5.6341   -2.9049    0.0461 C   0  0  0  0  0  0  0  0  0  0  0  0
    6.2816   -1.7607    0.3154 N   0  0  0  0  0  0  0  0  0  0  0  0
    6.0095   -1.2085    1.5011 C   0  0  0  0  0  0  0  0  0  0  0  0
    5.1842   -1.6574    2.4479 N   0  0  0  0  0  0  0  0  0  0  0  0
    4.5439   -2.8041    2.1977 C   0  0  0  0  0  0  0  0  0  0  0  0
    3.7130   -3.2861    3.1470 N   0  0  0  0  0  0  0  0  0  0  0  0
    3.1026   -4.4475    2.8897 C   0  0  0  0  0  0  0  0  0  0  0  0
    3.3051   -5.1488    1.6862 C   0  0  0  0  0  0  0  0  0  0  0  0
    4.1129   -4.6917    0.7225 N   0  0  0  0  0  0  0  0  0  0  0  0
    4.7361   -3.5157    0.9610 C   0  0  0  0  0  0  0  0  0  0  0  0
    8.0245   -3.3417   -1.1232 H   0  0  0  0  0  0  0  0  0  0  0  0
    7.2656   -2.1658   -2.2090 H   0  0  0  0  0  0  0  0  0  0  0  0
    7.3601   -3.8427   -2.6848 H   0  0  0  0  0  0  0  0  0  0  0  0
    4.9933   -4.4780   -2.7935 H   0  0  0  0  0  0  0  0  0  0  0  0
    3.8524   -3.8677   -1.6229 H   0  0  0  0  0  0  0  0  0  0  0  0
    5.3955   -2.2060   -3.6844 H   0  0  0  0  0  0  0  0  0  0  0  0
    3.7422   -1.3426   -1.2988 H   0  0  0  0  0  0  0  0  0  0  0  0
    5.1170   -0.5204   -2.0463 H   0  0  0  0  0  0  0  0  0  0  0  0
    2.2855   -0.2566   -2.5749 H   0  0  0  0  0  0  0  0  0  0  0  0
    3.5825    0.6320   -3.3922 H   0  0  0  0  0  0  0  0  0  0  0  0
    2.0251   -1.2095   -4.7079 H   0  0  0  0  0  0  0  0  0  0  0  0
    3.7060   -0.9317   -5.1268 H   0  0  0  0  0  0  0  0  0  0  0  0
    6.5203   -0.2952    1.7345 H   0  0  0  0  0  0  0  0  0  0  0  0
    2.4500   -4.8224    3.6624 H   0  0  0  0  0  0  0  0  0  0  0  0
    2.8149   -6.0900    1.4999 H   0  0  0  0  0  0  0  0  0  0  0  0
  1  2  1  0
  1 19  1  0
  1 20  1  0
  1 21  1  0
  2  3  1  0
  2  9  1  0
  3  4  1  0
  3 22  1  0
  3 23  1  0
  4  8  1  0
  4  5  1  0
  4 24  1  6
  5  6  1  0
  5 25  1  0
  5 26  1  0
  6  7  1  0
  6 27  1  0
  6 28  1  0
  7  8  1  0
  7 29  1  0
  7 30  1  0
  9 18  1  0
  9 10  2  0
 10 11  1  0
 11 12  2  0
 11 31  1  0
 12 13  1  0
 13 18  2  0
 13 14  1  0
 14 15  2  0
 15 16  1  0
 15 32  1  0
 16 17  2  0
 16 33  1  0
 17 18  1  0
M  END
>  <i_m_ct_stereo_status>  (252) 
1

>  <s_m_source_file>  (252) 
/var/tmp/pbs.5076255.sched01/tmp7zsp0c9b/86_oh4d05k.sdf

>  <i_m_source_file_index>  (252) 
15

>  <i_lp_mmshare_version>  (252) 
48012

>  <i_f3d_flags>  (252) 
0

>  <s_epik_input>  (252) 
bjFbY0hdW2NIXW5jKGMxMiljKG5bY0hdbjIpTihbQ0gzXSlbQ0gyXVtDQEBIXTNbQ0gyXVtDSDJdW0NIMl1PMw==

>  <s_epik_cmdline>  (252) 
J2VwaWtfcHl0aG9uJywgJy1waHQnLCAnMi4wJywgJy1waCcsICc3LjAnLCAnLXRuJywgJzgnLCAnLW1hJywgJzIwMCcsICctaW1hZScsICc8aW5maWxlLm1hZT4nLCAnLW9tYWUnLCAnPG91dGZpbGUubWFlPic=

>  <r_lp_tautomer_probability>  (252) 
1

>  <r_epik_Ionization_Penalty>  (252) 
0.00887384

>  <r_epik_Ionization_Penalty_Charging>  (252) 
0

>  <r_epik_Ionization_Penalty_Neutral>  (252) 
0.00887384

>  <r_epik_State_Penalty>  (252) 
0.00864249

>  <r_epik_Charging_Adjusted_Penalty>  (252) 
0.00864249

>  <i_epik_Tot_Q>  (252) 
0

>  <i_epik_Tot_abs_Q>  (252) 
0

>  <s_lp_Force_Field>  (252) 
OPLS3e

>  <r_lp_Energy>  (252) 
35.8689

>  <b_lp_Chiralities_Consistent>  (252) 
1

>  <s_lp_Variant>  (252) 
68:0-1

>  <s_i_glide_gridfile>  (252) 
pfpi4k_grid

>  <i_i_glide_lignum>  (252) 
15

>  <i_i_glide_rotatable_bonds>  (252) 
3

>  <r_i_docking_score>  (252) 
-2.90036

>  <r_i_glide_ligand_efficiency>  (252) 
-0.161131

>  <r_i_glide_ligand_efficiency_sa>  (252) 
-0.422284

>  <r_i_glide_ligand_efficiency_ln>  (252) 
-0.745524

>  <r_i_glide_gscore>  (252) 
-2.90036

>  <r_i_glide_lipo>  (252) 
-0.245767

>  <r_i_glide_hbond>  (252) 
-0.0402969

>  <r_i_glide_metal>  (252) 
-0

>  <r_i_glide_rewards>  (252) 
-2.15451

>  <r_i_glide_evdw>  (252) 
-21.2641

>  <r_i_glide_ecoul>  (252) 
-1.76301

>  <r_i_glide_erotb>  (252) 
0.867866

>  <r_i_glide_esite>  (252) 
0

>  <r_i_glide_emodel>  (252) 
-27.8496

>  <r_i_glide_energy>  (252) 
-23.0271

>  <r_i_glide_einternal>  (252) 
1.77932

>  <r_i_glide_intrahb_reward>  (252) 
-0

>  <i_i_glide_confnum>  (252) 
5

>  <i_i_glide_posenum>  (252) 
6

>  <r_i_glide_eff_state_penalty>  (252) 
0

>  <ligand_id>  (252) 
68

>  <original_smiles>  (252) 
CN(CC1CCCO1)c1ncnc2nccnc12

>  <smiles>  (252) 
[H]c1nc(N(C([H])([H])[H])C([H])([H])C2([H])OC([H])([H])C([H])([H])C2([H])[H])c2nc([H])c([H])nc2n1

$$$$
68:1:0
     RDKit          3D

 34 36  0  0  1  0  0  0  0  0999 V2000
    7.9267   -2.9549   -0.8640 C   0  0  0  0  0  0  0  0  0  0  0  0
    6.5575   -3.4670   -0.8472 N   0  0  0  0  0  0  0  0  0  0  0  0
    5.8071   -3.5520   -2.1063 C   0  0  0  0  0  0  0  0  0  0  0  0
    5.0160   -2.2760   -2.4482 C   0  0  2  0  0  0  0  0  0  0  0  0
    3.6823   -2.1791   -1.7114 C   0  0  0  0  0  0  0  0  0  0  0  0
    2.7341   -1.5558   -2.7197 C   0  0  0  0  0  0  0  0  0  0  0  0
    3.5884   -1.3247   -3.9568 C   0  0  0  0  0  0  0  0  0  0  0  0
    4.6185   -2.2929   -3.8121 O   0  0  0  0  0  0  0  0  0  0  0  0
    5.8764   -3.5218    0.3926 C   0  0  0  0  0  0  0  0  0  0  0  0
    6.0022   -2.4254    1.1659 N   0  0  0  0  0  0  0  0  0  0  0  0
    5.3795   -2.4825    2.3442 C   0  0  0  0  0  0  0  0  0  0  0  0
    4.6599   -3.4862    2.8508 N   0  0  0  0  0  0  0  0  0  0  0  0
    4.5285   -4.5787    2.0997 C   0  0  0  0  0  0  0  0  0  0  0  0
    3.8181   -5.6119    2.5984 N   0  0  0  0  0  0  0  0  0  0  0  0
    3.7274   -6.7123    1.8440 C   0  0  0  0  0  0  0  0  0  0  0  0
    4.3363   -6.7975    0.5790 C   0  0  0  0  0  0  0  0  0  0  0  0
    5.0384   -5.7834    0.0530 N   0  0  0  0  0  0  0  0  0  0  0  0
    5.1382   -4.6683    0.8012 C   0  0  0  0  0  0  0  0  0  0  0  0
    8.5439   -3.4501   -0.1077 H   0  0  0  0  0  0  0  0  0  0  0  0
    7.9599   -1.8742   -0.6983 H   0  0  0  0  0  0  0  0  0  0  0  0
    8.3681   -3.1600   -1.8404 H   0  0  0  0  0  0  0  0  0  0  0  0
    6.5482   -3.6803   -2.8917 H   0  0  0  0  0  0  0  0  0  0  0  0
    5.1785   -4.4439   -2.1521 H   0  0  0  0  0  0  0  0  0  0  0  0
    5.6063   -1.3640   -2.2983 H   0  0  0  0  0  0  0  0  0  0  0  0
    3.3241   -3.1743   -1.4506 H   0  0  0  0  0  0  0  0  0  0  0  0
    3.7774   -1.5865   -0.8007 H   0  0  0  0  0  0  0  0  0  0  0  0
    1.9240   -2.2537   -2.9289 H   0  0  0  0  0  0  0  0  0  0  0  0
    2.3076   -0.6298   -2.3465 H   0  0  0  0  0  0  0  0  0  0  0  0
    3.0339   -1.4590   -4.8840 H   0  0  0  0  0  0  0  0  0  0  0  0
    4.0016   -0.3143   -3.9611 H   0  0  0  0  0  0  0  0  0  0  0  0
    5.4683   -1.6175    2.9811 H   0  0  0  0  0  0  0  0  0  0  0  0
    3.1660   -7.5373    2.2576 H   0  0  0  0  0  0  0  0  0  0  0  0
    4.2637   -7.6958   -0.0214 H   0  0  0  0  0  0  0  0  0  0  0  0
    6.5346   -1.6035    0.8893 H   0  0  0  0  0  0  0  0  0  0  0  0
  1  2  1  0
  1 19  1  0
  1 20  1  0
  1 21  1  0
  2  3  1  0
  2  9  1  0
  3  4  1  0
  3 22  1  0
  3 23  1  0
  4  8  1  0
  4  5  1  0
  4 24  1  6
  5  6  1  0
  5 25  1  0
  5 26  1  0
  6  7  1  0
  6 27  1  0
  6 28  1  0
  7  8  1  0
  7 29  1  0
  7 30  1  0
  9 18  1  0
  9 10  2  0
 10 11  1  0
 10 34  1  0
 11 12  2  0
 11 31  1  0
 12 13  1  0
 13 18  2  0
 13 14  1  0
 14 15  2  0
 15 16  1  0
 15 32  1  0
 16 17  2  0
 16 33  1  0
 17 18  1  0
M  CHG  1  10   1
M  END
>  <i_m_ct_stereo_status>  (253) 
1

>  <s_m_source_file>  (253) 
/var/tmp/pbs.5076255.sched01/tmp7zsp0c9b/86_oh4d05k.sdf

>  <i_m_source_file_index>  (253) 
16

>  <i_lp_mmshare_version>  (253) 
48012

>  <i_f3d_flags>  (253) 
0

>  <s_epik_input>  (253) 
bjFbY0hdW2NIXW5jKGMxMiljKG5bY0hdbjIpTihbQ0gzXSlbQ0gyXVtDQEBIXTNbQ0gyXVtDSDJdW0NIMl1PMw==

>  <s_epik_cmdline>  (253) 
J2VwaWtfcHl0aG9uJywgJy1waHQnLCAnMi4wJywgJy1waCcsICc3LjAnLCAnLXRuJywgJzgnLCAnLW1hJywgJzIwMCcsICctaW1hZScsICc8aW5maWxlLm1hZT4nLCAnLW9tYWUnLCAnPG91dGZpbGUubWFlPic=

>  <r_lp_tautomer_probability>  (253) 
0.894823

>  <r_epik_Ionization_Penalty>  (253) 
2.72535

>  <r_epik_Ionization_Penalty_Charging>  (253) 
2.72535

>  <r_epik_Ionization_Penalty_Neutral>  (253) 
1.48948e-11

>  <r_epik_State_Penalty>  (253) 
2.59607

>  <r_epik_Charging_Adjusted_Penalty>  (253) 
5.32142

>  <i_epik_Tot_Q>  (253) 
1

>  <i_epik_Tot_abs_Q>  (253) 
1

>  <s_lp_Force_Field>  (253) 
OPLS3e

>  <r_lp_Energy>  (253) 
34.6622

>  <b_lp_Chiralities_Consistent>  (253) 
1

>  <s_lp_Variant>  (253) 
68:0-2

>  <s_i_glide_gridfile>  (253) 
pfpi4k_grid

>  <i_i_glide_lignum>  (253) 
16

>  <i_i_glide_rotatable_bonds>  (253) 
3

>  <r_i_docking_score>  (253) 
-3.14241

>  <r_i_glide_ligand_efficiency>  (253) 
-0.174579

>  <r_i_glide_ligand_efficiency_sa>  (253) 
-0.457525

>  <r_i_glide_ligand_efficiency_ln>  (253) 
-0.807741

>  <r_i_glide_gscore>  (253) 
-3.14241

>  <r_i_glide_lipo>  (253) 
-0.67065

>  <r_i_glide_hbond>  (253) 
-0.0528707

>  <r_i_glide_metal>  (253) 
-0

>  <r_i_glide_rewards>  (253) 
-1.9764

>  <r_i_glide_evdw>  (253) 
-19.1086

>  <r_i_glide_ecoul>  (253) 
-2.32572

>  <r_i_glide_erotb>  (253) 
0.861798

>  <r_i_glide_esite>  (253) 
0

>  <r_i_glide_emodel>  (253) 
-26.3804

>  <r_i_glide_energy>  (253) 
-21.4343

>  <r_i_glide_einternal>  (253) 
3.89451

>  <r_i_glide_intrahb_reward>  (253) 
-0

>  <i_i_glide_confnum>  (253) 
3

>  <i_i_glide_posenum>  (253) 
11

>  <r_i_glide_eff_state_penalty>  (253) 
0

>  <ligand_id>  (253) 
68

>  <original_smiles>  (253) 
CN(CC1CCCO1)c1ncnc2nccnc12

>  <smiles>  (253) 
[H]c1nc2nc([H])[n+]([H])c(N(C([H])([H])[H])C([H])([H])C3([H])OC([H])([H])C([H])([H])C3([H])[H])c2nc1[H]

$$$$
68:1:1
     RDKit          3D

 34 36  0  0  1  0  0  0  0  0999 V2000
    0.4960  -10.3129    2.8385 C   0  0  0  0  0  0  0  0  0  0  0  0
    0.1081   -8.9623    3.3034 N   0  0  0  0  0  0  0  0  0  0  0  0
   -0.2303   -8.0160    2.2407 C   0  0  0  0  0  0  0  0  0  0  0  0
    1.0072   -7.4028    1.5348 C   0  0  2  0  0  0  0  0  0  0  0  0
    1.9310   -6.5642    2.4008 C   0  0  0  0  0  0  0  0  0  0  0  0
    2.3696   -5.3729    1.5997 C   0  0  0  0  0  0  0  0  0  0  0  0
    1.7724   -5.6785    0.2359 C   0  0  0  0  0  0  0  0  0  0  0  0
    0.6232   -6.4706    0.5183 O   0  0  0  0  0  0  0  0  0  0  0  0
    0.1877   -8.6098    4.7014 C   0  0  0  0  0  0  0  0  0  0  0  0
    0.2468   -9.6660    5.5305 N   0  0  0  0  0  0  0  0  0  0  0  0
    0.3338   -9.4071    6.8508 C   0  0  0  0  0  0  0  0  0  0  0  0
    0.4538   -8.2075    7.4229 N   0  0  0  0  0  0  0  0  0  0  0  0
    0.4077   -7.1329    6.6541 C   0  0  0  0  0  0  0  0  0  0  0  0
    0.5238   -5.8974    7.2158 N   0  0  0  0  0  0  0  0  0  0  0  0
    0.5042   -4.8334    6.3992 C   0  0  0  0  0  0  0  0  0  0  0  0
    0.2572   -4.9578    5.0413 C   0  0  0  0  0  0  0  0  0  0  0  0
   -0.0701   -6.1522    4.5157 N   0  0  0  0  0  0  0  0  0  0  0  0
    0.1808   -7.2707    5.2383 C   0  0  0  0  0  0  0  0  0  0  0  0
    0.1283  -11.1014    3.4840 H   0  0  0  0  0  0  0  0  0  0  0  0
    1.5781  -10.4035    2.7578 H   0  0  0  0  0  0  0  0  0  0  0  0
    0.0938  -10.5327    1.8436 H   0  0  0  0  0  0  0  0  0  0  0  0
   -0.8183   -8.5387    1.4853 H   0  0  0  0  0  0  0  0  0  0  0  0
   -0.9141   -7.2484    2.6085 H   0  0  0  0  0  0  0  0  0  0  0  0
    1.6167   -8.2160    1.1022 H   0  0  0  0  0  0  0  0  0  0  0  0
    1.4014   -6.0033    3.0446 H   0  0  0  0  0  0  0  0  0  0  0  0
    2.6619   -7.1103    2.9953 H   0  0  0  0  0  0  0  0  0  0  0  0
    1.9499   -4.4460    2.0063 H   0  0  0  0  0  0  0  0  0  0  0  0
    3.4617   -5.2952    1.6282 H   0  0  0  0  0  0  0  0  0  0  0  0
    1.5285   -4.7771   -0.3124 H   0  0  0  0  0  0  0  0  0  0  0  0
    2.5073   -6.2109   -0.3244 H   0  0  0  0  0  0  0  0  0  0  0  0
    0.3176  -10.2549    7.5056 H   0  0  0  0  0  0  0  0  0  0  0  0
    0.5856   -3.8394    6.8487 H   0  0  0  0  0  0  0  0  0  0  0  0
    0.3094   -4.1201    4.3587 H   0  0  0  0  0  0  0  0  0  0  0  0
    0.1454  -10.6385    5.1980 H   0  0  0  0  0  0  0  0  0  0  0  0
  1  2  1  0
  1 19  1  0
  1 20  1  0
  1 21  1  0
  2  3  1  0
  2  9  1  0
  3  4  1  0
  3 22  1  0
  3 23  1  0
  4  8  1  0
  4  5  1  0
  4 24  1  6
  5  6  1  0
  5 25  1  0
  5 26  1  0
  6  7  1  0
  6 27  1  0
  6 28  1  0
  7  8  1  0
  7 29  1  0
  7 30  1  0
  9 18  1  0
  9 10  2  0
 10 11  1  0
 10 34  1  0
 11 12  2  0
 11 31  1  0
 12 13  1  0
 13 18  2  0
 13 14  1  0
 14 15  2  0
 15 16  1  0
 15 32  1  0
 16 17  2  0
 16 33  1  0
 17 18  1  0
M  CHG  1  10   1
M  END
>  <i_m_ct_stereo_status>  (254) 
1

>  <s_m_source_file>  (254) 
/var/tmp/pbs.5076255.sched01/tmp7zsp0c9b/86_oh4d05k.sdf

>  <i_m_source_file_index>  (254) 
16

>  <i_lp_mmshare_version>  (254) 
48012

>  <i_f3d_flags>  (254) 
0

>  <s_epik_input>  (254) 
bjFbY0hdW2NIXW5jKGMxMiljKG5bY0hdbjIpTihbQ0gzXSlbQ0gyXVtDQEBIXTNbQ0gyXVtDSDJdW0NIMl1PMw==

>  <s_epik_cmdline>  (254) 
J2VwaWtfcHl0aG9uJywgJy1waHQnLCAnMi4wJywgJy1waCcsICc3LjAnLCAnLXRuJywgJzgnLCAnLW1hJywgJzIwMCcsICctaW1hZScsICc8aW5maWxlLm1hZT4nLCAnLW9tYWUnLCAnPG91dGZpbGUubWFlPic=

>  <r_lp_tautomer_probability>  (254) 
0.894823

>  <r_epik_Ionization_Penalty>  (254) 
2.72535

>  <r_epik_Ionization_Penalty_Charging>  (254) 
2.72535

>  <r_epik_Ionization_Penalty_Neutral>  (254) 
1.48948e-11

>  <r_epik_State_Penalty>  (254) 
2.59607

>  <r_epik_Charging_Adjusted_Penalty>  (254) 
5.32142

>  <i_epik_Tot_Q>  (254) 
1

>  <i_epik_Tot_abs_Q>  (254) 
1

>  <s_lp_Force_Field>  (254) 
OPLS3e

>  <r_lp_Energy>  (254) 
34.6622

>  <b_lp_Chiralities_Consistent>  (254) 
1

>  <s_lp_Variant>  (254) 
68:0-2

>  <s_i_glide_gridfile>  (254) 
pfpi4k_grid

>  <i_i_glide_lignum>  (254) 
16

>  <i_i_glide_rotatable_bonds>  (254) 
3

>  <r_i_docking_score>  (254) 
-3.10026

>  <r_i_glide_ligand_efficiency>  (254) 
-0.172237

>  <r_i_glide_ligand_efficiency_sa>  (254) 
-0.451388

>  <r_i_glide_ligand_efficiency_ln>  (254) 
-0.796906

>  <r_i_glide_gscore>  (254) 
-3.10026

>  <r_i_glide_lipo>  (254) 
-0.112676

>  <r_i_glide_hbond>  (254) 
-0.233659

>  <r_i_glide_metal>  (254) 
-0

>  <r_i_glide_rewards>  (254) 
-1.72985

>  <r_i_glide_evdw>  (254) 
-16.7744

>  <r_i_glide_ecoul>  (254) 
-7.06631

>  <r_i_glide_erotb>  (254) 
0.861798

>  <r_i_glide_esite>  (254) 
-0.196306

>  <r_i_glide_emodel>  (254) 
-26.1671

>  <r_i_glide_energy>  (254) 
-23.8407

>  <r_i_glide_einternal>  (254) 
0.69807

>  <r_i_glide_intrahb_reward>  (254) 
-0

>  <i_i_glide_confnum>  (254) 
3

>  <i_i_glide_posenum>  (254) 
2

>  <r_i_glide_eff_state_penalty>  (254) 
0

>  <ligand_id>  (254) 
68

>  <original_smiles>  (254) 
CN(CC1CCCO1)c1ncnc2nccnc12

>  <smiles>  (254) 
[H]c1nc2nc([H])[n+]([H])c(N(C([H])([H])[H])C([H])([H])C3([H])OC([H])([H])C([H])([H])C3([H])[H])c2nc1[H]

$$$$
68:1:2
     RDKit          3D

 34 36  0  0  1  0  0  0  0  0999 V2000
    1.1503   -9.7508    2.4870 C   0  0  0  0  0  0  0  0  0  0  0  0
    1.6267  -10.4055    3.6873 N   0  0  0  0  0  0  0  0  0  0  0  0
    0.7179  -10.5347    4.8522 C   0  0  0  0  0  0  0  0  0  0  0  0
    0.2474   -9.1783    5.4282 C   0  0  2  0  0  0  0  0  0  0  0  0
   -0.8674   -8.4230    4.6669 C   0  0  0  0  0  0  0  0  0  0  0  0
   -0.4669   -6.9630    4.7623 C   0  0  0  0  0  0  0  0  0  0  0  0
    0.7571   -6.9634    5.6789 C   0  0  0  0  0  0  0  0  0  0  0  0
    1.3265   -8.2610    5.5288 O   0  0  0  0  0  0  0  0  0  0  0  0
    2.9563  -10.9210    3.7310 C   0  0  0  0  0  0  0  0  0  0  0  0
    3.1491  -11.9166    4.6251 N   0  0  0  0  0  0  0  0  0  0  0  0
    4.3793  -12.4114    4.6625 C   0  0  0  0  0  0  0  0  0  0  0  0
    5.4392  -12.0777    3.9623 N   0  0  0  0  0  0  0  0  0  0  0  0
    5.2903  -11.0926    3.0601 C   0  0  0  0  0  0  0  0  0  0  0  0
    6.3620  -10.7169    2.3367 N   0  0  0  0  0  0  0  0  0  0  0  0
    6.1929   -9.7258    1.4629 C   0  0  0  0  0  0  0  0  0  0  0  0
    4.9645   -9.0806    1.2986 C   0  0  0  0  0  0  0  0  0  0  0  0
    3.8890   -9.4054    2.0179 N   0  0  0  0  0  0  0  0  0  0  0  0
    4.0173  -10.4338    2.9010 C   0  0  0  0  0  0  0  0  0  0  0  0
    1.6039  -10.1287    1.5609 H   0  0  0  0  0  0  0  0  0  0  0  0
    1.3675   -8.6826    2.5742 H   0  0  0  0  0  0  0  0  0  0  0  0
    0.0770   -9.8856    2.3594 H   0  0  0  0  0  0  0  0  0  0  0  0
   -0.1512  -11.1248    4.5490 H   0  0  0  0  0  0  0  0  0  0  0  0
    1.1559  -11.1019    5.6735 H   0  0  0  0  0  0  0  0  0  0  0  0
   -0.1078   -9.3517    6.4489 H   0  0  0  0  0  0  0  0  0  0  0  0
   -0.9347   -8.6243    3.5891 H   0  0  0  0  0  0  0  0  0  0  0  0
   -1.8655   -8.6410    5.0652 H   0  0  0  0  0  0  0  0  0  0  0  0
   -0.1777   -6.6151    3.7731 H   0  0  0  0  0  0  0  0  0  0  0  0
   -1.2850   -6.3391    5.1232 H   0  0  0  0  0  0  0  0  0  0  0  0
    1.4743   -6.1754    5.4220 H   0  0  0  0  0  0  0  0  0  0  0  0
    0.4382   -6.8269    6.7106 H   0  0  0  0  0  0  0  0  0  0  0  0
    4.5265  -13.2090    5.3993 H   0  0  0  0  0  0  0  0  0  0  0  0
    7.0595   -9.4391    0.8878 H   0  0  0  0  0  0  0  0  0  0  0  0
    4.8370   -8.2748    0.5792 H   0  0  0  0  0  0  0  0  0  0  0  0
    2.4039  -12.2655    5.2318 H   0  0  0  0  0  0  0  0  0  0  0  0
  1  2  1  0
  1 19  1  0
  1 20  1  0
  1 21  1  0
  2  3  1  0
  2  9  1  0
  3  4  1  0
  3 22  1  0
  3 23  1  0
  4  8  1  0
  4  5  1  0
  4 24  1  1
  5  6  1  0
  5 25  1  0
  5 26  1  0
  6  7  1  0
  6 27  1  0
  6 28  1  0
  7  8  1  0
  7 29  1  0
  7 30  1  0
  9 18  1  0
  9 10  2  0
 10 11  1  0
 10 34  1  0
 11 12  2  0
 11 31  1  0
 12 13  1  0
 13 18  2  0
 13 14  1  0
 14 15  2  0
 15 16  1  0
 15 32  1  0
 16 17  2  0
 16 33  1  0
 17 18  1  0
M  CHG  1  10   1
M  END
>  <i_m_ct_stereo_status>  (255) 
1

>  <s_m_source_file>  (255) 
/var/tmp/pbs.5076255.sched01/tmp7zsp0c9b/86_oh4d05k.sdf

>  <i_m_source_file_index>  (255) 
16

>  <i_lp_mmshare_version>  (255) 
48012

>  <i_f3d_flags>  (255) 
0

>  <s_epik_input>  (255) 
bjFbY0hdW2NIXW5jKGMxMiljKG5bY0hdbjIpTihbQ0gzXSlbQ0gyXVtDQEBIXTNbQ0gyXVtDSDJdW0NIMl1PMw==

>  <s_epik_cmdline>  (255) 
J2VwaWtfcHl0aG9uJywgJy1waHQnLCAnMi4wJywgJy1waCcsICc3LjAnLCAnLXRuJywgJzgnLCAnLW1hJywgJzIwMCcsICctaW1hZScsICc8aW5maWxlLm1hZT4nLCAnLW9tYWUnLCAnPG91dGZpbGUubWFlPic=

>  <r_lp_tautomer_probability>  (255) 
0.894823

>  <r_epik_Ionization_Penalty>  (255) 
2.72535

>  <r_epik_Ionization_Penalty_Charging>  (255) 
2.72535

>  <r_epik_Ionization_Penalty_Neutral>  (255) 
1.48948e-11

>  <r_epik_State_Penalty>  (255) 
2.59607

>  <r_epik_Charging_Adjusted_Penalty>  (255) 
5.32142

>  <i_epik_Tot_Q>  (255) 
1

>  <i_epik_Tot_abs_Q>  (255) 
1

>  <s_lp_Force_Field>  (255) 
OPLS3e

>  <r_lp_Energy>  (255) 
34.6622

>  <b_lp_Chiralities_Consistent>  (255) 
1

>  <s_lp_Variant>  (255) 
68:0-2

>  <s_i_glide_gridfile>  (255) 
pfpi4k_grid

>  <i_i_glide_lignum>  (255) 
16

>  <i_i_glide_rotatable_bonds>  (255) 
3

>  <r_i_docking_score>  (255) 
-2.6295

>  <r_i_glide_ligand_efficiency>  (255) 
-0.146083

>  <r_i_glide_ligand_efficiency_sa>  (255) 
-0.382846

>  <r_i_glide_ligand_efficiency_ln>  (255) 
-0.675898

>  <r_i_glide_gscore>  (255) 
-2.6295

>  <r_i_glide_lipo>  (255) 
-0.122554

>  <r_i_glide_hbond>  (255) 
0

>  <r_i_glide_metal>  (255) 
-0

>  <r_i_glide_rewards>  (255) 
-1.78646

>  <r_i_glide_evdw>  (255) 
-18.1603

>  <r_i_glide_ecoul>  (255) 
-3.72119

>  <r_i_glide_erotb>  (255) 
0.861798

>  <r_i_glide_esite>  (255) 
-0.11609

>  <r_i_glide_emodel>  (255) 
-24.3601

>  <r_i_glide_energy>  (255) 
-21.8814

>  <r_i_glide_einternal>  (255) 
5.59193

>  <r_i_glide_intrahb_reward>  (255) 
-0

>  <i_i_glide_confnum>  (255) 
5

>  <i_i_glide_posenum>  (255) 
9

>  <r_i_glide_eff_state_penalty>  (255) 
0

>  <ligand_id>  (255) 
68

>  <original_smiles>  (255) 
CN(CC1CCCO1)c1ncnc2nccnc12

>  <smiles>  (255) 
[H]c1nc2nc([H])[n+]([H])c(N(C([H])([H])[H])C([H])([H])C3([H])OC([H])([H])C([H])([H])C3([H])[H])c2nc1[H]

$$$$
69:0:0
     RDKit          3D

 63 68  0  0  1  0  0  0  0  0999 V2000
    7.9881   -4.9927    1.4394 C   0  0  0  0  0  0  0  0  0  0  0  0
    6.6096   -5.3961    0.9796 C   0  0  0  0  0  0  0  0  0  0  0  0
    5.9376   -6.5284    1.2252 C   0  0  0  0  0  0  0  0  0  0  0  0
    4.6191   -6.5829    0.4730 C   0  0  2  0  0  0  0  0  0  0  0  0
    4.5614   -5.2408   -0.2677 C   0  0  0  0  0  0  0  0  0  0  0  0
    5.8474   -4.4721    0.0586 C   0  0  1  0  0  0  0  0  0  0  0  0
    5.5729   -3.0828    0.6060 C   0  0  0  0  0  0  0  0  0  0  0  0
    5.0464   -2.6977    1.7669 C   0  0  0  0  0  0  0  0  0  0  0  0
    4.9514   -1.2054    1.8203 C   0  0  1  0  0  0  0  0  0  0  0  0
    5.7896   -0.6217    2.9610 C   0  0  0  0  0  0  0  0  0  0  0  0
    5.4870   -0.8169    0.5579 O   0  0  0  0  0  0  0  0  0  0  0  0
    5.8622   -1.8871   -0.1799 C   0  0  0  0  0  0  0  0  0  0  0  0
    6.3585   -1.8544   -1.3041 O   0  0  0  0  0  0  0  0  0  0  0  0
    3.5070   -6.7594    1.3475 O   0  0  0  0  0  0  0  0  0  0  0  0
    3.5800   -7.9739    2.0994 C   0  0  1  0  0  0  0  0  0  0  0  0
    4.8921   -7.9225    2.9245 C   0  0  1  0  0  0  0  0  0  0  0  0
    6.2055   -7.6991    2.1690 C   0  0  1  0  0  0  0  0  0  0  0  0
    6.5831   -8.9376    1.3129 C   0  0  0  0  0  0  0  0  0  0  0  0
    7.2962   -7.5436    3.2732 C   0  0  0  0  0  0  0  0  0  0  0  0
    6.9558   -6.6675    4.3497 O   0  0  0  0  0  0  0  0  0  0  0  0
    5.7434   -6.9648    5.0665 C   0  0  0  0  0  0  0  0  0  0  0  0
    4.6062   -6.8897    4.0412 C   0  0  1  0  0  0  0  0  0  0  0  0
    4.5432   -5.5360    3.6451 O   0  0  0  0  0  0  0  0  0  0  0  0
    3.1869   -7.2707    4.3739 C   0  0  0  0  0  0  0  0  0  0  0  0
    2.2698   -6.8110    5.2219 C   0  0  0  0  0  0  0  0  0  0  0  0
    0.8984   -7.2930    4.7833 C   0  0  1  0  0  0  0  0  0  0  0  0
   -0.1133   -6.3445    5.0481 O   0  0  0  0  0  0  0  0  0  0  0  0
    1.0892   -7.6261    3.2606 C   0  0  0  0  0  0  0  0  0  0  0  0
    0.1690   -8.7582    2.7797 C   0  0  0  0  0  0  0  0  0  0  0  0
    0.8501   -6.3767    2.3811 C   0  0  0  0  0  0  0  0  0  0  0  0
    2.5738   -8.0788    3.2709 C   0  0  1  0  0  0  0  0  0  0  0  0
    8.3424   -4.1520    0.8407 H   0  0  0  0  0  0  0  0  0  0  0  0
    8.7057   -5.8057    1.3189 H   0  0  0  0  0  0  0  0  0  0  0  0
    7.9402   -4.6998    2.4726 H   0  0  0  0  0  0  0  0  0  0  0  0
    4.6308   -7.4037   -0.2423 H   0  0  0  0  0  0  0  0  0  0  0  0
    4.6251   -5.4239   -1.3415 H   0  0  0  0  0  0  0  0  0  0  0  0
    3.6386   -4.6950   -0.0332 H   0  0  0  0  0  0  0  0  0  0  0  0
    6.4187   -4.3544   -0.8563 H   0  0  0  0  0  0  0  0  0  0  0  0
    4.7126   -3.3446    2.5600 H   0  0  0  0  0  0  0  0  0  0  0  0
    5.4445   -0.9670    3.9379 H   0  0  0  0  0  0  0  0  0  0  0  0
    5.7469    0.4640    2.9601 H   0  0  0  0  0  0  0  0  0  0  0  0
    6.8301   -0.9030    2.8442 H   0  0  0  0  0  0  0  0  0  0  0  0
    3.9058   -0.9152    1.9094 H   0  0  0  0  0  0  0  0  0  0  0  0
    3.5180   -8.8483    1.4452 H   0  0  0  0  0  0  0  0  0  0  0  0
    4.9935   -8.9003    3.4001 H   0  0  0  0  0  0  0  0  0  0  0  0
    6.7400   -9.8299    1.9252 H   0  0  0  0  0  0  0  0  0  0  0  0
    7.5125   -8.7521    0.7721 H   0  0  0  0  0  0  0  0  0  0  0  0
    5.8220   -9.1956    0.5761 H   0  0  0  0  0  0  0  0  0  0  0  0
    7.4667   -8.5178    3.7250 H   0  0  0  0  0  0  0  0  0  0  0  0
    8.2611   -7.2748    2.8574 H   0  0  0  0  0  0  0  0  0  0  0  0
    5.7995   -7.9464    5.5375 H   0  0  0  0  0  0  0  0  0  0  0  0
    5.6013   -6.2309    5.8548 H   0  0  0  0  0  0  0  0  0  0  0  0
    4.0649   -5.5219    2.8212 H   0  0  0  0  0  0  0  0  0  0  0  0
    2.4334   -6.0941    6.0134 H   0  0  0  0  0  0  0  0  0  0  0  0
    0.6839   -8.2070    5.3408 H   0  0  0  0  0  0  0  0  0  0  0  0
   -0.2763   -6.3578    5.9821 H   0  0  0  0  0  0  0  0  0  0  0  0
    0.3976   -9.0208    1.7483 H   0  0  0  0  0  0  0  0  0  0  0  0
   -0.8796   -8.4745    2.8197 H   0  0  0  0  0  0  0  0  0  0  0  0
    0.2871   -9.6593    3.3769 H   0  0  0  0  0  0  0  0  0  0  0  0
    1.0281   -6.5923    1.3256 H   0  0  0  0  0  0  0  0  0  0  0  0
    1.5041   -5.5495    2.6749 H   0  0  0  0  0  0  0  0  0  0  0  0
   -0.1798   -6.0299    2.4643 H   0  0  0  0  0  0  0  0  0  0  0  0
    2.6204   -9.1010    3.6424 H   0  0  0  0  0  0  0  0  0  0  0  0
  1  2  1  0
  1 32  1  0
  1 33  1  0
  1 34  1  0
  2  6  1  0
  2  3  2  0
  3 17  1  0
  3  4  1  0
  4  5  1  0
  4 14  1  0
  4 35  1  6
  5  6  1  0
  5 36  1  0
  5 37  1  0
  6 38  1  6
  6  7  1  0
  7  8  2  0
  7 12  1  0
  8 39  1  0
  8  9  1  0
  9 11  1  0
  9 10  1  0
  9 43  1  1
 10 40  1  0
 10 41  1  0
 10 42  1  0
 11 12  1  0
 12 13  2  0
 14 15  1  0
 15 31  1  0
 15 16  1  0
 15 44  1  6
 16 22  1  0
 16 17  1  0
 16 45  1  1
 17 18  1  6
 17 19  1  0
 18 46  1  0
 18 47  1  0
 18 48  1  0
 19 20  1  0
 19 49  1  0
 19 50  1  0
 20 21  1  0
 21 22  1  0
 21 51  1  0
 21 52  1  0
 22 23  1  6
 22 24  1  0
 23 53  1  0
 24 31  1  0
 24 25  2  0
 25 26  1  0
 25 54  1  0
 26 27  1  0
 26 28  1  0
 26 55  1  1
 27 56  1  0
 28 29  1  0
 28 30  1  0
 28 31  1  0
 29 57  1  0
 29 58  1  0
 29 59  1  0
 30 60  1  0
 30 61  1  0
 30 62  1  0
 31 63  1  1
M  END
>  <i_m_ct_stereo_status>  (256) 
1

>  <s_m_source_file>  (256) 
/var/tmp/pbs.5076255.sched01/tmp7zsp0c9b/86_oh4d05k.sdf

>  <i_m_source_file_index>  (256) 
17

>  <i_lp_mmshare_version>  (256) 
48012

>  <i_f3d_flags>  (256) 
0

>  <s_epik_input>  (256) 
W09IXWMxb2MoW0NIM10pW2NIXWMxW0NAQEhdKEM9MltDSDNdKVtDSDJdW0NAQEhdKEMyW0NAXTM0W0NIM10pT1tDQEhdNVtDQEBIXTNbQ0BdKFtPSF0pKFtDSDJdT1tDSDJdNClDPTZbQ0BIXTVDKFtDSDNdKShbQ0gzXSlbQ0BASF0oW0NIXTYpW09IXQ==

>  <s_epik_cmdline>  (256) 
J2VwaWtfcHl0aG9uJywgJy1waHQnLCAnMi4wJywgJy1waCcsICc3LjAnLCAnLXRuJywgJzgnLCAnLW1hJywgJzIwMCcsICctaW1hZScsICc8aW5maWxlLm1hZT4nLCAnLW9tYWUnLCAnPG91dGZpbGUubWFlPic=

>  <r_lp_tautomer_probability>  (256) 
1

>  <r_epik_Ionization_Penalty>  (256) 
2.40026e-07

>  <r_epik_Ionization_Penalty_Charging>  (256) 
0

>  <r_epik_Ionization_Penalty_Neutral>  (256) 
2.40026e-07

>  <r_epik_State_Penalty>  (256) 
-0

>  <r_epik_Charging_Adjusted_Penalty>  (256) 
0

>  <i_epik_Tot_Q>  (256) 
0

>  <i_epik_Tot_abs_Q>  (256) 
0

>  <s_epik_Chemistry_Notes>  (256) 
This compound has an ester and may undergo hydrolysis at high or low pH.

>  <s_lp_Force_Field>  (256) 
OPLS3e

>  <r_lp_Energy>  (256) 
34.7645

>  <b_lp_Chiralities_Consistent>  (256) 
1

>  <s_lp_Variant>  (256) 
69:0-1

>  <s_i_glide_gridfile>  (256) 
pfpi4k_grid

>  <i_i_glide_lignum>  (256) 
17

>  <i_i_glide_rotatable_bonds>  (256) 
3

>  <r_i_docking_score>  (256) 
-3.62138

>  <r_i_glide_ligand_efficiency>  (256) 
-0.116819

>  <r_i_glide_ligand_efficiency_sa>  (256) 
-0.366973

>  <r_i_glide_ligand_efficiency_ln>  (256) 
-0.816733

>  <r_i_glide_gscore>  (256) 
-3.62138

>  <r_i_glide_lipo>  (256) 
-0.93123

>  <r_i_glide_hbond>  (256) 
-0.155398

>  <r_i_glide_metal>  (256) 
-0

>  <r_i_glide_rewards>  (256) 
-0.987377

>  <r_i_glide_evdw>  (256) 
-27.3328

>  <r_i_glide_ecoul>  (256) 
-1.83816

>  <r_i_glide_erotb>  (256) 
0.108178

>  <r_i_glide_esite>  (256) 
-0.0131903

>  <r_i_glide_emodel>  (256) 
-39.9862

>  <r_i_glide_energy>  (256) 
-29.171

>  <r_i_glide_einternal>  (256) 
1.28379

>  <r_i_glide_intrahb_reward>  (256) 
-0.5

>  <i_i_glide_confnum>  (256) 
1

>  <i_i_glide_posenum>  (256) 
6

>  <r_i_glide_eff_state_penalty>  (256) 
0

>  <ligand_id>  (256) 
69

>  <original_smiles>  (256) 
CC1=C2C(CC1c1cc(C)oc1O)OC1C3C2(C)COCC3(O)C2=CC(O)C(C)(C)C21

>  <smiles>  (256) 
[H]OC1([H])C([H])=C2C([H])(C3([H])OC4([H])C(=C(C([H])([H])[H])C([H])(C5=C([H])C([H])(C([H])([H])[H])OC5=O)C4([H])[H])C4(C([H])([H])[H])C([H])([H])OC([H])([H])C2(O[H])C34[H])C1(C([H])([H])[H])C([H])([H])[H]

$$$$
69:0:1
     RDKit          3D

 63 68  0  0  1  0  0  0  0  0999 V2000
    6.8689   -8.5238    3.6926 C   0  0  0  0  0  0  0  0  0  0  0  0
    5.6738   -8.6506    2.7728 C   0  0  0  0  0  0  0  0  0  0  0  0
    4.5981   -9.4308    2.8928 C   0  0  0  0  0  0  0  0  0  0  0  0
    3.6354   -9.2542    1.7366 C   0  0  2  0  0  0  0  0  0  0  0  0
    4.2487   -8.1594    0.8703 C   0  0  0  0  0  0  0  0  0  0  0  0
    5.5879   -7.7722    1.5429 C   0  0  1  0  0  0  0  0  0  0  0  0
    5.6948   -6.2979    1.8929 C   0  0  0  0  0  0  0  0  0  0  0  0
    4.7503   -5.4431    2.3097 C   0  0  0  0  0  0  0  0  0  0  0  0
    5.2913   -4.0454    2.3640 C   0  0  1  0  0  0  0  0  0  0  0  0
    5.2935   -3.4934    3.8050 C   0  0  0  0  0  0  0  0  0  0  0  0
    6.6113   -4.2118    1.8453 O   0  0  0  0  0  0  0  0  0  0  0  0
    6.8929   -5.5102    1.5961 C   0  0  0  0  0  0  0  0  0  0  0  0
    7.9718   -5.9321    1.1670 O   0  0  0  0  0  0  0  0  0  0  0  0
    2.3343   -8.8854    2.1721 O   0  0  0  0  0  0  0  0  0  0  0  0
    1.7498   -9.8792    3.0159 C   0  0  1  0  0  0  0  0  0  0  0  0
    2.6718  -10.0267    4.2405 C   0  0  1  0  0  0  0  0  0  0  0  0
    4.1364  -10.3805    3.9976 C   0  0  1  0  0  0  0  0  0  0  0  0
    4.2999  -11.8340    3.4933 C   0  0  0  0  0  0  0  0  0  0  0  0
    4.8233  -10.3008    5.4006 C   0  0  0  0  0  0  0  0  0  0  0  0
    4.4973   -9.1458    6.1907 O   0  0  0  0  0  0  0  0  0  0  0  0
    3.1002   -8.9184    6.4406 C   0  0  0  0  0  0  0  0  0  0  0  0
    2.4514   -8.7437    5.0668 C   0  0  1  0  0  0  0  0  0  0  0  0
    2.9722   -7.5454    4.5204 O   0  0  0  0  0  0  0  0  0  0  0  0
    0.9700   -8.6204    4.9137 C   0  0  0  0  0  0  0  0  0  0  0  0
    0.0627   -7.7576    5.3323 C   0  0  0  0  0  0  0  0  0  0  0  0
   -1.1629   -7.9048    4.4728 C   0  0  1  0  0  0  0  0  0  0  0  0
   -1.7604   -6.6629    4.2799 O   0  0  0  0  0  0  0  0  0  0  0  0
   -0.6587   -8.5526    3.1481 C   0  0  0  0  0  0  0  0  0  0  0  0
   -1.7334   -9.4074    2.4783 C   0  0  0  0  0  0  0  0  0  0  0  0
   -0.1876   -7.4954    2.1341 C   0  0  0  0  0  0  0  0  0  0  0  0
    0.4814   -9.4132    3.7438 C   0  0  1  0  0  0  0  0  0  0  0  0
    7.6722   -7.9944    3.1801 H   0  0  0  0  0  0  0  0  0  0  0  0
    7.2592   -9.5077    3.9436 H   0  0  0  0  0  0  0  0  0  0  0  0
    6.6122   -7.9760    4.5981 H   0  0  0  0  0  0  0  0  0  0  0  0
    3.5723  -10.1995    1.2080 H   0  0  0  0  0  0  0  0  0  0  0  0
    4.4427   -8.5621   -0.1231 H   0  0  0  0  0  0  0  0  0  0  0  0
    3.5577   -7.3221    0.7431 H   0  0  0  0  0  0  0  0  0  0  0  0
    6.4079   -8.0612    0.8776 H   0  0  0  0  0  0  0  0  0  0  0  0
    3.7231   -5.6835    2.5037 H   0  0  0  0  0  0  0  0  0  0  0  0
    4.2802   -3.3595    4.1993 H   0  0  0  0  0  0  0  0  0  0  0  0
    5.7896   -2.5255    3.8449 H   0  0  0  0  0  0  0  0  0  0  0  0
    5.8186   -4.1548    4.4861 H   0  0  0  0  0  0  0  0  0  0  0  0
    4.7327   -3.3762    1.6997 H   0  0  0  0  0  0  0  0  0  0  0  0
    1.5754  -10.8234    2.4894 H   0  0  0  0  0  0  0  0  0  0  0  0
    2.2788  -10.8498    4.8360 H   0  0  0  0  0  0  0  0  0  0  0  0
    3.9284  -12.5727    4.2131 H   0  0  0  0  0  0  0  0  0  0  0  0
    5.3427  -12.0584    3.3022 H   0  0  0  0  0  0  0  0  0  0  0  0
    3.7658  -12.0037    2.5577 H   0  0  0  0  0  0  0  0  0  0  0  0
    4.4846  -11.1574    5.9782 H   0  0  0  0  0  0  0  0  0  0  0  0
    5.9039  -10.4339    5.3446 H   0  0  0  0  0  0  0  0  0  0  0  0
    2.6602   -9.7474    7.0004 H   0  0  0  0  0  0  0  0  0  0  0  0
    2.9985   -8.0133    7.0445 H   0  0  0  0  0  0  0  0  0  0  0  0
    2.9107   -7.6354    3.5753 H   0  0  0  0  0  0  0  0  0  0  0  0
    0.2180   -6.9452    6.0253 H   0  0  0  0  0  0  0  0  0  0  0  0
   -1.8528   -8.5701    4.9897 H   0  0  0  0  0  0  0  0  0  0  0  0
   -2.3394   -6.5154    5.0161 H   0  0  0  0  0  0  0  0  0  0  0  0
   -1.3169  -10.0131    1.6687 H   0  0  0  0  0  0  0  0  0  0  0  0
   -2.5727   -8.8296    2.0901 H   0  0  0  0  0  0  0  0  0  0  0  0
   -2.1268  -10.1037    3.2114 H   0  0  0  0  0  0  0  0  0  0  0  0
    0.2106   -7.9992    1.2522 H   0  0  0  0  0  0  0  0  0  0  0  0
    0.5906   -6.8728    2.5614 H   0  0  0  0  0  0  0  0  0  0  0  0
   -1.0090   -6.8622    1.7823 H   0  0  0  0  0  0  0  0  0  0  0  0
    0.0368  -10.2789    4.2207 H   0  0  0  0  0  0  0  0  0  0  0  0
  1  2  1  0
  1 32  1  0
  1 33  1  0
  1 34  1  0
  2  6  1  0
  2  3  2  0
  3 17  1  0
  3  4  1  0
  4  5  1  0
  4 14  1  0
  4 35  1  6
  5  6  1  0
  5 36  1  0
  5 37  1  0
  6 38  1  6
  6  7  1  0
  7  8  2  0
  7 12  1  0
  8 39  1  0
  8  9  1  0
  9 11  1  0
  9 10  1  0
  9 43  1  6
 10 40  1  0
 10 41  1  0
 10 42  1  0
 11 12  1  0
 12 13  2  0
 14 15  1  0
 15 31  1  0
 15 16  1  0
 15 44  1  6
 16 22  1  0
 16 17  1  0
 16 45  1  1
 17 18  1  6
 17 19  1  0
 18 46  1  0
 18 47  1  0
 18 48  1  0
 19 20  1  0
 19 49  1  0
 19 50  1  0
 20 21  1  0
 21 22  1  0
 21 51  1  0
 21 52  1  0
 22 23  1  6
 22 24  1  0
 23 53  1  0
 24 31  1  0
 24 25  2  0
 25 26  1  0
 25 54  1  0
 26 27  1  0
 26 28  1  0
 26 55  1  1
 27 56  1  0
 28 29  1  0
 28 30  1  0
 28 31  1  0
 29 57  1  0
 29 58  1  0
 29 59  1  0
 30 60  1  0
 30 61  1  0
 30 62  1  0
 31 63  1  1
M  END
>  <i_m_ct_stereo_status>  (257) 
1

>  <s_m_source_file>  (257) 
/var/tmp/pbs.5076255.sched01/tmp7zsp0c9b/86_oh4d05k.sdf

>  <i_m_source_file_index>  (257) 
17

>  <i_lp_mmshare_version>  (257) 
48012

>  <i_f3d_flags>  (257) 
0

>  <s_epik_input>  (257) 
W09IXWMxb2MoW0NIM10pW2NIXWMxW0NAQEhdKEM9MltDSDNdKVtDSDJdW0NAQEhdKEMyW0NAXTM0W0NIM10pT1tDQEhdNVtDQEBIXTNbQ0BdKFtPSF0pKFtDSDJdT1tDSDJdNClDPTZbQ0BIXTVDKFtDSDNdKShbQ0gzXSlbQ0BASF0oW0NIXTYpW09IXQ==

>  <s_epik_cmdline>  (257) 
J2VwaWtfcHl0aG9uJywgJy1waHQnLCAnMi4wJywgJy1waCcsICc3LjAnLCAnLXRuJywgJzgnLCAnLW1hJywgJzIwMCcsICctaW1hZScsICc8aW5maWxlLm1hZT4nLCAnLW9tYWUnLCAnPG91dGZpbGUubWFlPic=

>  <r_lp_tautomer_probability>  (257) 
1

>  <r_epik_Ionization_Penalty>  (257) 
2.40026e-07

>  <r_epik_Ionization_Penalty_Charging>  (257) 
0

>  <r_epik_Ionization_Penalty_Neutral>  (257) 
2.40026e-07

>  <r_epik_State_Penalty>  (257) 
-0

>  <r_epik_Charging_Adjusted_Penalty>  (257) 
0

>  <i_epik_Tot_Q>  (257) 
0

>  <i_epik_Tot_abs_Q>  (257) 
0

>  <s_epik_Chemistry_Notes>  (257) 
This compound has an ester and may undergo hydrolysis at high or low pH.

>  <s_lp_Force_Field>  (257) 
OPLS3e

>  <r_lp_Energy>  (257) 
34.7645

>  <b_lp_Chiralities_Consistent>  (257) 
1

>  <s_lp_Variant>  (257) 
69:0-1

>  <s_i_glide_gridfile>  (257) 
pfpi4k_grid

>  <i_i_glide_lignum>  (257) 
17

>  <i_i_glide_rotatable_bonds>  (257) 
3

>  <r_i_docking_score>  (257) 
-3.14323

>  <r_i_glide_ligand_efficiency>  (257) 
-0.101395

>  <r_i_glide_ligand_efficiency_sa>  (257) 
-0.318519

>  <r_i_glide_ligand_efficiency_ln>  (257) 
-0.708895

>  <r_i_glide_gscore>  (257) 
-3.14323

>  <r_i_glide_lipo>  (257) 
-0.530081

>  <r_i_glide_hbond>  (257) 
-0.00851977

>  <r_i_glide_metal>  (257) 
-0

>  <r_i_glide_rewards>  (257) 
-1.09994

>  <r_i_glide_evdw>  (257) 
-26.3111

>  <r_i_glide_ecoul>  (257) 
-1.98213

>  <r_i_glide_erotb>  (257) 
0.108178

>  <r_i_glide_esite>  (257) 
0

>  <r_i_glide_emodel>  (257) 
-38.4968

>  <r_i_glide_energy>  (257) 
-28.2932

>  <r_i_glide_einternal>  (257) 
1.59912

>  <r_i_glide_intrahb_reward>  (257) 
-0.5

>  <i_i_glide_confnum>  (257) 
4

>  <i_i_glide_posenum>  (257) 
2

>  <r_i_glide_eff_state_penalty>  (257) 
0

>  <ligand_id>  (257) 
69

>  <original_smiles>  (257) 
CC1=C2C(CC1c1cc(C)oc1O)OC1C3C2(C)COCC3(O)C2=CC(O)C(C)(C)C21

>  <smiles>  (257) 
[H]OC1([H])C([H])=C2C([H])(C3([H])OC4([H])C(=C(C([H])([H])[H])C([H])(C5=C([H])C([H])(C([H])([H])[H])OC5=O)C4([H])[H])C4(C([H])([H])[H])C([H])([H])OC([H])([H])C2(O[H])C34[H])C1(C([H])([H])[H])C([H])([H])[H]

$$$$
69:0:2
     RDKit          3D

 63 68  0  0  1  0  0  0  0  0999 V2000
    3.7411   -8.8252    4.8266 C   0  0  0  0  0  0  0  0  0  0  0  0
    3.3028   -7.3767    4.8412 C   0  0  0  0  0  0  0  0  0  0  0  0
    4.0708   -6.2686    4.6987 C   0  0  0  0  0  0  0  0  0  0  0  0
    3.2523   -5.0016    4.8314 C   0  0  2  0  0  0  0  0  0  0  0  0
    1.8045   -5.4667    5.0651 C   0  0  0  0  0  0  0  0  0  0  0  0
    1.8308   -7.0234    5.0117 C   0  0  1  0  0  0  0  0  0  0  0  0
    0.9645   -7.6126    3.8983 C   0  0  0  0  0  0  0  0  0  0  0  0
    0.0942   -8.6563    3.9938 C   0  0  0  0  0  0  0  0  0  0  0  0
   -0.5853   -8.8768    2.6751 C   0  0  1  0  0  0  0  0  0  0  0  0
   -2.0946   -8.6242    2.7118 C   0  0  0  0  0  0  0  0  0  0  0  0
   -0.0419   -7.8494    1.8558 O   0  0  0  0  0  0  0  0  0  0  0  0
    0.7714   -7.0634    2.5489 C   0  0  0  0  0  0  0  0  0  0  0  0
    1.2478   -6.0097    2.0767 O   0  0  0  0  0  0  0  0  0  0  0  0
    3.3656   -4.1733    3.6720 O   0  0  0  0  0  0  0  0  0  0  0  0
    4.7113   -3.7643    3.3927 C   0  0  1  0  0  0  0  0  0  0  0  0
    5.5757   -5.0319    3.2182 C   0  0  1  0  0  0  0  0  0  0  0  0
    5.5457   -6.0805    4.3371 C   0  0  1  0  0  0  0  0  0  0  0  0
    6.2750   -5.5683    5.6042 C   0  0  0  0  0  0  0  0  0  0  0  0
    6.3796   -7.2861    3.7875 C   0  0  0  0  0  0  0  0  0  0  0  0
    6.1053   -7.6886    2.4408 O   0  0  0  0  0  0  0  0  0  0  0  0
    6.2082   -6.6692    1.4403 C   0  0  0  0  0  0  0  0  0  0  0  0
    5.1893   -5.5831    1.8234 C   0  0  1  0  0  0  0  0  0  0  0  0
    3.9462   -6.2202    1.7323 O   0  0  0  0  0  0  0  0  0  0  0  0
    5.0534   -4.2868    1.0625 C   0  0  0  0  0  0  0  0  0  0  0  0
    4.7480   -3.9246   -0.1952 C   0  0  0  0  0  0  0  0  0  0  0  0
    4.3959   -2.4492   -0.2147 C   0  0  1  0  0  0  0  0  0  0  0  0
    3.4132   -2.1236   -1.1785 O   0  0  0  0  0  0  0  0  0  0  0  0
    4.0075   -2.1263    1.2716 C   0  0  0  0  0  0  0  0  0  0  0  0
    4.3144   -0.6674    1.6593 C   0  0  0  0  0  0  0  0  0  0  0  0
    2.5101   -2.4124    1.5410 C   0  0  0  0  0  0  0  0  0  0  0  0
    4.9449   -3.1276    2.0003 C   0  0  1  0  0  0  0  0  0  0  0  0
    2.9473   -9.4621    5.2296 H   0  0  0  0  0  0  0  0  0  0  0  0
    4.6188   -8.9839    5.4589 H   0  0  0  0  0  0  0  0  0  0  0  0
    3.9639   -9.1565    3.8098 H   0  0  0  0  0  0  0  0  0  0  0  0
    3.5997   -4.4398    5.6995 H   0  0  0  0  0  0  0  0  0  0  0  0
    1.4487   -5.1112    6.0335 H   0  0  0  0  0  0  0  0  0  0  0  0
    1.1352   -5.0163    4.3363 H   0  0  0  0  0  0  0  0  0  0  0  0
    1.5246   -7.4286    5.9813 H   0  0  0  0  0  0  0  0  0  0  0  0
   -0.1215   -9.2355    4.8775 H   0  0  0  0  0  0  0  0  0  0  0  0
   -2.5785   -9.3683    3.3342 H   0  0  0  0  0  0  0  0  0  0  0  0
   -2.5071   -8.6977    1.7032 H   0  0  0  0  0  0  0  0  0  0  0  0
   -2.3434   -7.6282    3.0890 H   0  0  0  0  0  0  0  0  0  0  0  0
   -0.3433   -9.8654    2.2677 H   0  0  0  0  0  0  0  0  0  0  0  0
    5.0769   -3.1122    4.1855 H   0  0  0  0  0  0  0  0  0  0  0  0
    6.6109   -4.6983    3.1474 H   0  0  0  0  0  0  0  0  0  0  0  0
    7.3283   -5.3424    5.4169 H   0  0  0  0  0  0  0  0  0  0  0  0
    6.2442   -6.3212    6.3937 H   0  0  0  0  0  0  0  0  0  0  0  0
    5.8257   -4.6607    6.0110 H   0  0  0  0  0  0  0  0  0  0  0  0
    7.4298   -6.9980    3.7724 H   0  0  0  0  0  0  0  0  0  0  0  0
    6.3454   -8.1434    4.4537 H   0  0  0  0  0  0  0  0  0  0  0  0
    7.2397   -6.3141    1.3293 H   0  0  0  0  0  0  0  0  0  0  0  0
    5.9152   -7.1170    0.4875 H   0  0  0  0  0  0  0  0  0  0  0  0
    3.9275   -6.6458    0.8914 H   0  0  0  0  0  0  0  0  0  0  0  0
    4.6172   -4.5753   -1.0428 H   0  0  0  0  0  0  0  0  0  0  0  0
    5.3007   -1.9094   -0.4908 H   0  0  0  0  0  0  0  0  0  0  0  0
    2.6713   -1.7047   -0.7549 H   0  0  0  0  0  0  0  0  0  0  0  0
    4.1253   -0.4972    2.7188 H   0  0  0  0  0  0  0  0  0  0  0  0
    3.6962    0.0366    1.1025 H   0  0  0  0  0  0  0  0  0  0  0  0
    5.3545   -0.4091    1.4697 H   0  0  0  0  0  0  0  0  0  0  0  0
    2.2509   -2.2313    2.5871 H   0  0  0  0  0  0  0  0  0  0  0  0
    2.2592   -3.4491    1.3079 H   0  0  0  0  0  0  0  0  0  0  0  0
    1.8524   -1.7732    0.9477 H   0  0  0  0  0  0  0  0  0  0  0  0
    5.9463   -2.6906    2.0186 H   0  0  0  0  0  0  0  0  0  0  0  0
  1  2  1  0
  1 32  1  0
  1 33  1  0
  1 34  1  0
  2  6  1  0
  2  3  2  0
  3 17  1  0
  3  4  1  0
  4  5  1  0
  4 14  1  0
  4 35  1  1
  5  6  1  0
  5 36  1  0
  5 37  1  0
  6 38  1  1
  6  7  1  0
  7  8  2  0
  7 12  1  0
  8 39  1  0
  8  9  1  0
  9 11  1  0
  9 10  1  0
  9 43  1  6
 10 40  1  0
 10 41  1  0
 10 42  1  0
 11 12  1  0
 12 13  2  0
 14 15  1  0
 15 31  1  0
 15 16  1  0
 15 44  1  1
 16 22  1  0
 16 17  1  0
 16 45  1  6
 17 18  1  1
 17 19  1  0
 18 46  1  0
 18 47  1  0
 18 48  1  0
 19 20  1  0
 19 49  1  0
 19 50  1  0
 20 21  1  0
 21 22  1  0
 21 51  1  0
 21 52  1  0
 22 23  1  1
 22 24  1  0
 23 53  1  0
 24 31  1  0
 24 25  2  0
 25 26  1  0
 25 54  1  0
 26 27  1  0
 26 28  1  0
 26 55  1  6
 27 56  1  0
 28 29  1  0
 28 30  1  0
 28 31  1  0
 29 57  1  0
 29 58  1  0
 29 59  1  0
 30 60  1  0
 30 61  1  0
 30 62  1  0
 31 63  1  1
M  END
>  <i_m_ct_stereo_status>  (258) 
1

>  <s_m_source_file>  (258) 
/var/tmp/pbs.5076255.sched01/tmp7zsp0c9b/86_oh4d05k.sdf

>  <i_m_source_file_index>  (258) 
17

>  <i_lp_mmshare_version>  (258) 
48012

>  <i_f3d_flags>  (258) 
0

>  <s_epik_input>  (258) 
W09IXWMxb2MoW0NIM10pW2NIXWMxW0NAQEhdKEM9MltDSDNdKVtDSDJdW0NAQEhdKEMyW0NAXTM0W0NIM10pT1tDQEhdNVtDQEBIXTNbQ0BdKFtPSF0pKFtDSDJdT1tDSDJdNClDPTZbQ0BIXTVDKFtDSDNdKShbQ0gzXSlbQ0BASF0oW0NIXTYpW09IXQ==

>  <s_epik_cmdline>  (258) 
J2VwaWtfcHl0aG9uJywgJy1waHQnLCAnMi4wJywgJy1waCcsICc3LjAnLCAnLXRuJywgJzgnLCAnLW1hJywgJzIwMCcsICctaW1hZScsICc8aW5maWxlLm1hZT4nLCAnLW9tYWUnLCAnPG91dGZpbGUubWFlPic=

>  <r_lp_tautomer_probability>  (258) 
1

>  <r_epik_Ionization_Penalty>  (258) 
2.40026e-07

>  <r_epik_Ionization_Penalty_Charging>  (258) 
0

>  <r_epik_Ionization_Penalty_Neutral>  (258) 
2.40026e-07

>  <r_epik_State_Penalty>  (258) 
-0

>  <r_epik_Charging_Adjusted_Penalty>  (258) 
0

>  <i_epik_Tot_Q>  (258) 
0

>  <i_epik_Tot_abs_Q>  (258) 
0

>  <s_epik_Chemistry_Notes>  (258) 
This compound has an ester and may undergo hydrolysis at high or low pH.

>  <s_lp_Force_Field>  (258) 
OPLS3e

>  <r_lp_Energy>  (258) 
34.7645

>  <b_lp_Chiralities_Consistent>  (258) 
1

>  <s_lp_Variant>  (258) 
69:0-1

>  <s_i_glide_gridfile>  (258) 
pfpi4k_grid

>  <i_i_glide_lignum>  (258) 
17

>  <i_i_glide_rotatable_bonds>  (258) 
3

>  <r_i_docking_score>  (258) 
-2.73842

>  <r_i_glide_ligand_efficiency>  (258) 
-0.088336

>  <r_i_glide_ligand_efficiency_sa>  (258) 
-0.277497

>  <r_i_glide_ligand_efficiency_ln>  (258) 
-0.617597

>  <r_i_glide_gscore>  (258) 
-2.73842

>  <r_i_glide_lipo>  (258) 
-0.401056

>  <r_i_glide_hbond>  (258) 
-0.177257

>  <r_i_glide_metal>  (258) 
-0

>  <r_i_glide_rewards>  (258) 
-0.487377

>  <r_i_glide_evdw>  (258) 
-26.8109

>  <r_i_glide_ecoul>  (258) 
-2.62489

>  <r_i_glide_erotb>  (258) 
0.108178

>  <r_i_glide_esite>  (258) 
-0.0466233

>  <r_i_glide_emodel>  (258) 
-32.3369

>  <r_i_glide_energy>  (258) 
-29.4358

>  <r_i_glide_einternal>  (258) 
3.56952

>  <r_i_glide_intrahb_reward>  (258) 
-0

>  <i_i_glide_confnum>  (258) 
5

>  <i_i_glide_posenum>  (258) 
33

>  <r_i_glide_eff_state_penalty>  (258) 
0

>  <ligand_id>  (258) 
69

>  <original_smiles>  (258) 
CC1=C2C(CC1c1cc(C)oc1O)OC1C3C2(C)COCC3(O)C2=CC(O)C(C)(C)C21

>  <smiles>  (258) 
[H]OC1([H])C([H])=C2C([H])(C3([H])OC4([H])C(=C(C([H])([H])[H])C([H])(C5=C([H])C([H])(C([H])([H])[H])OC5=O)C4([H])[H])C4(C([H])([H])[H])C([H])([H])OC([H])([H])C2(O[H])C34[H])C1(C([H])([H])[H])C([H])([H])[H]

$$$$
69:1:0
     RDKit          3D

 63 68  0  0  1  0  0  0  0  0999 V2000
    6.0266   -3.8391   -0.1369 C   0  0  0  0  0  0  0  0  0  0  0  0
    4.5564   -3.6386    0.1296 C   0  0  0  0  0  0  0  0  0  0  0  0
    3.8987   -3.4802    1.2855 C   0  0  0  0  0  0  0  0  0  0  0  0
    2.4203   -3.3847    1.1075 C   0  0  2  0  0  0  0  0  0  0  0  0
    2.2414   -3.5198   -0.4100 C   0  0  0  0  0  0  0  0  0  0  0  0
    3.6398   -3.6362   -1.0316 C   0  0  1  0  0  0  0  0  0  0  0  0
    3.9744   -2.6080   -2.0768 C   0  0  0  0  0  0  0  0  0  0  0  0
    3.5403   -1.3357   -2.1721 C   0  0  0  0  0  0  0  0  0  0  0  0
    3.9781   -0.7540   -3.4704 C   0  0  2  0  0  0  0  0  0  0  0  0
    2.8732   -0.2622   -4.4095 C   0  0  0  0  0  0  0  0  0  0  0  0
    4.6180   -1.8419   -4.1041 O   0  0  0  0  0  0  0  0  0  0  0  0
    4.5622   -2.9462   -3.3615 C   0  0  0  0  0  0  0  0  0  0  0  0
    4.9869   -4.0658   -3.7091 O   0  0  0  0  0  0  0  0  0  0  0  0
    1.8600   -2.1725    1.6288 O   0  0  0  0  0  0  0  0  0  0  0  0
    2.0849   -1.9959    3.0280 C   0  0  1  0  0  0  0  0  0  0  0  0
    3.6160   -2.0264    3.1898 C   0  0  1  0  0  0  0  0  0  0  0  0
    4.3421   -3.2564    2.6726 C   0  0  1  0  0  0  0  0  0  0  0  0
    4.0786   -4.5286    3.5346 C   0  0  0  0  0  0  0  0  0  0  0  0
    5.8074   -2.8821    2.8458 C   0  0  0  0  0  0  0  0  0  0  0  0
    6.1351   -1.5957    2.3188 O   0  0  0  0  0  0  0  0  0  0  0  0
    5.5689   -0.5024    3.0151 C   0  0  0  0  0  0  0  0  0  0  0  0
    4.1037   -0.6532    2.6271 C   0  0  1  0  0  0  0  0  0  0  0  0
    4.0825   -0.4348    1.2209 O   0  0  0  0  0  0  0  0  0  0  0  0
    3.0614    0.2278    3.1942 C   0  0  0  0  0  0  0  0  0  0  0  0
    2.7868    1.5350    3.1172 C   0  0  0  0  0  0  0  0  0  0  0  0
    1.3740    1.7629    3.5535 C   0  0  1  0  0  0  0  0  0  0  0  0
    0.7675    2.8733    2.9551 O   0  0  0  0  0  0  0  0  0  0  0  0
    0.6864    0.4014    3.2558 C   0  0  0  0  0  0  0  0  0  0  0  0
   -0.5144    0.1031    4.1563 C   0  0  0  0  0  0  0  0  0  0  0  0
    0.3037    0.3688    1.7639 C   0  0  0  0  0  0  0  0  0  0  0  0
    1.8509   -0.5643    3.5859 C   0  0  1  0  0  0  0  0  0  0  0  0
    6.1380   -4.2022   -1.1635 H   0  0  0  0  0  0  0  0  0  0  0  0
    6.4488   -4.6224    0.4974 H   0  0  0  0  0  0  0  0  0  0  0  0
    6.5835   -2.9002   -0.0560 H   0  0  0  0  0  0  0  0  0  0  0  0
    1.9839   -4.2386    1.6288 H   0  0  0  0  0  0  0  0  0  0  0  0
    1.6595   -4.4161   -0.6518 H   0  0  0  0  0  0  0  0  0  0  0  0
    1.8170   -2.6754   -0.8378 H   0  0  0  0  0  0  0  0  0  0  0  0
    3.7570   -4.5690   -1.4908 H   0  0  0  0  0  0  0  0  0  0  0  0
    2.9672   -0.8130   -1.4387 H   0  0  0  0  0  0  0  0  0  0  0  0
    2.3011    0.5273   -3.9409 H   0  0  0  0  0  0  0  0  0  0  0  0
    2.2062   -1.0784   -4.6510 H   0  0  0  0  0  0  0  0  0  0  0  0
    3.2946    0.1050   -5.3428 H   0  0  0  0  0  0  0  0  0  0  0  0
    4.6850    0.0403   -3.2192 H   0  0  0  0  0  0  0  0  0  0  0  0
    1.6042   -2.7641    3.6469 H   0  0  0  0  0  0  0  0  0  0  0  0
    3.8223   -2.0121    4.2626 H   0  0  0  0  0  0  0  0  0  0  0  0
    4.4222   -4.4028    4.5669 H   0  0  0  0  0  0  0  0  0  0  0  0
    4.6488   -5.3689    3.1279 H   0  0  0  0  0  0  0  0  0  0  0  0
    3.0264   -4.8422    3.5714 H   0  0  0  0  0  0  0  0  0  0  0  0
    5.8957   -2.8866    3.9313 H   0  0  0  0  0  0  0  0  0  0  0  0
    6.3434   -3.6740    2.3553 H   0  0  0  0  0  0  0  0  0  0  0  0
    5.7551   -0.5349    4.0820 H   0  0  0  0  0  0  0  0  0  0  0  0
    5.9944    0.4065    2.6339 H   0  0  0  0  0  0  0  0  0  0  0  0
    3.1801   -0.5565    0.9118 H   0  0  0  0  0  0  0  0  0  0  0  0
    3.4022    2.3062    2.6730 H   0  0  0  0  0  0  0  0  0  0  0  0
    1.3955    1.9511    4.6232 H   0  0  0  0  0  0  0  0  0  0  0  0
    0.7115    2.7932    2.0089 H   0  0  0  0  0  0  0  0  0  0  0  0
   -0.8873   -0.9125    4.0203 H   0  0  0  0  0  0  0  0  0  0  0  0
   -1.3210    0.7906    3.9361 H   0  0  0  0  0  0  0  0  0  0  0  0
   -0.2464    0.2189    5.2040 H   0  0  0  0  0  0  0  0  0  0  0  0
   -0.0526   -0.6168    1.5148 H   0  0  0  0  0  0  0  0  0  0  0  0
    1.1642    0.5399    1.0981 H   0  0  0  0  0  0  0  0  0  0  0  0
   -0.4990    1.0731    1.5166 H   0  0  0  0  0  0  0  0  0  0  0  0
    1.9822   -0.6328    4.6624 H   0  0  0  0  0  0  0  0  0  0  0  0
  1  2  1  0
  1 32  1  0
  1 33  1  0
  1 34  1  0
  2  6  1  0
  2  3  2  0
  3 17  1  0
  3  4  1  0
  4  5  1  0
  4 14  1  0
  4 35  1  1
  5  6  1  0
  5 36  1  0
  5 37  1  0
  6 38  1  6
  6  7  1  0
  7  8  2  0
  7 12  1  0
  8 39  1  0
  8  9  1  0
  9 11  1  0
  9 10  1  0
  9 43  1  1
 10 40  1  0
 10 41  1  0
 10 42  1  0
 11 12  1  0
 12 13  2  0
 14 15  1  0
 15 31  1  0
 15 16  1  0
 15 44  1  1
 16 22  1  0
 16 17  1  0
 16 45  1  1
 17 18  1  1
 17 19  1  0
 18 46  1  0
 18 47  1  0
 18 48  1  0
 19 20  1  0
 19 49  1  0
 19 50  1  0
 20 21  1  0
 21 22  1  0
 21 51  1  0
 21 52  1  0
 22 23  1  6
 22 24  1  0
 23 53  1  0
 24 31  1  0
 24 25  2  0
 25 26  1  0
 25 54  1  0
 26 27  1  0
 26 28  1  0
 26 55  1  1
 27 56  1  0
 28 29  1  0
 28 30  1  0
 28 31  1  0
 29 57  1  0
 29 58  1  0
 29 59  1  0
 30 60  1  0
 30 61  1  0
 30 62  1  0
 31 63  1  1
M  END
>  <i_m_ct_stereo_status>  (259) 
1

>  <s_m_source_file>  (259) 
/var/tmp/pbs.5076255.sched01/tmp7zsp0c9b/86_oh4d05k.sdf

>  <i_m_source_file_index>  (259) 
18

>  <i_lp_mmshare_version>  (259) 
48012

>  <i_f3d_flags>  (259) 
0

>  <s_epik_input>  (259) 
W09IXWMxb2MoW0NIM10pW2NIXWMxW0NAQEhdKEM9MltDSDNdKVtDSDJdW0NAQEhdKEMyW0NAXTM0W0NIM10pT1tDQEhdNVtDQEBIXTNbQ0BdKFtPSF0pKFtDSDJdT1tDSDJdNClDPTZbQ0BIXTVDKFtDSDNdKShbQ0gzXSlbQ0BASF0oW0NIXTYpW09IXQ==

>  <s_epik_cmdline>  (259) 
J2VwaWtfcHl0aG9uJywgJy1waHQnLCAnMi4wJywgJy1waCcsICc3LjAnLCAnLXRuJywgJzgnLCAnLW1hJywgJzIwMCcsICctaW1hZScsICc8aW5maWxlLm1hZT4nLCAnLW9tYWUnLCAnPG91dGZpbGUubWFlPic=

>  <r_lp_tautomer_probability>  (259) 
1

>  <r_epik_Ionization_Penalty>  (259) 
2.40026e-07

>  <r_epik_Ionization_Penalty_Charging>  (259) 
0

>  <r_epik_Ionization_Penalty_Neutral>  (259) 
2.40026e-07

>  <r_epik_State_Penalty>  (259) 
-0

>  <r_epik_Charging_Adjusted_Penalty>  (259) 
0

>  <i_epik_Tot_Q>  (259) 
0

>  <i_epik_Tot_abs_Q>  (259) 
0

>  <s_epik_Chemistry_Notes>  (259) 
This compound has an ester and may undergo hydrolysis at high or low pH.

>  <s_lp_Force_Field>  (259) 
OPLS3e

>  <r_lp_Energy>  (259) 
34.7108

>  <b_lp_Chiralities_Consistent>  (259) 
1

>  <s_lp_Variant>  (259) 
69:0-2

>  <s_i_glide_gridfile>  (259) 
pfpi4k_grid

>  <i_i_glide_lignum>  (259) 
18

>  <i_i_glide_rotatable_bonds>  (259) 
3

>  <r_i_docking_score>  (259) 
-3.26643

>  <r_i_glide_ligand_efficiency>  (259) 
-0.105369

>  <r_i_glide_ligand_efficiency_sa>  (259) 
-0.331003

>  <r_i_glide_ligand_efficiency_ln>  (259) 
-0.73668

>  <r_i_glide_gscore>  (259) 
-3.26643

>  <r_i_glide_lipo>  (259) 
-0.737116

>  <r_i_glide_hbond>  (259) 
-0.293477

>  <r_i_glide_metal>  (259) 
-0

>  <r_i_glide_rewards>  (259) 
-1.19805

>  <r_i_glide_evdw>  (259) 
-18.3644

>  <r_i_glide_ecoul>  (259) 
-2.74336

>  <r_i_glide_erotb>  (259) 
0.108178

>  <r_i_glide_esite>  (259) 
0

>  <r_i_glide_emodel>  (259) 
-23.8079

>  <r_i_glide_energy>  (259) 
-21.1077

>  <r_i_glide_einternal>  (259) 
1.41134

>  <r_i_glide_intrahb_reward>  (259) 
-0.5

>  <i_i_glide_confnum>  (259) 
3

>  <i_i_glide_posenum>  (259) 
5

>  <r_i_glide_eff_state_penalty>  (259) 
0

>  <ligand_id>  (259) 
69

>  <original_smiles>  (259) 
CC1=C2C(CC1c1cc(C)oc1O)OC1C3C2(C)COCC3(O)C2=CC(O)C(C)(C)C21

>  <smiles>  (259) 
[H]OC1([H])C([H])=C2C([H])(C3([H])OC4([H])C(=C(C([H])([H])[H])C([H])(C5=C([H])C([H])(C([H])([H])[H])OC5=O)C4([H])[H])C4(C([H])([H])[H])C([H])([H])OC([H])([H])C2(O[H])C34[H])C1(C([H])([H])[H])C([H])([H])[H]

$$$$
70:0:0
     RDKit          3D

 36 39  0  0  1  0  0  0  0  0999 V2000
    2.6392   -0.5248    2.2859 C   0  0  0  0  0  0  0  0  0  0  0  0
    3.6730   -1.4335    2.9620 C   0  0  0  0  0  0  0  0  0  0  0  0
    4.3716   -0.9547    3.8573 O   0  0  0  0  0  0  0  0  0  0  0  0
    3.7961   -2.7237    2.5787 N   0  0  0  0  0  0  0  0  0  0  0  0
    4.6759   -3.7534    3.0856 C   0  0  1  0  0  0  0  0  0  0  0  0
    3.6716   -4.8061    3.5654 C   0  0  0  0  0  0  0  0  0  0  0  0
    2.5492   -4.6513    2.5257 C   0  0  0  0  0  0  0  0  0  0  0  0
    3.0923   -3.5323    1.6025 C   0  0  2  0  0  0  0  0  0  0  0  0
    4.2790   -4.0184    0.7176 C   0  0  1  0  0  0  0  0  0  0  0  0
    3.9899   -5.2682    0.1119 O   0  0  0  0  0  0  0  0  0  0  0  0
    4.6807   -3.0077   -0.3225 C   0  0  0  0  0  0  0  0  0  0  0  0
    5.7865   -2.2041   -0.4050 C   0  0  0  0  0  0  0  0  0  0  0  0
    5.7847   -1.4421   -1.5548 N   0  0  0  0  0  0  0  0  0  0  0  0
    4.6552   -1.7403   -2.1888 C   0  0  0  0  0  0  0  0  0  0  0  0
    4.2113   -1.2505   -3.3605 N   0  0  0  0  0  0  0  0  0  0  0  0
    3.0494   -1.7091   -3.7995 C   0  0  0  0  0  0  0  0  0  0  0  0
    2.2779   -2.6864   -3.1359 C   0  0  0  0  0  0  0  0  0  0  0  0
    2.7319   -3.1738   -1.9366 C   0  0  0  0  0  0  0  0  0  0  0  0
    3.9265   -2.7119   -1.4580 N   0  0  0  0  0  0  0  0  0  0  0  0
    5.3674   -4.2519    1.8057 C   0  0  0  0  0  0  0  0  0  0  0  0
    2.0702   -0.9997    1.4853 H   0  0  0  0  0  0  0  0  0  0  0  0
    3.1353    0.3468    1.8483 H   0  0  0  0  0  0  0  0  0  0  0  0
    1.9178   -0.1578    3.0235 H   0  0  0  0  0  0  0  0  0  0  0  0
    5.3843   -3.4329    3.8489 H   0  0  0  0  0  0  0  0  0  0  0  0
    4.1090   -5.8049    3.5628 H   0  0  0  0  0  0  0  0  0  0  0  0
    3.3171   -4.5771    4.5709 H   0  0  0  0  0  0  0  0  0  0  0  0
    2.3494   -5.5802    1.9937 H   0  0  0  0  0  0  0  0  0  0  0  0
    1.6251   -4.3389    3.0123 H   0  0  0  0  0  0  0  0  0  0  0  0
    2.2934   -3.0483    1.0393 H   0  0  0  0  0  0  0  0  0  0  0  0
    3.4264   -5.1283   -0.6322 H   0  0  0  0  0  0  0  0  0  0  0  0
    6.6159   -2.1165    0.2750 H   0  0  0  0  0  0  0  0  0  0  0  0
    2.6864   -1.2856   -4.7301 H   0  0  0  0  0  0  0  0  0  0  0  0
    1.3378   -3.0495   -3.5507 H   0  0  0  0  0  0  0  0  0  0  0  0
    2.1890   -3.9227   -1.3709 H   0  0  0  0  0  0  0  0  0  0  0  0
    6.2885   -3.6914    1.6576 H   0  0  0  0  0  0  0  0  0  0  0  0
    5.6655   -5.3007    1.8766 H   0  0  0  0  0  0  0  0  0  0  0  0
  1  2  1  0
  1 21  1  0
  1 22  1  0
  1 23  1  0
  2  3  2  0
  2  4  1  0
  4  8  1  0
  4  5  1  0
  5 20  1  0
  5  6  1  0
  5 24  1  1
  6  7  1  0
  6 25  1  0
  6 26  1  0
  7  8  1  0
  7 27  1  0
  7 28  1  0
  8  9  1  0
  8 29  1  6
  9 10  1  6
  9 11  1  0
  9 20  1  0
 10 30  1  0
 11 19  1  0
 11 12  2  0
 12 13  1  0
 12 31  1  0
 13 14  2  0
 14 19  1  0
 14 15  1  0
 15 16  2  0
 16 17  1  0
 16 32  1  0
 17 18  2  0
 17 33  1  0
 18 19  1  0
 18 34  1  0
 20 35  1  0
 20 36  1  0
M  END
>  <i_m_ct_stereo_status>  (260) 
1

>  <s_m_source_file>  (260) 
/var/tmp/pbs.5076255.sched01/tmp7zsp0c9b/86_oh4d05k.sdf

>  <i_m_source_file_index>  (260) 
19

>  <i_lp_mmshare_version>  (260) 
48012

>  <i_f3d_flags>  (260) 
0

>  <s_epik_input>  (260) 
W0NIM11DKD1PKU4oW0NAQEhdMTIpW0NASF0oW0NIMl1bQ0gyXTEpW0NAXShbT0hdKShbQ0gyXTIpYyhbY0hdbjMpbihjMzQpW2NIXVtjSF1bY0hdbjQ=

>  <s_epik_cmdline>  (260) 
J2VwaWtfcHl0aG9uJywgJy1waHQnLCAnMi4wJywgJy1waCcsICc3LjAnLCAnLXRuJywgJzgnLCAnLW1hJywgJzIwMCcsICctaW1hZScsICc8aW5maWxlLm1hZT4nLCAnLW9tYWUnLCAnPG91dGZpbGUubWFlPic=

>  <r_lp_tautomer_probability>  (260) 
1

>  <r_epik_Ionization_Penalty>  (260) 
0.000100186

>  <r_epik_Ionization_Penalty_Charging>  (260) 
9.70155e-05

>  <r_epik_Ionization_Penalty_Neutral>  (260) 
3.17089e-06

>  <r_epik_State_Penalty>  (260) 
-0

>  <r_epik_Charging_Adjusted_Penalty>  (260) 
9.70155e-05

>  <i_epik_Tot_Q>  (260) 
0

>  <i_epik_Tot_abs_Q>  (260) 
0

>  <s_lp_Force_Field>  (260) 
OPLS3e

>  <r_lp_Energy>  (260) 
39.8428

>  <b_lp_Chiralities_Consistent>  (260) 
1

>  <s_lp_Variant>  (260) 
70:0-1

>  <s_i_glide_gridfile>  (260) 
pfpi4k_grid

>  <i_i_glide_lignum>  (260) 
19

>  <i_i_glide_rotatable_bonds>  (260) 
3

>  <r_i_docking_score>  (260) 
-4.14901

>  <r_i_glide_ligand_efficiency>  (260) 
-0.207451

>  <r_i_glide_ligand_efficiency_sa>  (260) 
-0.563107

>  <r_i_glide_ligand_efficiency_ln>  (260) 
-1.03836

>  <r_i_glide_gscore>  (260) 
-4.14901

>  <r_i_glide_lipo>  (260) 
-0.414902

>  <r_i_glide_hbond>  (260) 
-0.183376

>  <r_i_glide_metal>  (260) 
-0

>  <r_i_glide_rewards>  (260) 
-1.55325

>  <r_i_glide_evdw>  (260) 
-24.0184

>  <r_i_glide_ecoul>  (260) 
-6.62513

>  <r_i_glide_erotb>  (260) 
0.241668

>  <r_i_glide_esite>  (260) 
-0.044461

>  <r_i_glide_emodel>  (260) 
-38.0702

>  <r_i_glide_energy>  (260) 
-30.6435

>  <r_i_glide_einternal>  (260) 
2.2449

>  <r_i_glide_intrahb_reward>  (260) 
-0

>  <i_i_glide_confnum>  (260) 
5

>  <i_i_glide_posenum>  (260) 
14

>  <r_i_glide_eff_state_penalty>  (260) 
0

>  <ligand_id>  (260) 
70

>  <original_smiles>  (260) 
CC(=O)N1C2CCC1C(O)(c1cnc3ncccn13)C2

>  <smiles>  (260) 
[H]OC1(c2c([H])nc3nc([H])c([H])c([H])n23)C([H])([H])C2([H])N(C(=O)C([H])([H])[H])C1([H])C([H])([H])C2([H])[H]

$$$$
70:0:1
     RDKit          3D

 36 39  0  0  1  0  0  0  0  0999 V2000
    0.7319   -2.0616    4.0790 C   0  0  0  0  0  0  0  0  0  0  0  0
    1.7829   -0.9558    4.2397 C   0  0  0  0  0  0  0  0  0  0  0  0
    2.8279   -1.2312    4.8285 O   0  0  0  0  0  0  0  0  0  0  0  0
    1.5430    0.2784    3.7488 N   0  0  0  0  0  0  0  0  0  0  0  0
    2.3825    1.4526    3.7822 C   0  0  1  0  0  0  0  0  0  0  0  0
    2.5415    1.7436    2.2888 C   0  0  0  0  0  0  0  0  0  0  0  0
    1.1744    1.3192    1.7388 C   0  0  0  0  0  0  0  0  0  0  0  0
    0.4374    0.8563    3.0071 C   0  0  2  0  0  0  0  0  0  0  0  0
    0.0483    2.0510    3.9254 C   0  0  1  0  0  0  0  0  0  0  0  0
   -0.5966    3.0861    3.2133 O   0  0  0  0  0  0  0  0  0  0  0  0
   -0.8269    1.6511    5.0625 C   0  0  0  0  0  0  0  0  0  0  0  0
   -1.4809    0.4770    5.3131 C   0  0  0  0  0  0  0  0  0  0  0  0
   -2.1869    0.5359    6.5009 N   0  0  0  0  0  0  0  0  0  0  0  0
   -2.0048    1.7641    6.9727 C   0  0  0  0  0  0  0  0  0  0  0  0
   -2.4992    2.2924    8.1019 N   0  0  0  0  0  0  0  0  0  0  0  0
   -2.1560    3.5419    8.3903 C   0  0  0  0  0  0  0  0  0  0  0  0
   -1.3222    4.3366    7.5683 C   0  0  0  0  0  0  0  0  0  0  0  0
   -0.8315    3.7909    6.4038 C   0  0  0  0  0  0  0  0  0  0  0  0
   -1.1636    2.5012    6.1079 N   0  0  0  0  0  0  0  0  0  0  0  0
    1.4487    2.4988    4.4132 C   0  0  0  0  0  0  0  0  0  0  0  0
   -0.1748   -1.7486    3.5645 H   0  0  0  0  0  0  0  0  0  0  0  0
    0.4345   -2.4417    5.0613 H   0  0  0  0  0  0  0  0  0  0  0  0
    1.1464   -2.8953    3.5054 H   0  0  0  0  0  0  0  0  0  0  0  0
    3.3280    1.3530    4.3130 H   0  0  0  0  0  0  0  0  0  0  0  0
    2.7465    2.7957    2.1021 H   0  0  0  0  0  0  0  0  0  0  0  0
    3.3439    1.1457    1.8537 H   0  0  0  0  0  0  0  0  0  0  0  0
    0.6518    2.1294    1.2371 H   0  0  0  0  0  0  0  0  0  0  0  0
    1.2862    0.5030    1.0254 H   0  0  0  0  0  0  0  0  0  0  0  0
   -0.3960    0.2070    2.7524 H   0  0  0  0  0  0  0  0  0  0  0  0
   -0.1280    3.2744    2.4004 H   0  0  0  0  0  0  0  0  0  0  0  0
   -1.4997   -0.4310    4.7329 H   0  0  0  0  0  0  0  0  0  0  0  0
   -2.5594    3.9543    9.3138 H   0  0  0  0  0  0  0  0  0  0  0  0
   -1.0656    5.3571    7.8486 H   0  0  0  0  0  0  0  0  0  0  0  0
   -0.1849    4.3159    5.7096 H   0  0  0  0  0  0  0  0  0  0  0  0
    1.5361    2.4606    5.5020 H   0  0  0  0  0  0  0  0  0  0  0  0
    1.6995    3.5144    4.0998 H   0  0  0  0  0  0  0  0  0  0  0  0
  1  2  1  0
  1 21  1  0
  1 22  1  0
  1 23  1  0
  2  3  2  0
  2  4  1  0
  4  8  1  0
  4  5  1  0
  5 20  1  0
  5  6  1  0
  5 24  1  1
  6  7  1  0
  6 25  1  0
  6 26  1  0
  7  8  1  0
  7 27  1  0
  7 28  1  0
  8  9  1  0
  8 29  1  6
  9 10  1  6
  9 11  1  0
  9 20  1  0
 10 30  1  0
 11 19  1  0
 11 12  2  0
 12 13  1  0
 12 31  1  0
 13 14  2  0
 14 19  1  0
 14 15  1  0
 15 16  2  0
 16 17  1  0
 16 32  1  0
 17 18  2  0
 17 33  1  0
 18 19  1  0
 18 34  1  0
 20 35  1  0
 20 36  1  0
M  END
>  <i_m_ct_stereo_status>  (261) 
1

>  <s_m_source_file>  (261) 
/var/tmp/pbs.5076255.sched01/tmp7zsp0c9b/86_oh4d05k.sdf

>  <i_m_source_file_index>  (261) 
19

>  <i_lp_mmshare_version>  (261) 
48012

>  <i_f3d_flags>  (261) 
0

>  <s_epik_input>  (261) 
W0NIM11DKD1PKU4oW0NAQEhdMTIpW0NASF0oW0NIMl1bQ0gyXTEpW0NAXShbT0hdKShbQ0gyXTIpYyhbY0hdbjMpbihjMzQpW2NIXVtjSF1bY0hdbjQ=

>  <s_epik_cmdline>  (261) 
J2VwaWtfcHl0aG9uJywgJy1waHQnLCAnMi4wJywgJy1waCcsICc3LjAnLCAnLXRuJywgJzgnLCAnLW1hJywgJzIwMCcsICctaW1hZScsICc8aW5maWxlLm1hZT4nLCAnLW9tYWUnLCAnPG91dGZpbGUubWFlPic=

>  <r_lp_tautomer_probability>  (261) 
1

>  <r_epik_Ionization_Penalty>  (261) 
0.000100186

>  <r_epik_Ionization_Penalty_Charging>  (261) 
9.70155e-05

>  <r_epik_Ionization_Penalty_Neutral>  (261) 
3.17089e-06

>  <r_epik_State_Penalty>  (261) 
-0

>  <r_epik_Charging_Adjusted_Penalty>  (261) 
9.70155e-05

>  <i_epik_Tot_Q>  (261) 
0

>  <i_epik_Tot_abs_Q>  (261) 
0

>  <s_lp_Force_Field>  (261) 
OPLS3e

>  <r_lp_Energy>  (261) 
39.8428

>  <b_lp_Chiralities_Consistent>  (261) 
1

>  <s_lp_Variant>  (261) 
70:0-1

>  <s_i_glide_gridfile>  (261) 
pfpi4k_grid

>  <i_i_glide_lignum>  (261) 
19

>  <i_i_glide_rotatable_bonds>  (261) 
3

>  <r_i_docking_score>  (261) 
-4.00402

>  <r_i_glide_ligand_efficiency>  (261) 
-0.200201

>  <r_i_glide_ligand_efficiency_sa>  (261) 
-0.54343

>  <r_i_glide_ligand_efficiency_ln>  (261) 
-1.00208

>  <r_i_glide_gscore>  (261) 
-4.00402

>  <r_i_glide_lipo>  (261) 
-0.0404688

>  <r_i_glide_hbond>  (261) 
-0.32

>  <r_i_glide_metal>  (261) 
-0

>  <r_i_glide_rewards>  (261) 
-1.56078

>  <r_i_glide_evdw>  (261) 
-18.0791

>  <r_i_glide_ecoul>  (261) 
-9.21621

>  <r_i_glide_erotb>  (261) 
0.241668

>  <r_i_glide_esite>  (261) 
-0.0380596

>  <r_i_glide_emodel>  (261) 
-35.3676

>  <r_i_glide_energy>  (261) 
-27.2953

>  <r_i_glide_einternal>  (261) 
0.275765

>  <r_i_glide_intrahb_reward>  (261) 
-0

>  <i_i_glide_confnum>  (261) 
1

>  <i_i_glide_posenum>  (261) 
2

>  <r_i_glide_eff_state_penalty>  (261) 
0

>  <ligand_id>  (261) 
70

>  <original_smiles>  (261) 
CC(=O)N1C2CCC1C(O)(c1cnc3ncccn13)C2

>  <smiles>  (261) 
[H]OC1(c2c([H])nc3nc([H])c([H])c([H])n23)C([H])([H])C2([H])N(C(=O)C([H])([H])[H])C1([H])C([H])([H])C2([H])[H]

$$$$
70:0:2
     RDKit          3D

 36 39  0  0  1  0  0  0  0  0999 V2000
    3.0310    0.2494    1.9030 C   0  0  0  0  0  0  0  0  0  0  0  0
    3.9180   -0.6767    2.7488 C   0  0  0  0  0  0  0  0  0  0  0  0
    4.6950   -0.1622    3.5539 O   0  0  0  0  0  0  0  0  0  0  0  0
    3.8267   -2.0176    2.6058 N   0  0  0  0  0  0  0  0  0  0  0  0
    4.5086   -3.0707    3.3293 C   0  0  1  0  0  0  0  0  0  0  0  0
    3.3278   -3.8411    3.9313 C   0  0  0  0  0  0  0  0  0  0  0  0
    2.2700   -3.6921    2.8255 C   0  0  0  0  0  0  0  0  0  0  0  0
    3.0188   -2.8648    1.7515 C   0  0  2  0  0  0  0  0  0  0  0  0
    4.1234   -3.6903    1.0267 C   0  0  1  0  0  0  0  0  0  0  0  0
    3.6150   -4.9432    0.6114 O   0  0  0  0  0  0  0  0  0  0  0  0
    4.7165   -2.9615   -0.1464 C   0  0  0  0  0  0  0  0  0  0  0  0
    5.9538   -2.3984   -0.3184 C   0  0  0  0  0  0  0  0  0  0  0  0
    6.0979   -1.8468   -1.5743 N   0  0  0  0  0  0  0  0  0  0  0  0
    4.9371   -2.0451   -2.1916 C   0  0  0  0  0  0  0  0  0  0  0  0
    4.5923   -1.6763   -3.4366 N   0  0  0  0  0  0  0  0  0  0  0  0
    3.3676   -1.9748   -3.8411 C   0  0  0  0  0  0  0  0  0  0  0  0
    2.4265   -2.6783   -3.0589 C   0  0  0  0  0  0  0  0  0  0  0  0
    2.7857   -3.0556   -1.7849 C   0  0  0  0  0  0  0  0  0  0  0  0
    4.0403   -2.7396   -1.3440 N   0  0  0  0  0  0  0  0  0  0  0  0
    5.1320   -3.8998    2.1936 C   0  0  0  0  0  0  0  0  0  0  0  0
    2.3771   -0.2641    1.1971 H   0  0  0  0  0  0  0  0  0  0  0  0
    3.6521    0.9375    1.3221 H   0  0  0  0  0  0  0  0  0  0  0  0
    2.3911    0.8540    2.5530 H   0  0  0  0  0  0  0  0  0  0  0  0
    5.2428   -2.7372    4.0614 H   0  0  0  0  0  0  0  0  0  0  0  0
    3.5879   -4.8818    4.1261 H   0  0  0  0  0  0  0  0  0  0  0  0
    2.9948   -3.3804    4.8620 H   0  0  0  0  0  0  0  0  0  0  0  0
    1.9179   -4.6515    2.4519 H   0  0  0  0  0  0  0  0  0  0  0  0
    1.4032   -3.1460    3.1995 H   0  0  0  0  0  0  0  0  0  0  0  0
    2.3278   -2.3674    1.0704 H   0  0  0  0  0  0  0  0  0  0  0  0
    3.3213   -5.4147    1.3799 H   0  0  0  0  0  0  0  0  0  0  0  0
    6.7828   -2.3527    0.3630 H   0  0  0  0  0  0  0  0  0  0  0  0
    3.0991   -1.6442   -4.8402 H   0  0  0  0  0  0  0  0  0  0  0  0
    1.4324   -2.9076   -3.4418 H   0  0  0  0  0  0  0  0  0  0  0  0
    2.1244   -3.5922   -1.1150 H   0  0  0  0  0  0  0  0  0  0  0  0
    6.1361   -3.5288    1.9999 H   0  0  0  0  0  0  0  0  0  0  0  0
    5.2531   -4.9505    2.4640 H   0  0  0  0  0  0  0  0  0  0  0  0
  1  2  1  0
  1 21  1  0
  1 22  1  0
  1 23  1  0
  2  3  2  0
  2  4  1  0
  4  8  1  0
  4  5  1  0
  5 20  1  0
  5  6  1  0
  5 24  1  1
  6  7  1  0
  6 25  1  0
  6 26  1  0
  7  8  1  0
  7 27  1  0
  7 28  1  0
  8  9  1  0
  8 29  1  6
  9 10  1  6
  9 11  1  0
  9 20  1  0
 10 30  1  0
 11 19  1  0
 11 12  2  0
 12 13  1  0
 12 31  1  0
 13 14  2  0
 14 19  1  0
 14 15  1  0
 15 16  2  0
 16 17  1  0
 16 32  1  0
 17 18  2  0
 17 33  1  0
 18 19  1  0
 18 34  1  0
 20 35  1  0
 20 36  1  0
M  END
>  <i_m_ct_stereo_status>  (262) 
1

>  <s_m_source_file>  (262) 
/var/tmp/pbs.5076255.sched01/tmp7zsp0c9b/86_oh4d05k.sdf

>  <i_m_source_file_index>  (262) 
19

>  <i_lp_mmshare_version>  (262) 
48012

>  <i_f3d_flags>  (262) 
0

>  <s_epik_input>  (262) 
W0NIM11DKD1PKU4oW0NAQEhdMTIpW0NASF0oW0NIMl1bQ0gyXTEpW0NAXShbT0hdKShbQ0gyXTIpYyhbY0hdbjMpbihjMzQpW2NIXVtjSF1bY0hdbjQ=

>  <s_epik_cmdline>  (262) 
J2VwaWtfcHl0aG9uJywgJy1waHQnLCAnMi4wJywgJy1waCcsICc3LjAnLCAnLXRuJywgJzgnLCAnLW1hJywgJzIwMCcsICctaW1hZScsICc8aW5maWxlLm1hZT4nLCAnLW9tYWUnLCAnPG91dGZpbGUubWFlPic=

>  <r_lp_tautomer_probability>  (262) 
1

>  <r_epik_Ionization_Penalty>  (262) 
0.000100186

>  <r_epik_Ionization_Penalty_Charging>  (262) 
9.70155e-05

>  <r_epik_Ionization_Penalty_Neutral>  (262) 
3.17089e-06

>  <r_epik_State_Penalty>  (262) 
-0

>  <r_epik_Charging_Adjusted_Penalty>  (262) 
9.70155e-05

>  <i_epik_Tot_Q>  (262) 
0

>  <i_epik_Tot_abs_Q>  (262) 
0

>  <s_lp_Force_Field>  (262) 
OPLS3e

>  <r_lp_Energy>  (262) 
39.8428

>  <b_lp_Chiralities_Consistent>  (262) 
1

>  <s_lp_Variant>  (262) 
70:0-1

>  <s_i_glide_gridfile>  (262) 
pfpi4k_grid

>  <i_i_glide_lignum>  (262) 
19

>  <i_i_glide_rotatable_bonds>  (262) 
3

>  <r_i_docking_score>  (262) 
-3.69627

>  <r_i_glide_ligand_efficiency>  (262) 
-0.184814

>  <r_i_glide_ligand_efficiency_sa>  (262) 
-0.501661

>  <r_i_glide_ligand_efficiency_ln>  (262) 
-0.925054

>  <r_i_glide_gscore>  (262) 
-3.69627

>  <r_i_glide_lipo>  (262) 
-0.346745

>  <r_i_glide_hbond>  (262) 
-0.123782

>  <r_i_glide_metal>  (262) 
-0

>  <r_i_glide_rewards>  (262) 
-1.58586

>  <r_i_glide_evdw>  (262) 
-24.7815

>  <r_i_glide_ecoul>  (262) 
-4.15089

>  <r_i_glide_erotb>  (262) 
0.241668

>  <r_i_glide_esite>  (262) 
-0.0198438

>  <r_i_glide_emodel>  (262) 
-35.8906

>  <r_i_glide_energy>  (262) 
-28.9324

>  <r_i_glide_einternal>  (262) 
1.36166

>  <r_i_glide_intrahb_reward>  (262) 
-0

>  <i_i_glide_confnum>  (262) 
2

>  <i_i_glide_posenum>  (262) 
4

>  <r_i_glide_eff_state_penalty>  (262) 
0

>  <ligand_id>  (262) 
70

>  <original_smiles>  (262) 
CC(=O)N1C2CCC1C(O)(c1cnc3ncccn13)C2

>  <smiles>  (262) 
[H]OC1(c2c([H])nc3nc([H])c([H])c([H])n23)C([H])([H])C2([H])N(C(=O)C([H])([H])[H])C1([H])C([H])([H])C2([H])[H]

$$$$
71:0:0
     RDKit          3D

 65 70  0  0  1  0  0  0  0  0999 V2000
   -0.1041   -6.8214    1.1968 C   0  0  0  0  0  0  0  0  0  0  0  0
    1.2869   -6.2203    1.2328 C   0  0  0  0  0  0  0  0  0  0  0  0
    1.9741   -5.6851    0.2122 C   0  0  0  0  0  0  0  0  0  0  0  0
    3.4398   -5.3447    0.5295 C   0  0  1  0  0  0  0  0  0  0  0  0
    3.8477   -3.7397    0.5017 C   0  0  1  0  0  0  0  0  0  0  0  0
    2.9291   -2.6775   -0.1296 C   0  0  0  0  0  0  0  0  0  0  0  0
    3.0902   -2.6316   -1.5869 N   0  0  0  0  0  0  0  0  0  0  0  0
    2.0122   -3.1885   -2.4137 C   0  0  0  0  0  0  0  0  0  0  0  0
    2.5309   -2.8069   -3.7551 C   0  0  0  0  0  0  0  0  0  0  0  0
    3.6499   -2.1121   -3.6910 C   0  0  0  0  0  0  0  0  0  0  0  0
    4.0076   -1.9715   -2.2929 C   0  0  0  0  0  0  0  0  0  0  0  0
    4.9879   -1.3603   -1.8374 O   0  0  0  0  0  0  0  0  0  0  0  0
    4.1747   -3.4941    2.0364 C   0  0  1  0  0  0  0  0  0  0  0  0
    5.7345   -3.8151    1.9515 C   0  0  0  0  0  0  0  0  0  0  0  0
    6.3696   -5.0935    1.3475 C   0  0  0  0  0  0  0  0  0  0  0  0
    5.9341   -6.4111    1.9740 C   0  0  1  0  0  0  0  0  0  0  0  0
    7.0757   -7.1489    2.6950 C   0  0  0  0  0  0  0  0  0  0  0  0
    4.6567   -6.2684    2.8195 C   0  0  1  0  0  0  0  0  0  0  0  0
    4.8599   -5.6982    4.3080 C   0  0  0  0  0  0  0  0  0  0  0  0
    5.0408   -4.1902    4.8376 C   0  0  0  0  0  0  0  0  0  0  0  0
    4.1693   -2.8797    4.4907 C   0  0  1  0  0  0  0  0  0  0  0  0
    4.5187   -1.7694    5.4946 C   0  0  0  0  0  0  0  0  0  0  0  0
    4.0596   -2.3047    2.9992 C   0  0  1  0  0  0  0  0  0  0  0  0
    4.9848   -1.1070    2.6757 C   0  0  0  0  0  0  0  0  0  0  0  0
    3.4196   -5.7574    2.0267 C   0  0  2  0  0  0  0  0  0  0  0  0
    2.0635   -6.2347    2.5362 C   0  0  1  0  0  0  0  0  0  0  0  0
    2.0524   -4.9968    3.4921 C   0  0  0  0  0  0  0  0  0  0  0  0
    3.0628   -4.4401    2.4643 C   0  0  1  0  0  0  0  0  0  0  0  0
   -0.0378   -7.8463    1.5597 H   0  0  0  0  0  0  0  0  0  0  0  0
   -0.5449   -6.8566    0.1977 H   0  0  0  0  0  0  0  0  0  0  0  0
   -0.7723   -6.2990    1.8674 H   0  0  0  0  0  0  0  0  0  0  0  0
    1.5777   -5.6645   -0.7913 H   0  0  0  0  0  0  0  0  0  0  0  0
    4.0886   -5.9491   -0.0963 H   0  0  0  0  0  0  0  0  0  0  0  0
    4.7403   -3.6402   -0.1052 H   0  0  0  0  0  0  0  0  0  0  0  0
    1.8743   -2.7651    0.1469 H   0  0  0  0  0  0  0  0  0  0  0  0
    3.2249   -1.6852    0.2327 H   0  0  0  0  0  0  0  0  0  0  0  0
    1.9134   -4.2489   -2.3464 H   0  0  0  0  0  0  0  0  0  0  0  0
    1.9788   -3.0922   -4.6359 H   0  0  0  0  0  0  0  0  0  0  0  0
    4.1930   -1.6934   -4.5275 H   0  0  0  0  0  0  0  0  0  0  0  0
    1.0584   -2.7148   -2.2447 H   0  0  0  0  0  0  0  0  0  0  0  0
    6.1815   -3.0155    1.3620 H   0  0  0  0  0  0  0  0  0  0  0  0
    6.2066   -3.6513    2.8866 H   0  0  0  0  0  0  0  0  0  0  0  0
    6.2279   -5.1447    0.2623 H   0  0  0  0  0  0  0  0  0  0  0  0
    7.4520   -5.0031    1.4511 H   0  0  0  0  0  0  0  0  0  0  0  0
    5.6650   -7.0619    1.1485 H   0  0  0  0  0  0  0  0  0  0  0  0
    7.5399   -6.5405    3.4670 H   0  0  0  0  0  0  0  0  0  0  0  0
    7.8586   -7.4330    1.9859 H   0  0  0  0  0  0  0  0  0  0  0  0
    6.7075   -8.0698    3.1557 H   0  0  0  0  0  0  0  0  0  0  0  0
    4.4197   -7.3087    3.0226 H   0  0  0  0  0  0  0  0  0  0  0  0
    4.0965   -6.1641    4.9302 H   0  0  0  0  0  0  0  0  0  0  0  0
    5.7291   -6.2077    4.7089 H   0  0  0  0  0  0  0  0  0  0  0  0
    4.8908   -4.3048    5.9115 H   0  0  0  0  0  0  0  0  0  0  0  0
    6.1048   -3.9348    4.8423 H   0  0  0  0  0  0  0  0  0  0  0  0
    3.1527   -3.1364    4.7760 H   0  0  0  0  0  0  0  0  0  0  0  0
    5.5476   -1.4296    5.3911 H   0  0  0  0  0  0  0  0  0  0  0  0
    4.3965   -2.1183    6.5208 H   0  0  0  0  0  0  0  0  0  0  0  0
    3.8608   -0.9105    5.3746 H   0  0  0  0  0  0  0  0  0  0  0  0
    3.0442   -1.9026    2.8922 H   0  0  0  0  0  0  0  0  0  0  0  0
    6.0278   -1.2848    2.9297 H   0  0  0  0  0  0  0  0  0  0  0  0
    4.6736   -0.2131    3.2169 H   0  0  0  0  0  0  0  0  0  0  0  0
    4.9446   -0.8496    1.6184 H   0  0  0  0  0  0  0  0  0  0  0  0
    2.1049   -7.2051    3.0165 H   0  0  0  0  0  0  0  0  0  0  0  0
    1.0727   -4.5204    3.5157 H   0  0  0  0  0  0  0  0  0  0  0  0
    2.3828   -5.2101    4.5008 H   0  0  0  0  0  0  0  0  0  0  0  0
    2.2038   -3.9569    1.9825 H   0  0  0  0  0  0  0  0  0  0  0  0
  1  2  1  0
  1 29  1  0
  1 30  1  0
  1 31  1  0
  2 26  1  0
  2  3  2  0
  3  4  1  0
  3 32  1  0
  4 25  1  0
  4  5  1  0
  4 33  1  6
  5  6  1  0
  5 13  1  0
  5 34  1  6
  6 35  1  0
  6 36  1  0
  6  7  1  0
  7  8  1  0
  7 11  1  0
  8 37  1  0
  8 40  1  0
  8  9  1  0
  9 10  2  0
  9 38  1  0
 10 11  1  0
 10 39  1  0
 11 12  2  0
 13 23  1  0
 13 28  1  0
 13 14  1  6
 14 15  1  0
 14 41  1  0
 14 42  1  0
 15 16  1  0
 15 43  1  0
 15 44  1  0
 16 17  1  0
 16 18  1  0
 16 45  1  6
 17 46  1  0
 17 47  1  0
 17 48  1  0
 18 19  1  0
 18 25  1  0
 18 49  1  1
 19 20  1  0
 19 50  1  0
 19 51  1  0
 20 21  1  0
 20 52  1  0
 20 53  1  0
 21 22  1  0
 21 23  1  0
 21 54  1  1
 22 55  1  0
 22 56  1  0
 22 57  1  0
 23 24  1  0
 23 58  1  1
 24 59  1  0
 24 60  1  0
 24 61  1  0
 25 28  1  0
 25 26  1  6
 26 27  1  0
 26 62  1  1
 27 28  1  0
 27 63  1  0
 27 64  1  0
 28 65  1  6
M  END
>  <i_m_ct_stereo_status>  (263) 
1

>  <s_m_source_file>  (263) 
/var/tmp/pbs.5076255.sched01/tmp7zsp0c9b/86_oh4d05k.sdf

>  <i_m_source_file_index>  (263) 
20

>  <i_lp_mmshare_version>  (263) 
48012

>  <i_f3d_flags>  (263) 
0

>  <s_epik_input>  (263) 
W0NIM11bQ0BASF0xW0NASF0oW0NIM10pW0NIMl1bQ0gyXVtDQEhdKFtDQEhdKFtDSDNdKVtDSDJdW0NIMl0yKVtDQEBdMyhbQ0BASF00W0NAQF0xMjUpW0NAQEhdKFtDSF09QyhbQ0gzXSlbQ0BASF0zW0NIMl00KVtDQEhdNVtDSDJdbjZbY0hdW2NIXVtjSF1jNltPSF0=

>  <s_epik_cmdline>  (263) 
J2VwaWtfcHl0aG9uJywgJy1waHQnLCAnMi4wJywgJy1waCcsICc3LjAnLCAnLXRuJywgJzgnLCAnLW1hJywgJzIwMCcsICctaW1hZScsICc8aW5maWxlLm1hZT4nLCAnLW9tYWUnLCAnPG91dGZpbGUubWFlPic=

>  <r_lp_tautomer_probability>  (263) 
0.961761

>  <r_epik_Ionization_Penalty>  (263) 
3.83959e-05

>  <r_epik_Ionization_Penalty_Charging>  (263) 
0

>  <r_epik_Ionization_Penalty_Neutral>  (263) 
3.83959e-05

>  <r_epik_State_Penalty>  (263) 
0.0186766

>  <r_epik_Charging_Adjusted_Penalty>  (263) 
0.0186766

>  <i_epik_Tot_Q>  (263) 
0

>  <i_epik_Tot_abs_Q>  (263) 
0

>  <s_lp_Force_Field>  (263) 
OPLS3e

>  <r_lp_Energy>  (263) 
182.894

>  <b_lp_Chiralities_Consistent>  (263) 
1

>  <s_lp_Variant>  (263) 
71:0-1

>  <s_i_glide_gridfile>  (263) 
pfpi4k_grid

>  <i_i_glide_lignum>  (263) 
20

>  <i_i_glide_rotatable_bonds>  (263) 
2

>  <r_i_docking_score>  (263) 
-2.88355

>  <r_i_glide_ligand_efficiency>  (263) 
-0.102984

>  <r_i_glide_ligand_efficiency_sa>  (263) 
-0.31272

>  <r_i_glide_ligand_efficiency_ln>  (263) 
-0.665607

>  <r_i_glide_gscore>  (263) 
-2.88355

>  <r_i_glide_lipo>  (263) 
-0.900929

>  <r_i_glide_hbond>  (263) 
0

>  <r_i_glide_metal>  (263) 
-0

>  <r_i_glide_rewards>  (263) 
-0.821059

>  <r_i_glide_evdw>  (263) 
-24.3462

>  <r_i_glide_ecoul>  (263) 
-1.07078

>  <r_i_glide_erotb>  (263) 
0.269176

>  <r_i_glide_esite>  (263) 
-0.0528107

>  <r_i_glide_emodel>  (263) 
-28.7139

>  <r_i_glide_energy>  (263) 
-25.4169

>  <r_i_glide_einternal>  (263) 
0.967779

>  <r_i_glide_intrahb_reward>  (263) 
-0

>  <i_i_glide_confnum>  (263) 
3

>  <i_i_glide_posenum>  (263) 
4

>  <r_i_glide_eff_state_penalty>  (263) 
0

>  <ligand_id>  (263) 
71

>  <original_smiles>  (263) 
CC1=CC2C(Cn3cccc3O)C34CCC(C)C(CCC(C)C3C)C23C1CC43

>  <smiles>  (263) 
[H]C1=C([H])C([H])([H])N(C([H])([H])C2([H])C3([H])C([H])=C(C([H])([H])[H])C4([H])C([H])([H])C5([H])C43C3([H])C([H])([H])C([H])([H])C([H])(C([H])([H])[H])C([H])(C([H])([H])[H])C25C([H])([H])C([H])([H])C3([H])C([H])([H])[H])C1=O

$$$$
71:0:1
     RDKit          3D

 65 70  0  0  1  0  0  0  0  0999 V2000
   -1.2578   -4.5602    6.9487 C   0  0  0  0  0  0  0  0  0  0  0  0
    0.0743   -4.6602    6.2270 C   0  0  0  0  0  0  0  0  0  0  0  0
    0.6180   -5.7486    5.6289 C   0  0  0  0  0  0  0  0  0  0  0  0
    2.0757   -5.5263    5.1485 C   0  0  1  0  0  0  0  0  0  0  0  0
    2.3115   -5.5056    3.5091 C   0  0  1  0  0  0  0  0  0  0  0  0
    1.2660   -5.9997    2.4840 C   0  0  0  0  0  0  0  0  0  0  0  0
    0.8511   -7.3817    2.7226 N   0  0  0  0  0  0  0  0  0  0  0  0
    1.8080   -8.4907    2.5578 C   0  0  0  0  0  0  0  0  0  0  0  0
    0.8938   -9.6444    2.8447 C   0  0  0  0  0  0  0  0  0  0  0  0
   -0.3574   -9.2485    3.0588 C   0  0  0  0  0  0  0  0  0  0  0  0
   -0.4074   -7.8061    2.9494 C   0  0  0  0  0  0  0  0  0  0  0  0
   -1.3888   -7.0689    3.0379 O   0  0  0  0  0  0  0  0  0  0  0  0
    2.7988   -4.0015    3.2916 C   0  0  1  0  0  0  0  0  0  0  0  0
    4.3815   -4.2553    3.4594 C   0  0  0  0  0  0  0  0  0  0  0  0
    5.0418   -4.9944    4.6496 C   0  0  0  0  0  0  0  0  0  0  0  0
    4.7804   -4.3954    6.0205 C   0  0  1  0  0  0  0  0  0  0  0  0
    6.0503   -3.8315    6.6819 C   0  0  0  0  0  0  0  0  0  0  0  0
    3.5844   -3.4271    6.0336 C   0  0  1  0  0  0  0  0  0  0  0  0
    3.8929   -1.9376    5.5101 C   0  0  0  0  0  0  0  0  0  0  0  0
    4.0046   -1.3617    4.0130 C   0  0  0  0  0  0  0  0  0  0  0  0
    2.9886   -1.5406    2.7805 C   0  0  1  0  0  0  0  0  0  0  0  0
    3.3392   -0.5205    1.6836 C   0  0  0  0  0  0  0  0  0  0  0  0
    2.6753   -2.9736    2.1607 C   0  0  1  0  0  0  0  0  0  0  0  0
    3.4401   -3.3330    0.8695 C   0  0  0  0  0  0  0  0  0  0  0  0
    2.2333   -4.0661    5.6089 C   0  0  2  0  0  0  0  0  0  0  0  0
    0.9781   -3.4551    6.2277 C   0  0  1  0  0  0  0  0  0  0  0  0
    0.9637   -2.4290    5.0453 C   0  0  0  0  0  0  0  0  0  0  0  0
    1.8180   -3.5236    4.3544 C   0  0  1  0  0  0  0  0  0  0  0  0
   -1.0759   -4.2397    7.9759 H   0  0  0  0  0  0  0  0  0  0  0  0
   -1.8032   -5.4954    6.9909 H   0  0  0  0  0  0  0  0  0  0  0  0
   -1.8877   -3.8062    6.4768 H   0  0  0  0  0  0  0  0  0  0  0  0
    0.1558   -6.7275    5.6196 H   0  0  0  0  0  0  0  0  0  0  0  0
    2.7126   -6.2384    5.6533 H   0  0  0  0  0  0  0  0  0  0  0  0
    3.1268   -6.1975    3.3037 H   0  0  0  0  0  0  0  0  0  0  0  0
    0.3848   -5.3651    2.4560 H   0  0  0  0  0  0  0  0  0  0  0  0
    1.6893   -5.9517    1.4818 H   0  0  0  0  0  0  0  0  0  0  0  0
    2.2151   -8.5634    1.5557 H   0  0  0  0  0  0  0  0  0  0  0  0
    1.2354  -10.6733    2.8615 H   0  0  0  0  0  0  0  0  0  0  0  0
   -1.1945   -9.8850    3.2828 H   0  0  0  0  0  0  0  0  0  0  0  0
    2.6055   -8.4595    3.3000 H   0  0  0  0  0  0  0  0  0  0  0  0
    4.6647   -4.8694    2.6063 H   0  0  0  0  0  0  0  0  0  0  0  0
    4.9996   -3.3955    3.2555 H   0  0  0  0  0  0  0  0  0  0  0  0
    4.7711   -6.0532    4.6523 H   0  0  0  0  0  0  0  0  0  0  0  0
    6.1129   -5.0132    4.4702 H   0  0  0  0  0  0  0  0  0  0  0  0
    4.4843   -5.2241    6.6585 H   0  0  0  0  0  0  0  0  0  0  0  0
    6.5375   -3.0844    6.0681 H   0  0  0  0  0  0  0  0  0  0  0  0
    6.7699   -4.6340    6.8609 H   0  0  0  0  0  0  0  0  0  0  0  0
    5.8140   -3.3869    7.6514 H   0  0  0  0  0  0  0  0  0  0  0  0
    3.4654   -3.2511    7.1031 H   0  0  0  0  0  0  0  0  0  0  0  0
    3.2476   -1.2623    6.0703 H   0  0  0  0  0  0  0  0  0  0  0  0
    4.8461   -1.6521    5.9563 H   0  0  0  0  0  0  0  0  0  0  0  0
    3.9818   -0.2853    4.1862 H   0  0  0  0  0  0  0  0  0  0  0  0
    5.0359   -1.4613    3.6598 H   0  0  0  0  0  0  0  0  0  0  0  0
    2.0328   -1.1654    3.1418 H   0  0  0  0  0  0  0  0  0  0  0  0
    4.3158   -0.7076    1.2432 H   0  0  0  0  0  0  0  0  0  0  0  0
    3.3556    0.4988    2.0822 H   0  0  0  0  0  0  0  0  0  0  0  0
    2.5973   -0.5279    0.8844 H   0  0  0  0  0  0  0  0  0  0  0  0
    1.6230   -2.9517    1.8631 H   0  0  0  0  0  0  0  0  0  0  0  0
    4.5156   -3.1926    0.9526 H   0  0  0  0  0  0  0  0  0  0  0  0
    3.1037   -2.7174    0.0291 H   0  0  0  0  0  0  0  0  0  0  0  0
    3.2630   -4.3674    0.5714 H   0  0  0  0  0  0  0  0  0  0  0  0
    1.1608   -3.0260    7.2121 H   0  0  0  0  0  0  0  0  0  0  0  0
   -0.0436   -2.2775    4.6645 H   0  0  0  0  0  0  0  0  0  0  0  0
    1.4223   -1.4749    5.2645 H   0  0  0  0  0  0  0  0  0  0  0  0
    0.8633   -3.8930    3.9451 H   0  0  0  0  0  0  0  0  0  0  0  0
  1  2  1  0
  1 29  1  0
  1 30  1  0
  1 31  1  0
  2 26  1  0
  2  3  2  0
  3  4  1  0
  3 32  1  0
  4 25  1  0
  4  5  1  0
  4 33  1  1
  5  6  1  0
  5 13  1  0
  5 34  1  1
  6 35  1  0
  6 36  1  0
  6  7  1  0
  7  8  1  0
  7 11  1  0
  8 37  1  0
  8 40  1  0
  8  9  1  0
  9 10  2  0
  9 38  1  0
 10 11  1  0
 10 39  1  0
 11 12  2  0
 13 23  1  0
 13 28  1  0
 13 14  1  1
 14 15  1  0
 14 41  1  0
 14 42  1  0
 15 16  1  0
 15 43  1  0
 15 44  1  0
 16 17  1  0
 16 18  1  0
 16 45  1  1
 17 46  1  0
 17 47  1  0
 17 48  1  0
 18 19  1  0
 18 25  1  0
 18 49  1  1
 19 20  1  0
 19 50  1  0
 19 51  1  0
 20 21  1  0
 20 52  1  0
 20 53  1  0
 21 22  1  0
 21 23  1  0
 21 54  1  1
 22 55  1  0
 22 56  1  0
 22 57  1  0
 23 24  1  0
 23 58  1  6
 24 59  1  0
 24 60  1  0
 24 61  1  0
 25 28  1  0
 25 26  1  1
 26 27  1  0
 26 62  1  1
 27 28  1  0
 27 63  1  0
 27 64  1  0
 28 65  1  6
M  END
>  <i_m_ct_stereo_status>  (264) 
1

>  <s_m_source_file>  (264) 
/var/tmp/pbs.5076255.sched01/tmp7zsp0c9b/86_oh4d05k.sdf

>  <i_m_source_file_index>  (264) 
20

>  <i_lp_mmshare_version>  (264) 
48012

>  <i_f3d_flags>  (264) 
0

>  <s_epik_input>  (264) 
W0NIM11bQ0BASF0xW0NASF0oW0NIM10pW0NIMl1bQ0gyXVtDQEhdKFtDQEhdKFtDSDNdKVtDSDJdW0NIMl0yKVtDQEBdMyhbQ0BASF00W0NAQF0xMjUpW0NAQEhdKFtDSF09QyhbQ0gzXSlbQ0BASF0zW0NIMl00KVtDQEhdNVtDSDJdbjZbY0hdW2NIXVtjSF1jNltPSF0=

>  <s_epik_cmdline>  (264) 
J2VwaWtfcHl0aG9uJywgJy1waHQnLCAnMi4wJywgJy1waCcsICc3LjAnLCAnLXRuJywgJzgnLCAnLW1hJywgJzIwMCcsICctaW1hZScsICc8aW5maWxlLm1hZT4nLCAnLW9tYWUnLCAnPG91dGZpbGUubWFlPic=

>  <r_lp_tautomer_probability>  (264) 
0.961761

>  <r_epik_Ionization_Penalty>  (264) 
3.83959e-05

>  <r_epik_Ionization_Penalty_Charging>  (264) 
0

>  <r_epik_Ionization_Penalty_Neutral>  (264) 
3.83959e-05

>  <r_epik_State_Penalty>  (264) 
0.0186766

>  <r_epik_Charging_Adjusted_Penalty>  (264) 
0.0186766

>  <i_epik_Tot_Q>  (264) 
0

>  <i_epik_Tot_abs_Q>  (264) 
0

>  <s_lp_Force_Field>  (264) 
OPLS3e

>  <r_lp_Energy>  (264) 
182.894

>  <b_lp_Chiralities_Consistent>  (264) 
1

>  <s_lp_Variant>  (264) 
71:0-1

>  <s_i_glide_gridfile>  (264) 
pfpi4k_grid

>  <i_i_glide_lignum>  (264) 
20

>  <i_i_glide_rotatable_bonds>  (264) 
2

>  <r_i_docking_score>  (264) 
-2.27891

>  <r_i_glide_ligand_efficiency>  (264) 
-0.0813895

>  <r_i_glide_ligand_efficiency_sa>  (264) 
-0.247146

>  <r_i_glide_ligand_efficiency_ln>  (264) 
-0.526038

>  <r_i_glide_gscore>  (264) 
-2.27891

>  <r_i_glide_lipo>  (264) 
-0.0801501

>  <r_i_glide_hbond>  (264) 
-0.16

>  <r_i_glide_metal>  (264) 
-0

>  <r_i_glide_rewards>  (264) 
-0.821059

>  <r_i_glide_evdw>  (264) 
-20.6479

>  <r_i_glide_ecoul>  (264) 
-2.42755

>  <r_i_glide_erotb>  (264) 
0.269176

>  <r_i_glide_esite>  (264) 
-0.0903469

>  <r_i_glide_emodel>  (264) 
-25.014

>  <r_i_glide_energy>  (264) 
-23.0754

>  <r_i_glide_einternal>  (264) 
2.33222

>  <r_i_glide_intrahb_reward>  (264) 
-0

>  <i_i_glide_confnum>  (264) 
3

>  <i_i_glide_posenum>  (264) 
8

>  <r_i_glide_eff_state_penalty>  (264) 
0

>  <ligand_id>  (264) 
71

>  <original_smiles>  (264) 
CC1=CC2C(Cn3cccc3O)C34CCC(C)C(CCC(C)C3C)C23C1CC43

>  <smiles>  (264) 
[H]C1=C([H])C([H])([H])N(C([H])([H])C2([H])C3([H])C([H])=C(C([H])([H])[H])C4([H])C([H])([H])C5([H])C43C3([H])C([H])([H])C([H])([H])C([H])(C([H])([H])[H])C([H])(C([H])([H])[H])C25C([H])([H])C([H])([H])C3([H])C([H])([H])[H])C1=O

$$$$
71:0:2
     RDKit          3D

 65 70  0  0  1  0  0  0  0  0999 V2000
    4.9107   -4.7520    1.0883 C   0  0  0  0  0  0  0  0  0  0  0  0
    4.1117   -5.3772    2.2166 C   0  0  0  0  0  0  0  0  0  0  0  0
    3.7905   -4.8170    3.4052 C   0  0  0  0  0  0  0  0  0  0  0  0
    3.0476   -5.7473    4.3780 C   0  0  1  0  0  0  0  0  0  0  0  0
    1.4348   -5.5660    4.6796 C   0  0  1  0  0  0  0  0  0  0  0  0
    0.6563   -4.2838    4.2499 C   0  0  0  0  0  0  0  0  0  0  0  0
    1.0391   -3.0675    4.9832 N   0  0  0  0  0  0  0  0  0  0  0  0
    2.0683   -2.1891    4.4457 C   0  0  0  0  0  0  0  0  0  0  0  0
    2.0230   -1.0821    5.4486 C   0  0  0  0  0  0  0  0  0  0  0  0
    1.1263   -1.3221    6.3982 C   0  0  0  0  0  0  0  0  0  0  0  0
    0.4654   -2.5716    6.1027 C   0  0  0  0  0  0  0  0  0  0  0  0
   -0.4550   -3.0858    6.7453 O   0  0  0  0  0  0  0  0  0  0  0  0
    0.8486   -6.9351    4.1044 C   0  0  1  0  0  0  0  0  0  0  0  0
    0.9058   -7.8133    5.4417 C   0  0  0  0  0  0  0  0  0  0  0  0
    2.1571   -7.9635    6.3289 C   0  0  0  0  0  0  0  0  0  0  0  0
    3.3872   -8.5445    5.6371 C   0  0  1  0  0  0  0  0  0  0  0  0
    3.7918   -9.9210    6.1917 C   0  0  0  0  0  0  0  0  0  0  0  0
    3.2963   -8.4871    4.1034 C   0  0  1  0  0  0  0  0  0  0  0  0
    2.4364   -9.6548    3.4101 C   0  0  0  0  0  0  0  0  0  0  0  0
    0.8433   -9.8023    3.2324 C   0  0  0  0  0  0  0  0  0  0  0  0
   -0.2129   -8.7329    2.6682 C   0  0  1  0  0  0  0  0  0  0  0  0
   -1.5382   -9.4526    2.3493 C   0  0  0  0  0  0  0  0  0  0  0  0
   -0.4647   -7.3306    3.4025 C   0  0  1  0  0  0  0  0  0  0  0  0
   -1.7237   -7.2834    4.3019 C   0  0  0  0  0  0  0  0  0  0  0  0
    3.1535   -7.0424    3.5165 C   0  0  2  0  0  0  0  0  0  0  0  0
    3.7337   -6.8477    2.1180 C   0  0  1  0  0  0  0  0  0  0  0  0
    2.3541   -7.3028    1.5453 C   0  0  0  0  0  0  0  0  0  0  0  0
    1.8496   -6.8441    2.9269 C   0  0  1  0  0  0  0  0  0  0  0  0
    5.8201   -5.3280    0.9233 H   0  0  0  0  0  0  0  0  0  0  0  0
    5.1954   -3.7300    1.3235 H   0  0  0  0  0  0  0  0  0  0  0  0
    4.3302   -4.7531    0.1673 H   0  0  0  0  0  0  0  0  0  0  0  0
    4.1430   -3.8522    3.6623 H   0  0  0  0  0  0  0  0  0  0  0  0
    3.6353   -5.8073    5.2970 H   0  0  0  0  0  0  0  0  0  0  0  0
    1.3020   -5.5184    5.7518 H   0  0  0  0  0  0  0  0  0  0  0  0
    0.6627   -4.0825    3.1768 H   0  0  0  0  0  0  0  0  0  0  0  0
   -0.3918   -4.4711    4.4846 H   0  0  0  0  0  0  0  0  0  0  0  0
    3.0558   -2.6020    4.5151 H   0  0  0  0  0  0  0  0  0  0  0  0
    2.7059   -0.2478    5.4061 H   0  0  0  0  0  0  0  0  0  0  0  0
    0.9752   -0.7084    7.2804 H   0  0  0  0  0  0  0  0  0  0  0  0
    1.8398   -1.8392    3.4365 H   0  0  0  0  0  0  0  0  0  0  0  0
    0.1823   -7.3529    6.1171 H   0  0  0  0  0  0  0  0  0  0  0  0
    0.4619   -8.7884    5.3639 H   0  0  0  0  0  0  0  0  0  0  0  0
    2.4183   -7.0204    6.8136 H   0  0  0  0  0  0  0  0  0  0  0  0
    1.8906   -8.6086    7.1705 H   0  0  0  0  0  0  0  0  0  0  0  0
    4.2143   -7.8945    5.9083 H   0  0  0  0  0  0  0  0  0  0  0  0
    2.9791  -10.6492    6.1211 H   0  0  0  0  0  0  0  0  0  0  0  0
    4.0686   -9.8475    7.2436 H   0  0  0  0  0  0  0  0  0  0  0  0
    4.6532  -10.3173    5.6531 H   0  0  0  0  0  0  0  0  0  0  0  0
    4.3058   -8.7694    3.8247 H   0  0  0  0  0  0  0  0  0  0  0  0
    2.8968   -9.8536    2.4423 H   0  0  0  0  0  0  0  0  0  0  0  0
    2.7182  -10.5725    3.9143 H   0  0  0  0  0  0  0  0  0  0  0  0
    0.7832  -10.6090    2.5004 H   0  0  0  0  0  0  0  0  0  0  0  0
    0.4284  -10.3146    4.0983 H   0  0  0  0  0  0  0  0  0  0  0  0
    0.1437   -8.4727    1.6785 H   0  0  0  0  0  0  0  0  0  0  0  0
   -2.0139   -9.8335    3.2545 H   0  0  0  0  0  0  0  0  0  0  0  0
   -1.3688  -10.2963    1.6833 H   0  0  0  0  0  0  0  0  0  0  0  0
   -2.2401   -8.7895    1.8473 H   0  0  0  0  0  0  0  0  0  0  0  0
   -0.6669   -6.6108    2.6103 H   0  0  0  0  0  0  0  0  0  0  0  0
   -1.7636   -8.1243    4.9955 H   0  0  0  0  0  0  0  0  0  0  0  0
   -2.6286   -7.3326    3.7033 H   0  0  0  0  0  0  0  0  0  0  0  0
   -1.7677   -6.3621    4.8799 H   0  0  0  0  0  0  0  0  0  0  0  0
    4.5691   -7.5009    1.9098 H   0  0  0  0  0  0  0  0  0  0  0  0
    2.0655   -6.6740    0.6965 H   0  0  0  0  0  0  0  0  0  0  0  0
    2.3099   -8.3500    1.2542 H   0  0  0  0  0  0  0  0  0  0  0  0
    1.6246   -5.8655    2.4983 H   0  0  0  0  0  0  0  0  0  0  0  0
  1  2  1  0
  1 29  1  0
  1 30  1  0
  1 31  1  0
  2 26  1  0
  2  3  2  0
  3  4  1  0
  3 32  1  0
  4 25  1  0
  4  5  1  0
  4 33  1  1
  5  6  1  0
  5 13  1  0
  5 34  1  1
  6 35  1  0
  6 36  1  0
  6  7  1  0
  7  8  1  0
  7 11  1  0
  8 37  1  0
  8 40  1  0
  8  9  1  0
  9 10  2  0
  9 38  1  0
 10 11  1  0
 10 39  1  0
 11 12  2  0
 13 23  1  0
 13 28  1  0
 13 14  1  1
 14 15  1  0
 14 41  1  0
 14 42  1  0
 15 16  1  0
 15 43  1  0
 15 44  1  0
 16 17  1  0
 16 18  1  0
 16 45  1  1
 17 46  1  0
 17 47  1  0
 17 48  1  0
 18 19  1  0
 18 25  1  0
 18 49  1  6
 19 20  1  0
 19 50  1  0
 19 51  1  0
 20 21  1  0
 20 52  1  0
 20 53  1  0
 21 22  1  0
 21 23  1  0
 21 54  1  6
 22 55  1  0
 22 56  1  0
 22 57  1  0
 23 24  1  0
 23 58  1  6
 24 59  1  0
 24 60  1  0
 24 61  1  0
 25 28  1  0
 25 26  1  6
 26 27  1  0
 26 62  1  6
 27 28  1  0
 27 63  1  0
 27 64  1  0
 28 65  1  6
M  END
>  <i_m_ct_stereo_status>  (265) 
1

>  <s_m_source_file>  (265) 
/var/tmp/pbs.5076255.sched01/tmp7zsp0c9b/86_oh4d05k.sdf

>  <i_m_source_file_index>  (265) 
20

>  <i_lp_mmshare_version>  (265) 
48012

>  <i_f3d_flags>  (265) 
0

>  <s_epik_input>  (265) 
W0NIM11bQ0BASF0xW0NASF0oW0NIM10pW0NIMl1bQ0gyXVtDQEhdKFtDQEhdKFtDSDNdKVtDSDJdW0NIMl0yKVtDQEBdMyhbQ0BASF00W0NAQF0xMjUpW0NAQEhdKFtDSF09QyhbQ0gzXSlbQ0BASF0zW0NIMl00KVtDQEhdNVtDSDJdbjZbY0hdW2NIXVtjSF1jNltPSF0=

>  <s_epik_cmdline>  (265) 
J2VwaWtfcHl0aG9uJywgJy1waHQnLCAnMi4wJywgJy1waCcsICc3LjAnLCAnLXRuJywgJzgnLCAnLW1hJywgJzIwMCcsICctaW1hZScsICc8aW5maWxlLm1hZT4nLCAnLW9tYWUnLCAnPG91dGZpbGUubWFlPic=

>  <r_lp_tautomer_probability>  (265) 
0.961761

>  <r_epik_Ionization_Penalty>  (265) 
3.83959e-05

>  <r_epik_Ionization_Penalty_Charging>  (265) 
0

>  <r_epik_Ionization_Penalty_Neutral>  (265) 
3.83959e-05

>  <r_epik_State_Penalty>  (265) 
0.0186766

>  <r_epik_Charging_Adjusted_Penalty>  (265) 
0.0186766

>  <i_epik_Tot_Q>  (265) 
0

>  <i_epik_Tot_abs_Q>  (265) 
0

>  <s_lp_Force_Field>  (265) 
OPLS3e

>  <r_lp_Energy>  (265) 
182.894

>  <b_lp_Chiralities_Consistent>  (265) 
1

>  <s_lp_Variant>  (265) 
71:0-1

>  <s_i_glide_gridfile>  (265) 
pfpi4k_grid

>  <i_i_glide_lignum>  (265) 
20

>  <i_i_glide_rotatable_bonds>  (265) 
2

>  <r_i_docking_score>  (265) 
-2.17182

>  <r_i_glide_ligand_efficiency>  (265) 
-0.077565

>  <r_i_glide_ligand_efficiency_sa>  (265) 
-0.235533

>  <r_i_glide_ligand_efficiency_ln>  (265) 
-0.50132

>  <r_i_glide_gscore>  (265) 
-2.17182

>  <r_i_glide_lipo>  (265) 
-0.368598

>  <r_i_glide_hbond>  (265) 
0

>  <r_i_glide_metal>  (265) 
-0

>  <r_i_glide_rewards>  (265) 
-0.830161

>  <r_i_glide_evdw>  (265) 
-19.8645

>  <r_i_glide_ecoul>  (265) 
-1.58666

>  <r_i_glide_erotb>  (265) 
0.269176

>  <r_i_glide_esite>  (265) 
-0.011011

>  <r_i_glide_emodel>  (265) 
-22.7808

>  <r_i_glide_energy>  (265) 
-21.4512

>  <r_i_glide_einternal>  (265) 
0.760577

>  <r_i_glide_intrahb_reward>  (265) 
-0

>  <i_i_glide_confnum>  (265) 
3

>  <i_i_glide_posenum>  (265) 
9

>  <r_i_glide_eff_state_penalty>  (265) 
0

>  <ligand_id>  (265) 
71

>  <original_smiles>  (265) 
CC1=CC2C(Cn3cccc3O)C34CCC(C)C(CCC(C)C3C)C23C1CC43

>  <smiles>  (265) 
[H]C1=C([H])C([H])([H])N(C([H])([H])C2([H])C3([H])C([H])=C(C([H])([H])[H])C4([H])C([H])([H])C5([H])C43C3([H])C([H])([H])C([H])([H])C([H])(C([H])([H])[H])C([H])(C([H])([H])[H])C25C([H])([H])C([H])([H])C3([H])C([H])([H])[H])C1=O

$$$$
71:1:0
     RDKit          3D

 65 70  0  0  1  0  0  0  0  0999 V2000
    3.0392   -0.4521    3.2945 C   0  0  0  0  0  0  0  0  0  0  0  0
    3.2126   -1.8561    2.7638 C   0  0  0  0  0  0  0  0  0  0  0  0
    3.0610   -2.2946    1.4926 C   0  0  0  0  0  0  0  0  0  0  0  0
    3.2118   -3.8030    1.3067 C   0  0  1  0  0  0  0  0  0  0  0  0
    4.5468   -4.3871    0.5582 C   0  0  1  0  0  0  0  0  0  0  0  0
    5.5205   -3.4244   -0.2019 C   0  0  0  0  0  0  0  0  0  0  0  0
    4.9124   -2.8089   -1.3826 N   0  0  0  0  0  0  0  0  0  0  0  0
    4.7258   -3.4602   -2.5855 C   0  0  0  0  0  0  0  0  0  0  0  0
    4.2056   -2.6353   -3.4982 C   0  0  0  0  0  0  0  0  0  0  0  0
    4.0100   -1.2732   -2.8998 C   0  0  0  0  0  0  0  0  0  0  0  0
    4.5536   -1.5287   -1.5070 C   0  0  0  0  0  0  0  0  0  0  0  0
    4.6727   -0.6491   -0.6402 O   0  0  0  0  0  0  0  0  0  0  0  0
    5.2203   -5.2382    1.7223 C   0  0  1  0  0  0  0  0  0  0  0  0
    4.5221   -6.6494    1.4349 C   0  0  0  0  0  0  0  0  0  0  0  0
    2.9980   -6.8598    1.2844 C   0  0  0  0  0  0  0  0  0  0  0  0
    2.1489   -6.4398    2.4810 C   0  0  1  0  0  0  0  0  0  0  0  0
    1.4449   -7.6251    3.1646 C   0  0  0  0  0  0  0  0  0  0  0  0
    2.8928   -5.5126    3.4496 C   0  0  1  0  0  0  0  0  0  0  0  0
    3.8867   -6.2343    4.4851 C   0  0  0  0  0  0  0  0  0  0  0  0
    5.3819   -6.7904    4.2755 C   0  0  0  0  0  0  0  0  0  0  0  0
    6.6568   -6.0520    3.6343 C   0  0  1  0  0  0  0  0  0  0  0  0
    7.9294   -6.8514    3.9810 C   0  0  0  0  0  0  0  0  0  0  0  0
    6.6732   -5.5655    2.1090 C   0  0  1  0  0  0  0  0  0  0  0  0
    7.4109   -6.4981    1.1144 C   0  0  0  0  0  0  0  0  0  0  0  0
    3.3752   -4.1766    2.8122 C   0  0  2  0  0  0  0  0  0  0  0  0
    3.4707   -2.9862    3.7575 C   0  0  1  0  0  0  0  0  0  0  0  0
    4.9251   -3.4481    4.1035 C   0  0  0  0  0  0  0  0  0  0  0  0
    4.8148   -4.1426    2.7339 C   0  0  1  0  0  0  0  0  0  0  0  0
    2.2631   -0.4546    4.0568 H   0  0  0  0  0  0  0  0  0  0  0  0
    2.7495    0.2669    2.5230 H   0  0  0  0  0  0  0  0  0  0  0  0
    3.9586   -0.1124    3.7672 H   0  0  0  0  0  0  0  0  0  0  0  0
    2.7705   -1.6474    0.6809 H   0  0  0  0  0  0  0  0  0  0  0  0
    2.2755   -4.1854    0.8686 H   0  0  0  0  0  0  0  0  0  0  0  0
    4.2227   -5.0287   -0.2511 H   0  0  0  0  0  0  0  0  0  0  0  0
    5.9618   -2.6453    0.4253 H   0  0  0  0  0  0  0  0  0  0  0  0
    6.3717   -4.0073   -0.5566 H   0  0  0  0  0  0  0  0  0  0  0  0
    4.9934   -4.5091   -2.6851 H   0  0  0  0  0  0  0  0  0  0  0  0
    3.9472   -2.8865   -4.5203 H   0  0  0  0  0  0  0  0  0  0  0  0
    2.9556   -0.9830   -2.8774 H   0  0  0  0  0  0  0  0  0  0  0  0
    4.5967   -0.5076   -3.4131 H   0  0  0  0  0  0  0  0  0  0  0  0
    4.9046   -6.9739    0.4686 H   0  0  0  0  0  0  0  0  0  0  0  0
    4.8816   -7.4646    2.0366 H   0  0  0  0  0  0  0  0  0  0  0  0
    2.6263   -6.3702    0.3835 H   0  0  0  0  0  0  0  0  0  0  0  0
    2.8298   -7.9224    1.0953 H   0  0  0  0  0  0  0  0  0  0  0  0
    1.3344   -5.8442    2.0722 H   0  0  0  0  0  0  0  0  0  0  0  0
    2.1539   -8.3858    3.4961 H   0  0  0  0  0  0  0  0  0  0  0  0
    0.7470   -8.1073    2.4794 H   0  0  0  0  0  0  0  0  0  0  0  0
    0.8756   -7.2889    4.0325 H   0  0  0  0  0  0  0  0  0  0  0  0
    2.0873   -5.1986    4.1083 H   0  0  0  0  0  0  0  0  0  0  0  0
    3.8814   -5.6407    5.3957 H   0  0  0  0  0  0  0  0  0  0  0  0
    3.3493   -7.1011    4.8557 H   0  0  0  0  0  0  0  0  0  0  0  0
    5.6958   -6.9572    5.3074 H   0  0  0  0  0  0  0  0  0  0  0  0
    5.3390   -7.8247    3.9343 H   0  0  0  0  0  0  0  0  0  0  0  0
    6.7856   -5.1503    4.2258 H   0  0  0  0  0  0  0  0  0  0  0  0
    7.9323   -7.8346    3.5082 H   0  0  0  0  0  0  0  0  0  0  0  0
    8.0124   -7.0111    5.0553 H   0  0  0  0  0  0  0  0  0  0  0  0
    8.8307   -6.3234    3.6676 H   0  0  0  0  0  0  0  0  0  0  0  0
    7.2429   -4.6377    2.0777 H   0  0  0  0  0  0  0  0  0  0  0  0
    7.0855   -7.5362    1.1789 H   0  0  0  0  0  0  0  0  0  0  0  0
    8.4847   -6.4963    1.2934 H   0  0  0  0  0  0  0  0  0  0  0  0
    7.2674   -6.1669    0.0861 H   0  0  0  0  0  0  0  0  0  0  0  0
    2.7554   -3.0215    4.5705 H   0  0  0  0  0  0  0  0  0  0  0  0
    5.6062   -2.5954    4.1636 H   0  0  0  0  0  0  0  0  0  0  0  0
    5.0140   -4.0370    5.0063 H   0  0  0  0  0  0  0  0  0  0  0  0
    5.2840   -3.2601    2.3064 H   0  0  0  0  0  0  0  0  0  0  0  0
  1  2  1  0
  1 29  1  0
  1 30  1  0
  1 31  1  0
  2 26  1  0
  2  3  2  0
  3  4  1  0
  3 32  1  0
  4 25  1  0
  4  5  1  0
  4 33  1  6
  5  6  1  0
  5 13  1  0
  5 34  1  6
  6 35  1  0
  6 36  1  0
  6  7  1  0
  7  8  1  0
  7 11  1  0
  8 37  1  0
  8  9  2  0
  9 10  1  0
  9 38  1  0
 10 11  1  0
 10 39  1  0
 10 40  1  0
 11 12  2  0
 13 23  1  0
 13 28  1  0
 13 14  1  1
 14 15  1  0
 14 41  1  0
 14 42  1  0
 15 16  1  0
 15 43  1  0
 15 44  1  0
 16 17  1  0
 16 18  1  0
 16 45  1  6
 17 46  1  0
 17 47  1  0
 17 48  1  0
 18 19  1  0
 18 25  1  0
 18 49  1  1
 19 20  1  0
 19 50  1  0
 19 51  1  0
 20 21  1  0
 20 52  1  0
 20 53  1  0
 21 22  1  0
 21 23  1  0
 21 54  1  1
 22 55  1  0
 22 56  1  0
 22 57  1  0
 23 24  1  0
 23 58  1  1
 24 59  1  0
 24 60  1  0
 24 61  1  0
 25 28  1  0
 25 26  1  1
 26 27  1  0
 26 62  1  1
 27 28  1  0
 27 63  1  0
 27 64  1  0
 28 65  1  6
M  END
>  <i_m_ct_stereo_status>  (266) 
1

>  <s_m_source_file>  (266) 
/var/tmp/pbs.5076255.sched01/tmp7zsp0c9b/86_oh4d05k.sdf

>  <i_m_source_file_index>  (266) 
21

>  <i_lp_mmshare_version>  (266) 
48012

>  <i_f3d_flags>  (266) 
0

>  <s_epik_input>  (266) 
W0NIM11bQ0BASF0xW0NASF0oW0NIM10pW0NIMl1bQ0gyXVtDQEhdKFtDQEhdKFtDSDNdKVtDSDJdW0NIMl0yKVtDQEBdMyhbQ0BASF00W0NAQF0xMjUpW0NAQEhdKFtDSF09QyhbQ0gzXSlbQ0BASF0zW0NIMl00KVtDQEhdNVtDSDJdbjZbY0hdW2NIXVtjSF1jNltPSF0=

>  <s_epik_cmdline>  (266) 
J2VwaWtfcHl0aG9uJywgJy1waHQnLCAnMi4wJywgJy1waCcsICc3LjAnLCAnLXRuJywgJzgnLCAnLW1hJywgJzIwMCcsICctaW1hZScsICc8aW5maWxlLm1hZT4nLCAnLW9tYWUnLCAnPG91dGZpbGUubWFlPic=

>  <r_lp_tautomer_probability>  (266) 
0.0382385

>  <r_epik_Ionization_Penalty>  (266) 
1.22241e-08

>  <r_epik_Ionization_Penalty_Charging>  (266) 
0

>  <r_epik_Ionization_Penalty_Neutral>  (266) 
1.22241e-08

>  <r_epik_State_Penalty>  (266) 
2.05757

>  <r_epik_Charging_Adjusted_Penalty>  (266) 
2.05757

>  <i_epik_Tot_Q>  (266) 
0

>  <i_epik_Tot_abs_Q>  (266) 
0

>  <s_lp_Force_Field>  (266) 
OPLS3e

>  <r_lp_Energy>  (266) 
191.586

>  <b_lp_Chiralities_Consistent>  (266) 
1

>  <s_lp_Variant>  (266) 
71:0-2

>  <s_i_glide_gridfile>  (266) 
pfpi4k_grid

>  <i_i_glide_lignum>  (266) 
21

>  <i_i_glide_rotatable_bonds>  (266) 
2

>  <r_i_docking_score>  (266) 
-2.26569

>  <r_i_glide_ligand_efficiency>  (266) 
-0.0809176

>  <r_i_glide_ligand_efficiency_sa>  (266) 
-0.245713

>  <r_i_glide_ligand_efficiency_ln>  (266) 
-0.522988

>  <r_i_glide_gscore>  (266) 
-2.26569

>  <r_i_glide_lipo>  (266) 
-0.581283

>  <r_i_glide_hbond>  (266) 
0

>  <r_i_glide_metal>  (266) 
-0

>  <r_i_glide_rewards>  (266) 
-0.821059

>  <r_i_glide_evdw>  (266) 
-24.7609

>  <r_i_glide_ecoul>  (266) 
1.01182

>  <r_i_glide_erotb>  (266) 
0.269176

>  <r_i_glide_esite>  (266) 
-0.0462513

>  <r_i_glide_emodel>  (266) 
-26.1821

>  <r_i_glide_energy>  (266) 
-23.7491

>  <r_i_glide_einternal>  (266) 
1.10336

>  <r_i_glide_intrahb_reward>  (266) 
-0

>  <i_i_glide_confnum>  (266) 
3

>  <i_i_glide_posenum>  (266) 
26

>  <r_i_glide_eff_state_penalty>  (266) 
0

>  <ligand_id>  (266) 
71

>  <original_smiles>  (266) 
CC1=CC2C(Cn3cccc3O)C34CCC(C)C(CCC(C)C3C)C23C1CC43

>  <smiles>  (266) 
[H]C1=C([H])C([H])([H])C(=O)N1C([H])([H])C1([H])C2([H])C([H])=C(C([H])([H])[H])C3([H])C([H])([H])C4([H])C32C2([H])C([H])([H])C([H])([H])C([H])(C([H])([H])[H])C([H])(C([H])([H])[H])C14C([H])([H])C([H])([H])C2([H])C([H])([H])[H]

$$$$
72:0:0
     RDKit          3D

 52 58  0  0  1  0  0  0  0  0999 V2000
    5.1604   -6.9772    2.3336 C   0  0  0  0  0  0  0  0  0  0  0  0
    4.3476   -5.9129    2.1448 C   0  0  0  0  0  0  0  0  0  0  0  0
    3.6235   -5.1896    3.2735 C   0  0  1  0  0  0  0  0  0  0  0  0
    4.3270   -4.9431    4.6178 C   0  0  1  0  0  0  0  0  0  0  0  0
    5.7352   -5.0908    4.6896 O   0  0  0  0  0  0  0  0  0  0  0  0
    3.7749   -3.5023    4.6010 C   0  0  1  0  0  0  0  0  0  0  0  0
    2.5016   -3.2387    5.4064 C   0  0  0  0  0  0  0  0  0  0  0  0
    4.6702   -2.4982    5.0129 O   0  0  0  0  0  0  0  0  0  0  0  0
    3.5955   -3.6724    3.0752 C   0  0  1  0  0  0  0  0  0  0  0  0
    4.6131   -3.1075    2.0797 C   0  0  2  0  0  0  0  0  0  0  0  0
    4.4256   -1.6337    2.0712 O   0  0  0  0  0  0  0  0  0  0  0  0
    4.4586   -0.8700    0.8516 C   0  0  1  0  0  0  0  0  0  0  0  0
    5.4157    0.1400    0.8814 O   0  0  0  0  0  0  0  0  0  0  0  0
    4.7555   -1.8883   -0.2311 C   0  0  2  0  0  0  0  0  0  0  0  0
    6.0239   -2.3782    0.2050 O   0  0  0  0  0  0  0  0  0  0  0  0
    5.8781   -3.6701   -0.1725 C   0  0  2  0  0  0  0  0  0  0  0  0
    5.9147   -3.1836   -1.6711 C   0  0  0  0  0  0  0  0  0  0  0  0
    5.2424   -1.7517   -1.6667 C   0  0  1  0  0  0  0  0  0  0  0  0
    4.1217   -1.5061   -2.6761 C   0  0  1  0  0  0  0  0  0  0  0  0
    3.7136   -2.4652   -3.7719 C   0  0  0  0  0  0  0  0  0  0  0  0
    2.8855   -2.3548   -2.5160 C   0  0  1  0  0  0  0  0  0  0  0  0
    2.9334   -3.4102   -1.4263 C   0  0  0  0  0  0  0  0  0  0  0  0
    3.6045   -2.9196   -0.1130 C   0  0  1  0  0  0  0  0  0  0  0  0
    4.5252   -3.8388    0.6461 C   0  0  2  0  0  0  0  0  0  0  0  0
    4.0351   -5.3143    0.7767 C   0  0  1  0  0  0  0  0  0  0  0  0
    4.5127   -6.1204   -0.2756 O   0  0  0  0  0  0  0  0  0  0  0  0
    5.6456   -7.4615    1.5018 H   0  0  0  0  0  0  0  0  0  0  0  0
    5.3389   -7.3782    3.3155 H   0  0  0  0  0  0  0  0  0  0  0  0
    2.6164   -5.5879    3.4258 H   0  0  0  0  0  0  0  0  0  0  0  0
    3.8640   -5.5102    5.4219 H   0  0  0  0  0  0  0  0  0  0  0  0
    5.8968   -5.9967    4.9014 H   0  0  0  0  0  0  0  0  0  0  0  0
    1.7367   -3.9807    5.1901 H   0  0  0  0  0  0  0  0  0  0  0  0
    2.0778   -2.2589    5.1839 H   0  0  0  0  0  0  0  0  0  0  0  0
    2.7005   -3.2811    6.4762 H   0  0  0  0  0  0  0  0  0  0  0  0
    4.3296   -1.6820    4.6713 H   0  0  0  0  0  0  0  0  0  0  0  0
    2.5860   -3.3849    2.7908 H   0  0  0  0  0  0  0  0  0  0  0  0
    5.6152   -3.3150    2.4639 H   0  0  0  0  0  0  0  0  0  0  0  0
    3.4801   -0.3892    0.7239 H   0  0  0  0  0  0  0  0  0  0  0  0
    5.2669    0.7145    0.1329 H   0  0  0  0  0  0  0  0  0  0  0  0
    6.7244   -4.2774    0.1556 H   0  0  0  0  0  0  0  0  0  0  0  0
    6.9510   -3.0796   -1.9998 H   0  0  0  0  0  0  0  0  0  0  0  0
    5.4811   -3.9347   -2.3300 H   0  0  0  0  0  0  0  0  0  0  0  0
    5.9890   -0.9675   -1.7687 H   0  0  0  0  0  0  0  0  0  0  0  0
    3.9363   -0.4552   -2.8871 H   0  0  0  0  0  0  0  0  0  0  0  0
    3.2832   -2.0276   -4.6721 H   0  0  0  0  0  0  0  0  0  0  0  0
    4.2578   -3.3878   -3.9369 H   0  0  0  0  0  0  0  0  0  0  0  0
    1.9273   -1.8595   -2.6425 H   0  0  0  0  0  0  0  0  0  0  0  0
    1.9145   -3.7387   -1.2404 H   0  0  0  0  0  0  0  0  0  0  0  0
    3.4581   -4.2571   -1.8288 H   0  0  0  0  0  0  0  0  0  0  0  0
    2.7855   -2.5631    0.5177 H   0  0  0  0  0  0  0  0  0  0  0  0
    2.9453   -5.3198    0.7132 H   0  0  0  0  0  0  0  0  0  0  0  0
    3.9846   -5.9438   -1.0507 H   0  0  0  0  0  0  0  0  0  0  0  0
  1  2  2  0
  1 27  1  0
  1 28  1  0
  2 25  1  0
  2  3  1  0
  3  9  1  0
  3  4  1  0
  3 29  1  1
  4  5  1  0
  4  6  1  0
  4 30  1  1
  5 31  1  0
  6  7  1  0
  6  8  1  6
  6  9  1  0
  7 32  1  0
  7 33  1  0
  7 34  1  0
  8 35  1  0
  9 10  1  0
  9 36  1  6
 10 24  1  0
 10 11  1  0
 10 37  1  1
 11 12  1  0
 12 13  1  0
 12 14  1  0
 12 38  1  6
 13 39  1  0
 14 18  1  0
 14 23  1  0
 14 15  1  1
 15 16  1  0
 16 24  1  0
 16 17  1  0
 16 40  1  6
 17 18  1  0
 17 41  1  0
 17 42  1  0
 18 19  1  0
 18 43  1  1
 19 21  1  0
 19 20  1  0
 19 44  1  6
 20 21  1  0
 20 45  1  0
 20 46  1  0
 21 22  1  0
 21 47  1  6
 22 23  1  0
 22 48  1  0
 22 49  1  0
 23 24  1  0
 23 50  1  1
 24 25  1  1
 25 26  1  0
 25 51  1  6
 26 52  1  0
M  END
>  <i_m_ct_stereo_status>  (267) 
1

>  <s_m_source_file>  (267) 
/var/tmp/pbs.5076255.sched01/tmp7zsp0c9b/86_oh4d05k.sdf

>  <i_m_source_file_index>  (267) 
22

>  <i_lp_mmshare_version>  (267) 
48012

>  <i_f3d_flags>  (267) 
0

>  <s_epik_input>  (267) 
W0NIM11bQ0BAXTEoW09IXSlbQ0BIXShbT0hdKVtDQEhdKEMoPVtDSDJdKVtDQEBIXTJbT0hdKVtDQEBIXTFbQ0BIXShPW0NASF0zW09IXSlbQ0BdMihbQ0BIXShPNClbQ0gyXTUpW0NAQEhdNltDSDJdW0NASF0oW0NIMl03KVtDQEhdN1tDQEhdNVtDQF0zNDY=

>  <s_epik_cmdline>  (267) 
J2VwaWtfcHl0aG9uJywgJy1waHQnLCAnMi4wJywgJy1waCcsICc3LjAnLCAnLXRuJywgJzgnLCAnLW1hJywgJzIwMCcsICctaW1hZScsICc8aW5maWxlLm1hZT4nLCAnLW9tYWUnLCAnPG91dGZpbGUubWFlPic=

>  <r_lp_tautomer_probability>  (267) 
1

>  <r_epik_Ionization_Penalty>  (267) 
4.27374e-07

>  <r_epik_Ionization_Penalty_Charging>  (267) 
0

>  <r_epik_Ionization_Penalty_Neutral>  (267) 
4.27374e-07

>  <r_epik_State_Penalty>  (267) 
-0

>  <r_epik_Charging_Adjusted_Penalty>  (267) 
0

>  <i_epik_Tot_Q>  (267) 
0

>  <i_epik_Tot_abs_Q>  (267) 
0

>  <s_epik_Chemistry_Notes>  (267) 
This compound contains an acetal/aminal-like group ( X-CH(R)-Y where X, Y are N, S, or O) that may be acid/base labile, releasing an aldehyde.

>  <s_lp_Force_Field>  (267) 
OPLS3e

>  <r_lp_Energy>  (267) 
117.029

>  <b_lp_Chiralities_Consistent>  (267) 
1

>  <s_lp_Variant>  (267) 
72:0-1

>  <s_i_glide_gridfile>  (267) 
pfpi4k_grid

>  <i_i_glide_lignum>  (267) 
22

>  <i_i_glide_rotatable_bonds>  (267) 
4

>  <r_i_docking_score>  (267) 
-4.00916

>  <r_i_glide_ligand_efficiency>  (267) 
-0.154198

>  <r_i_glide_ligand_efficiency_sa>  (267) 
-0.456812

>  <r_i_glide_ligand_efficiency_ln>  (267) 
-0.941538

>  <r_i_glide_gscore>  (267) 
-4.00916

>  <r_i_glide_lipo>  (267) 
-0.531705

>  <r_i_glide_hbond>  (267) 
-0.293198

>  <r_i_glide_metal>  (267) 
-0

>  <r_i_glide_rewards>  (267) 
-1.02889

>  <r_i_glide_evdw>  (267) 
-17.3818

>  <r_i_glide_ecoul>  (267) 
-8.5752

>  <r_i_glide_erotb>  (267) 
0

>  <r_i_glide_esite>  (267) 
0

>  <r_i_glide_emodel>  (267) 
-29.5632

>  <r_i_glide_energy>  (267) 
-25.957

>  <r_i_glide_einternal>  (267) 
4.59033

>  <r_i_glide_intrahb_reward>  (267) 
-0

>  <i_i_glide_confnum>  (267) 
2

>  <i_i_glide_posenum>  (267) 
5

>  <r_i_glide_eff_state_penalty>  (267) 
0

>  <ligand_id>  (267) 
72

>  <original_smiles>  (267) 
C=C1C2C(O)C(C)(O)C2C2OC(O)C34OC5CC3C3CC3CC4C52C1O

>  <smiles>  (267) 
[H]OC1([H])OC2([H])C3([H])C([H])(C(=C([H])[H])C([H])(O[H])C24C2([H])OC15C([H])(C2([H])[H])C1([H])C([H])([H])C1([H])C([H])([H])C54[H])C([H])(O[H])C3(O[H])C([H])([H])[H]

$$$$
72:0:1
     RDKit          3D

 52 58  0  0  1  0  0  0  0  0999 V2000
    5.2523   -6.9711    2.3042 C   0  0  0  0  0  0  0  0  0  0  0  0
    4.4398   -5.9123    2.1384 C   0  0  0  0  0  0  0  0  0  0  0  0
    3.7595   -5.1865    3.2953 C   0  0  1  0  0  0  0  0  0  0  0  0
    4.5035   -4.9362    4.6188 C   0  0  1  0  0  0  0  0  0  0  0  0
    5.9108   -5.0937    4.6710 O   0  0  0  0  0  0  0  0  0  0  0  0
    3.9571   -3.4959    4.6080 C   0  0  1  0  0  0  0  0  0  0  0  0
    2.7219   -3.2216    5.4594 C   0  0  0  0  0  0  0  0  0  0  0  0
    4.8662   -2.4917    4.9930 O   0  0  0  0  0  0  0  0  0  0  0  0
    3.7234   -3.6716    3.0912 C   0  0  1  0  0  0  0  0  0  0  0  0
    4.7054   -3.1094    2.0621 C   0  0  2  0  0  0  0  0  0  0  0  0
    4.5222   -1.6383    2.0632 O   0  0  0  0  0  0  0  0  0  0  0  0
    4.5163   -0.8725    0.8447 C   0  0  1  0  0  0  0  0  0  0  0  0
    5.4823    0.1347    0.8583 O   0  0  0  0  0  0  0  0  0  0  0  0
    4.7787   -1.8884   -0.2531 C   0  0  2  0  0  0  0  0  0  0  0  0
    6.0574   -2.3838    0.1421 O   0  0  0  0  0  0  0  0  0  0  0  0
    5.8945   -3.6765   -0.2283 C   0  0  2  0  0  0  0  0  0  0  0  0
    5.8819   -3.1939   -1.7297 C   0  0  0  0  0  0  0  0  0  0  0  0
    5.2160   -1.7577   -1.7035 C   0  0  1  0  0  0  0  0  0  0  0  0
    4.0619   -1.5115   -2.6737 C   0  0  1  0  0  0  0  0  0  0  0  0
    3.6151   -2.4700   -3.7540 C   0  0  0  0  0  0  0  0  0  0  0  0
    2.8293   -2.3589   -2.4707 C   0  0  1  0  0  0  0  0  0  0  0  0
    2.9082   -3.4046   -1.3788 C   0  0  0  0  0  0  0  0  0  0  0  0
    3.6294   -2.9137   -0.0949 C   0  0  1  0  0  0  0  0  0  0  0  0
    4.5691   -3.8376    0.6330 C   0  0  2  0  0  0  0  0  0  0  0  0
    4.0796   -5.3126    0.7763 C   0  0  1  0  0  0  0  0  0  0  0  0
    4.5255   -6.1119   -0.3085 O   0  0  0  0  0  0  0  0  0  0  0  0
    5.7063   -7.4655    1.4605 H   0  0  0  0  0  0  0  0  0  0  0  0
    5.4616   -7.3620    3.2869 H   0  0  0  0  0  0  0  0  0  0  0  0
    2.7561   -5.5694    3.4800 H   0  0  0  0  0  0  0  0  0  0  0  0
    4.0526   -5.5022    5.4321 H   0  0  0  0  0  0  0  0  0  0  0  0
    6.2811   -4.7025    3.8949 H   0  0  0  0  0  0  0  0  0  0  0  0
    1.9434   -3.9575    5.2727 H   0  0  0  0  0  0  0  0  0  0  0  0
    2.3074   -2.2376    5.2443 H   0  0  0  0  0  0  0  0  0  0  0  0
    2.9622   -3.2586    6.5207 H   0  0  0  0  0  0  0  0  0  0  0  0
    5.6098   -2.5707    4.4119 H   0  0  0  0  0  0  0  0  0  0  0  0
    2.7048   -3.3714    2.8504 H   0  0  0  0  0  0  0  0  0  0  0  0
    5.7238   -3.3190    2.3990 H   0  0  0  0  0  0  0  0  0  0  0  0
    3.5367   -0.3869    0.7421 H   0  0  0  0  0  0  0  0  0  0  0  0
    5.3036    0.7189    0.1214 H   0  0  0  0  0  0  0  0  0  0  0  0
    6.7480   -4.2928    0.0664 H   0  0  0  0  0  0  0  0  0  0  0  0
    6.9061   -3.0927   -2.0957 H   0  0  0  0  0  0  0  0  0  0  0  0
    5.4184   -3.9425   -2.3709 H   0  0  0  0  0  0  0  0  0  0  0  0
    5.9591   -0.9751   -1.8326 H   0  0  0  0  0  0  0  0  0  0  0  0
    3.8698   -0.4599   -2.8805 H   0  0  0  0  0  0  0  0  0  0  0  0
    3.1510   -2.0331   -4.6347 H   0  0  0  0  0  0  0  0  0  0  0  0
    4.1458   -3.3993   -3.9386 H   0  0  0  0  0  0  0  0  0  0  0  0
    1.8691   -1.8569   -2.5710 H   0  0  0  0  0  0  0  0  0  0  0  0
    1.8951   -3.7293   -1.1613 H   0  0  0  0  0  0  0  0  0  0  0  0
    3.4181   -4.2500   -1.7965 H   0  0  0  0  0  0  0  0  0  0  0  0
    2.8332   -2.5555    0.5632 H   0  0  0  0  0  0  0  0  0  0  0  0
    2.9868   -5.3145    0.7531 H   0  0  0  0  0  0  0  0  0  0  0  0
    3.9883   -5.9108   -1.0634 H   0  0  0  0  0  0  0  0  0  0  0  0
  1  2  2  0
  1 27  1  0
  1 28  1  0
  2 25  1  0
  2  3  1  0
  3  9  1  0
  3  4  1  0
  3 29  1  1
  4  5  1  0
  4  6  1  0
  4 30  1  1
  5 31  1  0
  6  7  1  0
  6  8  1  6
  6  9  1  0
  7 32  1  0
  7 33  1  0
  7 34  1  0
  8 35  1  0
  9 10  1  0
  9 36  1  6
 10 24  1  0
 10 11  1  0
 10 37  1  1
 11 12  1  0
 12 13  1  0
 12 14  1  0
 12 38  1  6
 13 39  1  0
 14 18  1  0
 14 23  1  0
 14 15  1  1
 15 16  1  0
 16 24  1  0
 16 17  1  0
 16 40  1  6
 17 18  1  0
 17 41  1  0
 17 42  1  0
 18 19  1  0
 18 43  1  1
 19 21  1  0
 19 20  1  0
 19 44  1  6
 20 21  1  0
 20 45  1  0
 20 46  1  0
 21 22  1  0
 21 47  1  6
 22 23  1  0
 22 48  1  0
 22 49  1  0
 23 24  1  0
 23 50  1  1
 24 25  1  1
 25 26  1  0
 25 51  1  1
 26 52  1  0
M  END
>  <i_m_ct_stereo_status>  (268) 
1

>  <s_m_source_file>  (268) 
/var/tmp/pbs.5076255.sched01/tmp7zsp0c9b/86_oh4d05k.sdf

>  <i_m_source_file_index>  (268) 
22

>  <i_lp_mmshare_version>  (268) 
48012

>  <i_f3d_flags>  (268) 
0

>  <s_epik_input>  (268) 
W0NIM11bQ0BAXTEoW09IXSlbQ0BIXShbT0hdKVtDQEhdKEMoPVtDSDJdKVtDQEBIXTJbT0hdKVtDQEBIXTFbQ0BIXShPW0NASF0zW09IXSlbQ0BdMihbQ0BIXShPNClbQ0gyXTUpW0NAQEhdNltDSDJdW0NASF0oW0NIMl03KVtDQEhdN1tDQEhdNVtDQF0zNDY=

>  <s_epik_cmdline>  (268) 
J2VwaWtfcHl0aG9uJywgJy1waHQnLCAnMi4wJywgJy1waCcsICc3LjAnLCAnLXRuJywgJzgnLCAnLW1hJywgJzIwMCcsICctaW1hZScsICc8aW5maWxlLm1hZT4nLCAnLW9tYWUnLCAnPG91dGZpbGUubWFlPic=

>  <r_lp_tautomer_probability>  (268) 
1

>  <r_epik_Ionization_Penalty>  (268) 
4.27374e-07

>  <r_epik_Ionization_Penalty_Charging>  (268) 
0

>  <r_epik_Ionization_Penalty_Neutral>  (268) 
4.27374e-07

>  <r_epik_State_Penalty>  (268) 
-0

>  <r_epik_Charging_Adjusted_Penalty>  (268) 
0

>  <i_epik_Tot_Q>  (268) 
0

>  <i_epik_Tot_abs_Q>  (268) 
0

>  <s_epik_Chemistry_Notes>  (268) 
This compound contains an acetal/aminal-like group ( X-CH(R)-Y where X, Y are N, S, or O) that may be acid/base labile, releasing an aldehyde.

>  <s_lp_Force_Field>  (268) 
OPLS3e

>  <r_lp_Energy>  (268) 
117.029

>  <b_lp_Chiralities_Consistent>  (268) 
1

>  <s_lp_Variant>  (268) 
72:0-1

>  <s_i_glide_gridfile>  (268) 
pfpi4k_grid

>  <i_i_glide_lignum>  (268) 
22

>  <i_i_glide_rotatable_bonds>  (268) 
4

>  <r_i_docking_score>  (268) 
-3.95313

>  <r_i_glide_ligand_efficiency>  (268) 
-0.152043

>  <r_i_glide_ligand_efficiency_sa>  (268) 
-0.450428

>  <r_i_glide_ligand_efficiency_ln>  (268) 
-0.928379

>  <r_i_glide_gscore>  (268) 
-3.95313

>  <r_i_glide_lipo>  (268) 
-0.566171

>  <r_i_glide_hbond>  (268) 
-0.292746

>  <r_i_glide_metal>  (268) 
-0

>  <r_i_glide_rewards>  (268) 
-1.03578

>  <r_i_glide_evdw>  (268) 
-16.7058

>  <r_i_glide_ecoul>  (268) 
-8.15429

>  <r_i_glide_erotb>  (268) 
0

>  <r_i_glide_esite>  (268) 
0

>  <r_i_glide_emodel>  (268) 
-29.4255

>  <r_i_glide_energy>  (268) 
-24.8601

>  <r_i_glide_einternal>  (268) 
2.48545

>  <r_i_glide_intrahb_reward>  (268) 
-0

>  <i_i_glide_confnum>  (268) 
2

>  <i_i_glide_posenum>  (268) 
1

>  <r_i_glide_eff_state_penalty>  (268) 
0

>  <ligand_id>  (268) 
72

>  <original_smiles>  (268) 
C=C1C2C(O)C(C)(O)C2C2OC(O)C34OC5CC3C3CC3CC4C52C1O

>  <smiles>  (268) 
[H]OC1([H])OC2([H])C3([H])C([H])(C(=C([H])[H])C([H])(O[H])C24C2([H])OC15C([H])(C2([H])[H])C1([H])C([H])([H])C1([H])C([H])([H])C54[H])C([H])(O[H])C3(O[H])C([H])([H])[H]

$$$$
72:0:2
     RDKit          3D

 52 58  0  0  1  0  0  0  0  0999 V2000
    5.2481   -6.9919    2.2851 C   0  0  0  0  0  0  0  0  0  0  0  0
    4.4207   -5.9452    2.1030 C   0  0  0  0  0  0  0  0  0  0  0  0
    3.6643   -5.2506    3.2245 C   0  0  1  0  0  0  0  0  0  0  0  0
    4.3401   -5.0123    4.5810 C   0  0  1  0  0  0  0  0  0  0  0  0
    5.7464   -5.1572    4.6889 O   0  0  0  0  0  0  0  0  0  0  0  0
    3.7684   -3.5807    4.5710 C   0  0  1  0  0  0  0  0  0  0  0  0
    2.4788   -3.3473    5.3594 C   0  0  0  0  0  0  0  0  0  0  0  0
    4.6537   -2.5744    4.9977 O   0  0  0  0  0  0  0  0  0  0  0  0
    3.6123   -3.7314    3.0410 C   0  0  1  0  0  0  0  0  0  0  0  0
    4.6311   -3.1281    2.0667 C   0  0  2  0  0  0  0  0  0  0  0  0
    4.4274   -1.6535    2.0665 O   0  0  0  0  0  0  0  0  0  0  0  0
    4.4632   -0.8842    0.8476 C   0  0  1  0  0  0  0  0  0  0  0  0
    5.4159    0.1394    0.8782 O   0  0  0  0  0  0  0  0  0  0  0  0
    4.7857   -1.8897   -0.2329 C   0  0  2  0  0  0  0  0  0  0  0  0
    6.0543   -2.3613    0.2196 O   0  0  0  0  0  0  0  0  0  0  0  0
    5.9402   -3.6523   -0.1714 C   0  0  2  0  0  0  0  0  0  0  0  0
    5.9925   -3.1449   -1.6648 C   0  0  0  0  0  0  0  0  0  0  0  0
    5.2929   -1.7271   -1.6529 C   0  0  1  0  0  0  0  0  0  0  0  0
    4.1852   -1.4853   -2.6751 C   0  0  1  0  0  0  0  0  0  0  0  0
    3.8075   -2.4342   -3.7884 C   0  0  0  0  0  0  0  0  0  0  0  0
    2.9613   -2.3588   -2.5409 C   0  0  1  0  0  0  0  0  0  0  0  0
    3.0127   -3.4270   -1.4651 C   0  0  0  0  0  0  0  0  0  0  0  0
    3.6527   -2.9405   -0.1383 C   0  0  1  0  0  0  0  0  0  0  0  0
    4.5786   -3.8477    0.6274 C   0  0  2  0  0  0  0  0  0  0  0  0
    4.1087   -5.3338    0.7412 C   0  0  1  0  0  0  0  0  0  0  0  0
    4.6151   -6.1340   -0.3058 O   0  0  0  0  0  0  0  0  0  0  0  0
    5.7543   -7.4625    1.4559 H   0  0  0  0  0  0  0  0  0  0  0  0
    5.4204   -7.3994    3.2672 H   0  0  0  0  0  0  0  0  0  0  0  0
    2.6624   -5.6661    3.3520 H   0  0  0  0  0  0  0  0  0  0  0  0
    3.8597   -5.6010    5.3602 H   0  0  0  0  0  0  0  0  0  0  0  0
    6.1368   -4.6395    3.9990 H   0  0  0  0  0  0  0  0  0  0  0  0
    1.7286   -4.0986    5.1244 H   0  0  0  0  0  0  0  0  0  0  0  0
    2.0399   -2.3742    5.1427 H   0  0  0  0  0  0  0  0  0  0  0  0
    2.6610   -3.3997    6.4302 H   0  0  0  0  0  0  0  0  0  0  0  0
    4.2530   -1.7547    4.7436 H   0  0  0  0  0  0  0  0  0  0  0  0
    2.5994   -3.4628    2.7460 H   0  0  0  0  0  0  0  0  0  0  0  0
    5.6335   -3.3256    2.4540 H   0  0  0  0  0  0  0  0  0  0  0  0
    3.4811   -0.4135    0.7121 H   0  0  0  0  0  0  0  0  0  0  0  0
    5.2363    0.7237    0.1396 H   0  0  0  0  0  0  0  0  0  0  0  0
    6.7940   -4.2494    0.1570 H   0  0  0  0  0  0  0  0  0  0  0  0
    7.0312   -3.0155   -1.9783 H   0  0  0  0  0  0  0  0  0  0  0  0
    5.5795   -3.8917   -2.3417 H   0  0  0  0  0  0  0  0  0  0  0  0
    6.0222   -0.9234   -1.7279 H   0  0  0  0  0  0  0  0  0  0  0  0
    3.9817   -0.4349   -2.8738 H   0  0  0  0  0  0  0  0  0  0  0  0
    3.3791   -1.9915   -4.6865 H   0  0  0  0  0  0  0  0  0  0  0  0
    4.3697   -3.3459   -3.9580 H   0  0  0  0  0  0  0  0  0  0  0  0
    2.0013   -1.8561   -2.6645 H   0  0  0  0  0  0  0  0  0  0  0  0
    1.9972   -3.7779   -1.3063 H   0  0  0  0  0  0  0  0  0  0  0  0
    3.5639   -4.2530   -1.8720 H   0  0  0  0  0  0  0  0  0  0  0  0
    2.8188   -2.6041    0.4838 H   0  0  0  0  0  0  0  0  0  0  0  0
    3.0220   -5.3609    0.6479 H   0  0  0  0  0  0  0  0  0  0  0  0
    4.1330   -5.9317   -1.0921 H   0  0  0  0  0  0  0  0  0  0  0  0
  1  2  2  0
  1 27  1  0
  1 28  1  0
  2 25  1  0
  2  3  1  0
  3  9  1  0
  3  4  1  0
  3 29  1  1
  4  5  1  0
  4  6  1  0
  4 30  1  1
  5 31  1  0
  6  7  1  0
  6  8  1  6
  6  9  1  0
  7 32  1  0
  7 33  1  0
  7 34  1  0
  8 35  1  0
  9 10  1  0
  9 36  1  6
 10 24  1  0
 10 11  1  0
 10 37  1  1
 11 12  1  0
 12 13  1  0
 12 14  1  0
 12 38  1  6
 13 39  1  0
 14 18  1  0
 14 23  1  0
 14 15  1  1
 15 16  1  0
 16 24  1  0
 16 17  1  0
 16 40  1  1
 17 18  1  0
 17 41  1  0
 17 42  1  0
 18 19  1  0
 18 43  1  1
 19 21  1  0
 19 20  1  0
 19 44  1  6
 20 21  1  0
 20 45  1  0
 20 46  1  0
 21 22  1  0
 21 47  1  6
 22 23  1  0
 22 48  1  0
 22 49  1  0
 23 24  1  0
 23 50  1  1
 24 25  1  1
 25 26  1  0
 25 51  1  6
 26 52  1  0
M  END
>  <i_m_ct_stereo_status>  (269) 
1

>  <s_m_source_file>  (269) 
/var/tmp/pbs.5076255.sched01/tmp7zsp0c9b/86_oh4d05k.sdf

>  <i_m_source_file_index>  (269) 
22

>  <i_lp_mmshare_version>  (269) 
48012

>  <i_f3d_flags>  (269) 
0

>  <s_epik_input>  (269) 
W0NIM11bQ0BAXTEoW09IXSlbQ0BIXShbT0hdKVtDQEhdKEMoPVtDSDJdKVtDQEBIXTJbT0hdKVtDQEBIXTFbQ0BIXShPW0NASF0zW09IXSlbQ0BdMihbQ0BIXShPNClbQ0gyXTUpW0NAQEhdNltDSDJdW0NASF0oW0NIMl03KVtDQEhdN1tDQEhdNVtDQF0zNDY=

>  <s_epik_cmdline>  (269) 
J2VwaWtfcHl0aG9uJywgJy1waHQnLCAnMi4wJywgJy1waCcsICc3LjAnLCAnLXRuJywgJzgnLCAnLW1hJywgJzIwMCcsICctaW1hZScsICc8aW5maWxlLm1hZT4nLCAnLW9tYWUnLCAnPG91dGZpbGUubWFlPic=

>  <r_lp_tautomer_probability>  (269) 
1

>  <r_epik_Ionization_Penalty>  (269) 
4.27374e-07

>  <r_epik_Ionization_Penalty_Charging>  (269) 
0

>  <r_epik_Ionization_Penalty_Neutral>  (269) 
4.27374e-07

>  <r_epik_State_Penalty>  (269) 
-0

>  <r_epik_Charging_Adjusted_Penalty>  (269) 
0

>  <i_epik_Tot_Q>  (269) 
0

>  <i_epik_Tot_abs_Q>  (269) 
0

>  <s_epik_Chemistry_Notes>  (269) 
This compound contains an acetal/aminal-like group ( X-CH(R)-Y where X, Y are N, S, or O) that may be acid/base labile, releasing an aldehyde.

>  <s_lp_Force_Field>  (269) 
OPLS3e

>  <r_lp_Energy>  (269) 
117.029

>  <b_lp_Chiralities_Consistent>  (269) 
1

>  <s_lp_Variant>  (269) 
72:0-1

>  <s_i_glide_gridfile>  (269) 
pfpi4k_grid

>  <i_i_glide_lignum>  (269) 
22

>  <i_i_glide_rotatable_bonds>  (269) 
4

>  <r_i_docking_score>  (269) 
-3.94861

>  <r_i_glide_ligand_efficiency>  (269) 
-0.15187

>  <r_i_glide_ligand_efficiency_sa>  (269) 
-0.449914

>  <r_i_glide_ligand_efficiency_ln>  (269) 
-0.927319

>  <r_i_glide_gscore>  (269) 
-3.94861

>  <r_i_glide_lipo>  (269) 
-0.530462

>  <r_i_glide_hbond>  (269) 
-0.293203

>  <r_i_glide_metal>  (269) 
-0

>  <r_i_glide_rewards>  (269) 
-1.02636

>  <r_i_glide_evdw>  (269) 
-17.9446

>  <r_i_glide_ecoul>  (269) 
-8.00904

>  <r_i_glide_erotb>  (269) 
0

>  <r_i_glide_esite>  (269) 
0

>  <r_i_glide_emodel>  (269) 
-30.1093

>  <r_i_glide_energy>  (269) 
-25.9537

>  <r_i_glide_einternal>  (269) 
3.34237

>  <r_i_glide_intrahb_reward>  (269) 
-0

>  <i_i_glide_confnum>  (269) 
2

>  <i_i_glide_posenum>  (269) 
25

>  <r_i_glide_eff_state_penalty>  (269) 
0

>  <ligand_id>  (269) 
72

>  <original_smiles>  (269) 
C=C1C2C(O)C(C)(O)C2C2OC(O)C34OC5CC3C3CC3CC4C52C1O

>  <smiles>  (269) 
[H]OC1([H])OC2([H])C3([H])C([H])(C(=C([H])[H])C([H])(O[H])C24C2([H])OC15C([H])(C2([H])[H])C1([H])C([H])([H])C1([H])C([H])([H])C54[H])C([H])(O[H])C3(O[H])C([H])([H])[H]

$$$$
73:0:0
     RDKit          3D

 65 69  0  0  1  0  0  0  0  0999 V2000
    7.3326   -3.1656   -1.5667 C   0  0  0  0  0  0  0  0  0  0  0  0
    5.8152   -3.4553   -1.6730 C   0  0  0  0  0  0  0  0  0  0  0  0
    4.8262   -2.5249   -0.8752 C   0  0  1  0  0  0  0  0  0  0  0  0
    4.9955   -1.0671   -1.3728 C   0  0  0  0  0  0  0  0  0  0  0  0
    3.3459   -2.9853   -1.2488 C   0  0  0  0  0  0  0  0  0  0  0  0
    2.8636   -4.2353   -0.6110 N   0  0  0  0  0  0  0  0  0  0  0  0
    2.8891   -4.1645    0.8587 C   0  0  2  0  0  0  0  0  0  0  0  0
    4.2462   -3.7186    1.1645 C   0  0  1  0  0  0  0  0  0  0  0  0
    5.3802   -4.7885    1.2027 C   0  0  2  0  0  0  0  0  0  0  0  0
    4.9993   -6.2850    1.1448 C   0  0  0  0  0  0  0  0  0  0  0  0
    5.8363   -7.1595    1.1753 O   0  0  0  0  0  0  0  0  0  0  0  0
    3.5186   -6.5797    1.1017 C   0  0  0  0  0  0  0  0  0  0  0  0
    2.7961   -5.4445    1.8492 C   0  0  2  0  0  0  0  0  0  0  0  0
    1.3081   -5.8414    1.9550 C   0  0  0  0  0  0  0  0  0  0  0  0
    3.4652   -5.1791    3.3362 C   0  0  1  0  0  0  0  0  0  0  0  0
    3.7244   -6.3187    4.3947 C   0  0  0  0  0  0  0  0  0  0  0  0
    2.8636   -6.2046    5.6955 C   0  0  0  0  0  0  0  0  0  0  0  0
    3.5617   -7.7986    4.0143 C   0  0  0  0  0  0  0  0  0  0  0  0
    5.1944   -5.8345    4.4397 C   0  0  1  0  0  0  0  0  0  0  0  0
    6.2078   -6.6964    3.9646 O   0  0  0  0  0  0  0  0  0  0  0  0
    4.9236   -4.5098    3.6872 C   0  0  2  0  0  0  0  0  0  0  0  0
    5.0042   -3.2626    4.6434 C   0  0  2  0  0  0  0  0  0  0  0  0
    4.2464   -3.2662    5.9917 C   0  0  0  0  0  0  0  0  0  0  0  0
    4.4747   -2.0690    4.0885 O   0  0  0  0  0  0  0  0  0  0  0  0
    5.9602   -4.2150    2.4426 C   0  0  2  0  0  0  0  0  0  0  0  0
    6.1464   -2.7639    1.7110 C   0  0  0  0  0  0  0  0  0  0  0  0
    4.9140   -2.4864    0.7176 C   0  0  1  0  0  0  0  0  0  0  0  0
    7.8771   -3.8337   -2.2416 H   0  0  0  0  0  0  0  0  0  0  0  0
    7.7607   -3.3289   -0.5908 H   0  0  0  0  0  0  0  0  0  0  0  0
    7.5865   -2.1574   -1.8987 H   0  0  0  0  0  0  0  0  0  0  0  0
    5.5476   -3.3746   -2.7300 H   0  0  0  0  0  0  0  0  0  0  0  0
    5.6083   -4.5031   -1.4467 H   0  0  0  0  0  0  0  0  0  0  0  0
    4.3010   -0.3805   -0.8720 H   0  0  0  0  0  0  0  0  0  0  0  0
    4.8004   -0.9772   -2.4479 H   0  0  0  0  0  0  0  0  0  0  0  0
    5.9846   -0.6874   -1.1719 H   0  0  0  0  0  0  0  0  0  0  0  0
    2.6316   -2.1884   -0.9910 H   0  0  0  0  0  0  0  0  0  0  0  0
    3.2533   -3.0875   -2.3509 H   0  0  0  0  0  0  0  0  0  0  0  0
    1.9160   -4.4321   -0.9471 H   0  0  0  0  0  0  0  0  0  0  0  0
    2.1626   -3.4100    1.1675 H   0  0  0  0  0  0  0  0  0  0  0  0
    3.9062   -3.2445    2.0745 H   0  0  0  0  0  0  0  0  0  0  0  0
    6.1333   -4.6936    0.4396 H   0  0  0  0  0  0  0  0  0  0  0  0
    3.2062   -6.6518    0.0624 H   0  0  0  0  0  0  0  0  0  0  0  0
    3.3024   -7.5579    1.5243 H   0  0  0  0  0  0  0  0  0  0  0  0
    1.1791   -6.7621    2.5207 H   0  0  0  0  0  0  0  0  0  0  0  0
    0.8749   -6.0223    0.9656 H   0  0  0  0  0  0  0  0  0  0  0  0
    0.7345   -5.0676    2.4609 H   0  0  0  0  0  0  0  0  0  0  0  0
    2.7668   -4.4747    3.8282 H   0  0  0  0  0  0  0  0  0  0  0  0
    3.3076   -6.8399    6.4816 H   0  0  0  0  0  0  0  0  0  0  0  0
    1.8576   -6.5877    5.5100 H   0  0  0  0  0  0  0  0  0  0  0  0
    2.7397   -5.2259    6.0836 H   0  0  0  0  0  0  0  0  0  0  0  0
    3.7700   -8.4304    4.8754 H   0  0  0  0  0  0  0  0  0  0  0  0
    4.2541   -8.1249    3.2482 H   0  0  0  0  0  0  0  0  0  0  0  0
    2.5472   -8.0180    3.6933 H   0  0  0  0  0  0  0  0  0  0  0  0
    5.4751   -5.6188    5.4811 H   0  0  0  0  0  0  0  0  0  0  0  0
    6.0099   -6.9581    3.0875 H   0  0  0  0  0  0  0  0  0  0  0  0
    6.0574   -3.0880    4.8971 H   0  0  0  0  0  0  0  0  0  0  0  0
    4.4833   -4.1491    6.5987 H   0  0  0  0  0  0  0  0  0  0  0  0
    3.1570   -3.2800    5.8088 H   0  0  0  0  0  0  0  0  0  0  0  0
    4.4681   -2.4206    6.6050 H   0  0  0  0  0  0  0  0  0  0  0  0
    4.6272   -1.3592    4.6729 H   0  0  0  0  0  0  0  0  0  0  0  0
    6.9352   -4.6556    2.6208 H   0  0  0  0  0  0  0  0  0  0  0  0
    6.2349   -1.9478    2.4395 H   0  0  0  0  0  0  0  0  0  0  0  0
    7.0815   -2.7468    1.1891 H   0  0  0  0  0  0  0  0  0  0  0  0
    4.3707   -1.6115    1.0654 H   0  0  0  0  0  0  0  0  0  0  0  0
    3.4479   -5.0072   -0.9477 H   0  0  0  0  0  0  0  0  0  0  0  0
  1  2  1  0
  1 28  1  0
  1 29  1  0
  1 30  1  0
  3  2  1  6
  2 31  1  0
  2 32  1  0
  3 27  1  0
  3  4  1  0
  3  5  1  0
  4 33  1  0
  4 34  1  0
  4 35  1  0
  5  6  1  0
  5 36  1  0
  5 37  1  0
  6  7  1  0
  6 38  1  0
  6 65  1  0
  7 13  1  0
  7  8  1  0
  7 39  1  1
  8 27  1  0
  8  9  1  0
  8 40  1  1
  9 25  1  0
  9 10  1  0
  9 41  1  6
 10 11  2  0
 10 12  1  0
 12 13  1  0
 12 42  1  0
 12 43  1  0
 13 14  1  1
 13 15  1  0
 14 44  1  0
 14 45  1  0
 14 46  1  0
 15 21  1  0
 15 16  1  0
 15 47  1  1
 16 17  1  0
 16 18  1  0
 16 19  1  0
 17 48  1  0
 17 49  1  0
 17 50  1  0
 18 51  1  0
 18 52  1  0
 18 53  1  0
 19 20  1  0
 19 21  1  0
 19 54  1  1
 20 55  1  0
 21 22  1  1
 21 25  1  0
 22 23  1  0
 22 24  1  0
 22 56  1  1
 23 57  1  0
 23 58  1  0
 23 59  1  0
 24 60  1  0
 25 26  1  0
 25 61  1  1
 26 27  1  0
 26 62  1  0
 26 63  1  0
 27 64  1  1
M  CHG  1   6   1
M  END
>  <i_m_ct_stereo_status>  (270) 
1

>  <s_m_source_file>  (270) 
/var/tmp/pbs.5076255.sched01/tmp7zsp0c9b/86_oh4d05k.sdf

>  <i_m_source_file_index>  (270) 
23

>  <i_lp_mmshare_version>  (270) 
48012

>  <i_f3d_flags>  (270) 
0

>  <s_epik_input>  (270) 
W0NIM11bQ0gyXVtDQEBdKFtDSDNdKShbQ0gyXVtOSF0xKVtDQEBIXTJbQ0gyXVtDQEhdKFtDQEBIXShDKD1PKVtDSDJdMylbQ0BASF0yW0NAQEhdMVtDQEBdMzRbQ0gzXSlbQ0BAXTUoW0NASF0oW0NIM10pW09IXSlbQ0BASF00QyhbQ0gzXSkoW0NIM10pW0NASF01W09IXQ==

>  <s_epik_cmdline>  (270) 
J2VwaWtfcHl0aG9uJywgJy1waHQnLCAnMi4wJywgJy1waCcsICc3LjAnLCAnLXRuJywgJzgnLCAnLW1hJywgJzIwMCcsICctaW1hZScsICc8aW5maWxlLm1hZT4nLCAnLW9tYWUnLCAnPG91dGZpbGUubWFlPic=

>  <r_lp_tautomer_probability>  (270) 
1

>  <r_epik_Ionization_Penalty>  (270) 
0.000232237

>  <r_epik_Ionization_Penalty_Charging>  (270) 
0.000231772

>  <r_epik_Ionization_Penalty_Neutral>  (270) 
4.64972e-07

>  <r_epik_State_Penalty>  (270) 
-0

>  <r_epik_Charging_Adjusted_Penalty>  (270) 
0.000231772

>  <i_epik_Tot_Q>  (270) 
1

>  <i_epik_Tot_abs_Q>  (270) 
1

>  <s_lp_Force_Field>  (270) 
OPLS3e

>  <r_lp_Energy>  (270) 
166.293

>  <b_lp_Chiralities_Consistent>  (270) 
1

>  <s_lp_Variant>  (270) 
73:0-1

>  <s_i_glide_gridfile>  (270) 
pfpi4k_grid

>  <i_i_glide_lignum>  (270) 
23

>  <i_i_glide_rotatable_bonds>  (270) 
4

>  <r_i_docking_score>  (270) 
-3.30954

>  <r_i_glide_ligand_efficiency>  (270) 
-0.122576

>  <r_i_glide_ligand_efficiency_sa>  (270) 
-0.367727

>  <r_i_glide_ligand_efficiency_ln>  (270) 
-0.770406

>  <r_i_glide_gscore>  (270) 
-3.30954

>  <r_i_glide_lipo>  (270) 
-0.416631

>  <r_i_glide_hbond>  (270) 
0

>  <r_i_glide_metal>  (270) 
-0

>  <r_i_glide_rewards>  (270) 
-1.47338

>  <r_i_glide_evdw>  (270) 
-16.5797

>  <r_i_glide_ecoul>  (270) 
-4.51849

>  <r_i_glide_erotb>  (270) 
0.13653

>  <r_i_glide_esite>  (270) 
-0.0492988

>  <r_i_glide_emodel>  (270) 
-28.6462

>  <r_i_glide_energy>  (270) 
-21.0982

>  <r_i_glide_einternal>  (270) 
2.09319

>  <r_i_glide_intrahb_reward>  (270) 
-0.5

>  <i_i_glide_confnum>  (270) 
4

>  <i_i_glide_posenum>  (270) 
28

>  <r_i_glide_eff_state_penalty>  (270) 
0

>  <ligand_id>  (270) 
73

>  <original_smiles>  (270) 
CCC1(C)CNC2C3C4C(=O)CC2(C)C2C(C)(C)C(O)C2(C(C)O)C4CC31

>  <smiles>  (270) 
[H]OC([H])(C([H])([H])[H])C12C([H])(O[H])C(C([H])([H])[H])(C([H])([H])[H])C1([H])C1(C([H])([H])[H])C([H])([H])C(=O)C3([H])C2([H])C([H])([H])C2([H])C3([H])C1([H])[N+]([H])([H])C([H])([H])C2(C([H])([H])[H])C([H])([H])C([H])([H])[H]

$$$$
75:0:0
     RDKit          3D

 42 45  0  0  1  0  0  0  0  0999 V2000
    5.3576   -0.8616    3.2140 C   0  0  0  0  0  0  0  0  0  0  0  0
    5.2878   -1.4530    1.7940 C   0  0  2  0  0  0  0  0  0  0  0  0
    4.8916   -0.3483    0.8088 C   0  0  0  0  0  0  0  0  0  0  0  0
    4.8539   -0.8872   -0.6200 C   0  0  0  0  0  0  0  0  0  0  0  0
    3.8125   -2.0001   -0.7415 C   0  0  1  0  0  0  0  0  0  0  0  0
    3.5543   -2.5107   -2.1614 C   0  0  1  0  0  0  0  0  0  0  0  0
    3.2816   -1.3797   -3.1881 C   0  0  0  0  0  0  0  0  0  0  0  0
    4.6514   -3.4497   -2.6634 C   0  0  0  0  0  0  0  0  0  0  0  0
    4.8235   -3.5325   -3.8709 O   0  0  0  0  0  0  0  0  0  0  0  0
    5.3012   -4.2368   -1.7465 O   0  0  0  0  0  0  0  0  0  0  0  0
    5.2641   -4.0186   -0.3520 C   0  0  2  0  0  0  0  0  0  0  0  0
    5.4215   -5.2320    0.3298 O   0  0  0  0  0  0  0  0  0  0  0  0
    4.2658   -5.7285    0.9608 C   0  0  1  0  0  0  0  0  0  0  0  0
    4.3386   -7.2590    0.9012 C   0  0  0  0  0  0  0  0  0  0  0  0
    4.2646   -5.2253    2.4227 C   0  0  0  0  0  0  0  0  0  0  0  0
    4.8856   -3.8307    2.6078 C   0  0  0  0  0  0  0  0  0  0  0  0
    4.3707   -2.7052    1.6861 C   0  0  2  0  0  0  0  0  0  0  0  0
    4.0719   -3.1679    0.2158 C   0  0  1  0  0  0  0  0  0  0  0  0
    2.8514   -3.9000    0.3313 O   0  0  0  0  0  0  0  0  0  0  0  0
    3.0945   -5.3871    0.2332 O   0  0  0  0  0  0  0  0  0  0  0  0
    4.3725   -0.5814    3.5898 H   0  0  0  0  0  0  0  0  0  0  0  0
    5.9835    0.0313    3.2381 H   0  0  0  0  0  0  0  0  0  0  0  0
    5.7971   -1.5625    3.9235 H   0  0  0  0  0  0  0  0  0  0  0  0
    6.3040   -1.7521    1.5310 H   0  0  0  0  0  0  0  0  0  0  0  0
    3.9207    0.0790    1.0764 H   0  0  0  0  0  0  0  0  0  0  0  0
    5.6201    0.4627    0.8681 H   0  0  0  0  0  0  0  0  0  0  0  0
    4.6006   -0.0641   -1.2837 H   0  0  0  0  0  0  0  0  0  0  0  0
    5.8464   -1.2334   -0.9114 H   0  0  0  0  0  0  0  0  0  0  0  0
    2.8799   -1.5490   -0.4102 H   0  0  0  0  0  0  0  0  0  0  0  0
    2.6435   -3.1124   -2.1161 H   0  0  0  0  0  0  0  0  0  0  0  0
    2.8559   -1.7830   -4.1110 H   0  0  0  0  0  0  0  0  0  0  0  0
    4.1888   -0.8331   -3.4615 H   0  0  0  0  0  0  0  0  0  0  0  0
    2.5669   -0.6516   -2.7947 H   0  0  0  0  0  0  0  0  0  0  0  0
    6.1781   -3.4741   -0.1423 H   0  0  0  0  0  0  0  0  0  0  0  0
    4.3009   -7.5910   -0.1360 H   0  0  0  0  0  0  0  0  0  0  0  0
    3.5065   -7.7278    1.4300 H   0  0  0  0  0  0  0  0  0  0  0  0
    5.2679   -7.6384    1.3290 H   0  0  0  0  0  0  0  0  0  0  0  0
    3.2695   -5.2873    2.8595 H   0  0  0  0  0  0  0  0  0  0  0  0
    4.8886   -5.8967    3.0150 H   0  0  0  0  0  0  0  0  0  0  0  0
    4.7501   -3.5374    3.6459 H   0  0  0  0  0  0  0  0  0  0  0  0
    5.9646   -3.9102    2.4723 H   0  0  0  0  0  0  0  0  0  0  0  0
    3.3983   -2.4013    2.0757 H   0  0  0  0  0  0  0  0  0  0  0  0
  1  2  1  0
  1 21  1  0
  1 22  1  0
  1 23  1  0
  2 17  1  0
  2  3  1  0
  2 24  1  6
  3  4  1  0
  3 25  1  0
  3 26  1  0
  4  5  1  0
  4 27  1  0
  4 28  1  0
  5 18  1  0
  5  6  1  0
  5 29  1  1
  6  7  1  0
  6  8  1  0
  6 30  1  1
  7 31  1  0
  7 32  1  0
  7 33  1  0
  8  9  2  0
  8 10  1  0
 10 11  1  0
 11 18  1  0
 11 12  1  0
 11 34  1  1
 12 13  1  0
 13 20  1  0
 13 14  1  1
 13 15  1  0
 14 35  1  0
 14 36  1  0
 14 37  1  0
 15 16  1  0
 15 38  1  0
 15 39  1  0
 16 17  1  0
 16 40  1  0
 16 41  1  0
 17 18  1  0
 17 42  1  1
 18 19  1  1
 19 20  1  0
M  END
>  <i_m_ct_stereo_status>  (271) 
1

>  <s_m_source_file>  (271) 
/var/tmp/pbs.5076255.sched01/tmp7zsp0c9b/86_oh4d05k.sdf

>  <i_m_source_file_index>  (271) 
25

>  <i_lp_mmshare_version>  (271) 
48012

>  <i_f3d_flags>  (271) 
0

>  <s_epik_input>  (271) 
W0NAXTEyM1tDQEhdNFtDSDJdW0NIMl1bQ0BASF0oW0NIM10pW0NAQEhdMltDSDJdW0NIMl1bQ0BAXShbQ0gzXSkoT08zKU9bQ0BIXTFPQyg9TylbQ0BASF00W0NIM10=

>  <s_epik_cmdline>  (271) 
J2VwaWtfcHl0aG9uJywgJy1waHQnLCAnMi4wJywgJy1waCcsICc3LjAnLCAnLXRuJywgJzgnLCAnLW1hJywgJzIwMCcsICctaW1hZScsICc8aW5maWxlLm1hZT4nLCAnLW9tYWUnLCAnPG91dGZpbGUubWFlPic=

>  <r_lp_tautomer_probability>  (271) 
1

>  <r_epik_Ionization_Penalty>  (271) 
1.7205e-10

>  <r_epik_Ionization_Penalty_Charging>  (271) 
0

>  <r_epik_Ionization_Penalty_Neutral>  (271) 
1.7205e-10

>  <r_epik_State_Penalty>  (271) 
-0

>  <r_epik_Charging_Adjusted_Penalty>  (271) 
0

>  <i_epik_Tot_Q>  (271) 
0

>  <i_epik_Tot_abs_Q>  (271) 
0

>  <s_epik_Chemistry_Notes>  (271) 
This compound has an ester and may undergo hydrolysis at high or low pH. This compound contains an acetal/aminal-like group ( X-CH(R)-Y where X, Y are N, S, or O) that may be acid/base labile, releasing an aldehyde.

>  <s_lp_Force_Field>  (271) 
OPLS3e

>  <r_lp_Energy>  (271) 
36.9221

>  <b_lp_Chiralities_Consistent>  (271) 
1

>  <s_lp_Variant>  (271) 
75:0-1

>  <s_i_glide_gridfile>  (271) 
pfpi4k_grid

>  <i_i_glide_lignum>  (271) 
25

>  <i_i_glide_rotatable_bonds>  (271) 
0

>  <r_i_docking_score>  (271) 
-3.77549

>  <r_i_glide_ligand_efficiency>  (271) 
-0.188775

>  <r_i_glide_ligand_efficiency_sa>  (271) 
-0.512413

>  <r_i_glide_ligand_efficiency_ln>  (271) 
-0.944881

>  <r_i_glide_gscore>  (271) 
-3.77549

>  <r_i_glide_lipo>  (271) 
-0.604846

>  <r_i_glide_hbond>  (271) 
0

>  <r_i_glide_metal>  (271) 
-0

>  <r_i_glide_rewards>  (271) 
-1.70122

>  <r_i_glide_evdw>  (271) 
-25.8989

>  <r_i_glide_ecoul>  (271) 
-1.1632

>  <r_i_glide_erotb>  (271) 
0

>  <r_i_glide_esite>  (271) 
0

>  <r_i_glide_emodel>  (271) 
-32.8531

>  <r_i_glide_energy>  (271) 
-27.0621

>  <r_i_glide_einternal>  (271) 
0

>  <r_i_glide_intrahb_reward>  (271) 
-0

>  <i_i_glide_confnum>  (271) 
2

>  <i_i_glide_posenum>  (271) 
29

>  <r_i_glide_eff_state_penalty>  (271) 
0

>  <ligand_id>  (271) 
75

>  <original_smiles>  (271) 
CC1CCC2C(C)C(=O)OC3OC4(C)CCC1C32OO4

>  <smiles>  (271) 
[H]C([H])([H])C12OOC34C([H])(OC(=O)C([H])(C([H])([H])[H])C3([H])C([H])([H])C([H])([H])C([H])(C([H])([H])[H])C4([H])C([H])([H])C1([H])[H])O2

$$$$
75:0:1
     RDKit          3D

 42 45  0  0  1  0  0  0  0  0999 V2000
    8.4631   -2.5936   -0.3437 C   0  0  0  0  0  0  0  0  0  0  0  0
    6.9725   -2.9129   -0.5605 C   0  0  2  0  0  0  0  0  0  0  0  0
    6.7013   -3.0993   -2.0536 C   0  0  0  0  0  0  0  0  0  0  0  0
    5.2516   -3.4574   -2.3305 C   0  0  0  0  0  0  0  0  0  0  0  0
    4.3418   -2.3385   -1.8162 C   0  0  1  0  0  0  0  0  0  0  0  0
    2.8770   -2.5466   -2.1232 C   0  0  1  0  0  0  0  0  0  0  0  0
    2.5748   -2.8217   -3.6190 C   0  0  0  0  0  0  0  0  0  0  0  0
    2.2000   -3.5378   -1.1623 C   0  0  0  0  0  0  0  0  0  0  0  0
    1.1604   -4.0756   -1.5267 O   0  0  0  0  0  0  0  0  0  0  0  0
    2.6436   -3.6704    0.1014 O   0  0  0  0  0  0  0  0  0  0  0  0
    3.8743   -3.1950    0.5346 C   0  0  2  0  0  0  0  0  0  0  0  0
    3.7958   -2.8966    1.8948 O   0  0  0  0  0  0  0  0  0  0  0  0
    3.7580   -1.5225    2.2079 C   0  0  1  0  0  0  0  0  0  0  0  0
    2.8968   -1.3586    3.4612 C   0  0  0  0  0  0  0  0  0  0  0  0
    5.2102   -1.0918    2.4682 C   0  0  0  0  0  0  0  0  0  0  0  0
    6.2271   -1.8315    1.5938 C   0  0  0  0  0  0  0  0  0  0  0  0
    6.0094   -1.8818    0.0843 C   0  0  2  0  0  0  0  0  0  0  0  0
    4.5266   -2.0468   -0.3156 C   0  0  1  0  0  0  0  0  0  0  0  0
    3.9792   -0.7530   -0.0423 O   0  0  0  0  0  0  0  0  0  0  0  0
    3.0999   -0.7852    1.1889 O   0  0  0  0  0  0  0  0  0  0  0  0
    8.7488   -1.6078   -0.7067 H   0  0  0  0  0  0  0  0  0  0  0  0
    9.0838   -3.3064   -0.8829 H   0  0  0  0  0  0  0  0  0  0  0  0
    8.7570   -2.6466    0.7028 H   0  0  0  0  0  0  0  0  0  0  0  0
    6.7988   -3.8873   -0.1024 H   0  0  0  0  0  0  0  0  0  0  0  0
    6.9711   -2.2312   -2.6259 H   0  0  0  0  0  0  0  0  0  0  0  0
    7.3437   -3.8516   -2.4618 H   0  0  0  0  0  0  0  0  0  0  0  0
    5.1319   -3.5889   -3.4066 H   0  0  0  0  0  0  0  0  0  0  0  0
    5.0132   -4.4130   -1.8583 H   0  0  0  0  0  0  0  0  0  0  0  0
    4.6344   -1.4270   -2.3405 H   0  0  0  0  0  0  0  0  0  0  0  0
    2.4100   -1.5853   -1.9266 H   0  0  0  0  0  0  0  0  0  0  0  0
    1.5123   -2.6853   -3.8325 H   0  0  0  0  0  0  0  0  0  0  0  0
    2.8301   -3.8431   -3.9141 H   0  0  0  0  0  0  0  0  0  0  0  0
    3.1085   -2.1263   -4.2778 H   0  0  0  0  0  0  0  0  0  0  0  0
    4.5217   -4.0653    0.4623 H   0  0  0  0  0  0  0  0  0  0  0  0
    1.8659   -1.6266    3.2340 H   0  0  0  0  0  0  0  0  0  0  0  0
    2.9060   -0.3271    3.8177 H   0  0  0  0  0  0  0  0  0  0  0  0
    3.2375   -2.0056    4.2738 H   0  0  0  0  0  0  0  0  0  0  0  0
    5.3275   -0.0144    2.4015 H   0  0  0  0  0  0  0  0  0  0  0  0
    5.4679   -1.3606    3.4960 H   0  0  0  0  0  0  0  0  0  0  0  0
    7.1741   -1.3266    1.7011 H   0  0  0  0  0  0  0  0  0  0  0  0
    6.3472   -2.8518    1.9672 H   0  0  0  0  0  0  0  0  0  0  0  0
    6.2847   -0.9000   -0.2947 H   0  0  0  0  0  0  0  0  0  0  0  0
  1  2  1  0
  1 21  1  0
  1 22  1  0
  1 23  1  0
  2 17  1  0
  2  3  1  0
  2 24  1  1
  3  4  1  0
  3 25  1  0
  3 26  1  0
  4  5  1  0
  4 27  1  0
  4 28  1  0
  5 18  1  0
  5  6  1  0
  5 29  1  6
  6  7  1  0
  6  8  1  0
  6 30  1  1
  7 31  1  0
  7 32  1  0
  7 33  1  0
  8  9  2  0
  8 10  1  0
 10 11  1  0
 11 18  1  0
 11 12  1  0
 11 34  1  1
 12 13  1  0
 13 20  1  0
 13 14  1  1
 13 15  1  0
 14 35  1  0
 14 36  1  0
 14 37  1  0
 15 16  1  0
 15 38  1  0
 15 39  1  0
 16 17  1  0
 16 40  1  0
 16 41  1  0
 17 18  1  0
 17 42  1  6
 18 19  1  1
 19 20  1  0
M  END
>  <i_m_ct_stereo_status>  (272) 
1

>  <s_m_source_file>  (272) 
/var/tmp/pbs.5076255.sched01/tmp7zsp0c9b/86_oh4d05k.sdf

>  <i_m_source_file_index>  (272) 
25

>  <i_lp_mmshare_version>  (272) 
48012

>  <i_f3d_flags>  (272) 
0

>  <s_epik_input>  (272) 
W0NAXTEyM1tDQEhdNFtDSDJdW0NIMl1bQ0BASF0oW0NIM10pW0NAQEhdMltDSDJdW0NIMl1bQ0BAXShbQ0gzXSkoT08zKU9bQ0BIXTFPQyg9TylbQ0BASF00W0NIM10=

>  <s_epik_cmdline>  (272) 
J2VwaWtfcHl0aG9uJywgJy1waHQnLCAnMi4wJywgJy1waCcsICc3LjAnLCAnLXRuJywgJzgnLCAnLW1hJywgJzIwMCcsICctaW1hZScsICc8aW5maWxlLm1hZT4nLCAnLW9tYWUnLCAnPG91dGZpbGUubWFlPic=

>  <r_lp_tautomer_probability>  (272) 
1

>  <r_epik_Ionization_Penalty>  (272) 
1.7205e-10

>  <r_epik_Ionization_Penalty_Charging>  (272) 
0

>  <r_epik_Ionization_Penalty_Neutral>  (272) 
1.7205e-10

>  <r_epik_State_Penalty>  (272) 
-0

>  <r_epik_Charging_Adjusted_Penalty>  (272) 
0

>  <i_epik_Tot_Q>  (272) 
0

>  <i_epik_Tot_abs_Q>  (272) 
0

>  <s_epik_Chemistry_Notes>  (272) 
This compound has an ester and may undergo hydrolysis at high or low pH. This compound contains an acetal/aminal-like group ( X-CH(R)-Y where X, Y are N, S, or O) that may be acid/base labile, releasing an aldehyde.

>  <s_lp_Force_Field>  (272) 
OPLS3e

>  <r_lp_Energy>  (272) 
36.9221

>  <b_lp_Chiralities_Consistent>  (272) 
1

>  <s_lp_Variant>  (272) 
75:0-1

>  <s_i_glide_gridfile>  (272) 
pfpi4k_grid

>  <i_i_glide_lignum>  (272) 
25

>  <i_i_glide_rotatable_bonds>  (272) 
0

>  <r_i_docking_score>  (272) 
-3.27276

>  <r_i_glide_ligand_efficiency>  (272) 
-0.163638

>  <r_i_glide_ligand_efficiency_sa>  (272) 
-0.444182

>  <r_i_glide_ligand_efficiency_ln>  (272) 
-0.819064

>  <r_i_glide_gscore>  (272) 
-3.27276

>  <r_i_glide_lipo>  (272) 
-0.721179

>  <r_i_glide_hbond>  (272) 
-0.0116057

>  <r_i_glide_metal>  (272) 
-0

>  <r_i_glide_rewards>  (272) 
-1.4841

>  <r_i_glide_evdw>  (272) 
-22.6618

>  <r_i_glide_ecoul>  (272) 
0.622034

>  <r_i_glide_erotb>  (272) 
0

>  <r_i_glide_esite>  (272) 
-0.0160919

>  <r_i_glide_emodel>  (272) 
-26.863

>  <r_i_glide_energy>  (272) 
-22.0398

>  <r_i_glide_einternal>  (272) 
0

>  <r_i_glide_intrahb_reward>  (272) 
-0

>  <i_i_glide_confnum>  (272) 
1

>  <i_i_glide_posenum>  (272) 
5

>  <r_i_glide_eff_state_penalty>  (272) 
0

>  <ligand_id>  (272) 
75

>  <original_smiles>  (272) 
CC1CCC2C(C)C(=O)OC3OC4(C)CCC1C32OO4

>  <smiles>  (272) 
[H]C([H])([H])C12OOC34C([H])(OC(=O)C([H])(C([H])([H])[H])C3([H])C([H])([H])C([H])([H])C([H])(C([H])([H])[H])C4([H])C([H])([H])C1([H])[H])O2

$$$$
75:0:2
     RDKit          3D

 42 45  0  0  1  0  0  0  0  0999 V2000
    5.6260   -9.6209    2.1431 C   0  0  0  0  0  0  0  0  0  0  0  0
    4.3056   -8.9952    2.6217 C   0  0  2  0  0  0  0  0  0  0  0  0
    3.2414  -10.0990    2.7626 C   0  0  0  0  0  0  0  0  0  0  0  0
    1.9194   -9.5342    3.2711 C   0  0  0  0  0  0  0  0  0  0  0  0
    1.3885   -8.4982    2.2738 C   0  0  1  0  0  0  0  0  0  0  0  0
   -0.0142   -7.9514    2.5738 C   0  0  1  0  0  0  0  0  0  0  0  0
   -1.0700   -9.0584    2.8217 C   0  0  0  0  0  0  0  0  0  0  0  0
   -0.0248   -6.9071    3.6963 C   0  0  0  0  0  0  0  0  0  0  0  0
   -1.0510   -6.7412    4.3576 O   0  0  0  0  0  0  0  0  0  0  0  0
    1.0631   -6.0823    3.8336 O   0  0  0  0  0  0  0  0  0  0  0  0
    2.3330   -6.3795    3.2881 C   0  0  2  0  0  0  0  0  0  0  0  0
    3.0273   -5.1815    3.0415 O   0  0  0  0  0  0  0  0  0  0  0  0
    3.1092   -4.7914    1.6955 C   0  0  1  0  0  0  0  0  0  0  0  0
    3.0831   -3.2611    1.6310 C   0  0  0  0  0  0  0  0  0  0  0  0
    4.4283   -5.3438    1.1003 C   0  0  0  0  0  0  0  0  0  0  0  0
    4.8705   -6.6847    1.7126 C   0  0  0  0  0  0  0  0  0  0  0  0
    3.8220   -7.8167    1.7273 C   0  0  2  0  0  0  0  0  0  0  0  0
    2.3632   -7.3265    2.0541 C   0  0  1  0  0  0  0  0  0  0  0  0
    1.9108   -6.6838    0.8685 O   0  0  0  0  0  0  0  0  0  0  0  0
    1.9530   -5.1835    0.9970 O   0  0  0  0  0  0  0  0  0  0  0  0
    5.5519   -9.9873    1.1182 H   0  0  0  0  0  0  0  0  0  0  0  0
    5.8976  -10.4652    2.7759 H   0  0  0  0  0  0  0  0  0  0  0  0
    6.4540   -8.9123    2.1955 H   0  0  0  0  0  0  0  0  0  0  0  0
    4.4764   -8.6092    3.6296 H   0  0  0  0  0  0  0  0  0  0  0  0
    3.0814  -10.6040    1.8059 H   0  0  0  0  0  0  0  0  0  0  0  0
    3.5954  -10.8619    3.4606 H   0  0  0  0  0  0  0  0  0  0  0  0
    1.2213  -10.3645    3.3713 H   0  0  0  0  0  0  0  0  0  0  0  0
    2.0575   -9.1160    4.2728 H   0  0  0  0  0  0  0  0  0  0  0  0
    1.3189   -9.0142    1.3138 H   0  0  0  0  0  0  0  0  0  0  0  0
   -0.3320   -7.4132    1.6745 H   0  0  0  0  0  0  0  0  0  0  0  0
   -2.0798   -8.6469    2.7979 H   0  0  0  0  0  0  0  0  0  0  0  0
   -0.9310   -9.5170    3.8027 H   0  0  0  0  0  0  0  0  0  0  0  0
   -1.0107   -9.8431    2.0647 H   0  0  0  0  0  0  0  0  0  0  0  0
    2.8925   -6.8600    4.0914 H   0  0  0  0  0  0  0  0  0  0  0  0
    2.1165   -2.8967    1.9908 H   0  0  0  0  0  0  0  0  0  0  0  0
    3.2249   -2.8876    0.6063 H   0  0  0  0  0  0  0  0  0  0  0  0
    3.8643   -2.8309    2.2611 H   0  0  0  0  0  0  0  0  0  0  0  0
    4.4156   -5.3780    0.0057 H   0  0  0  0  0  0  0  0  0  0  0  0
    5.2312   -4.6443    1.3569 H   0  0  0  0  0  0  0  0  0  0  0  0
    5.7626   -7.0235    1.1892 H   0  0  0  0  0  0  0  0  0  0  0  0
    5.1951   -6.5062    2.7400 H   0  0  0  0  0  0  0  0  0  0  0  0
    3.7753   -8.2032    0.7065 H   0  0  0  0  0  0  0  0  0  0  0  0
  1  2  1  0
  1 21  1  0
  1 22  1  0
  1 23  1  0
  2 17  1  0
  2  3  1  0
  2 24  1  1
  3  4  1  0
  3 25  1  0
  3 26  1  0
  4  5  1  0
  4 27  1  0
  4 28  1  0
  5 18  1  0
  5  6  1  0
  5 29  1  6
  6  7  1  0
  6  8  1  0
  6 30  1  6
  7 31  1  0
  7 32  1  0
  7 33  1  0
  8  9  2  0
  8 10  1  0
 10 11  1  0
 11 18  1  0
 11 12  1  0
 11 34  1  1
 12 13  1  0
 13 20  1  0
 13 14  1  1
 13 15  1  0
 14 35  1  0
 14 36  1  0
 14 37  1  0
 15 16  1  0
 15 38  1  0
 15 39  1  0
 16 17  1  0
 16 40  1  0
 16 41  1  0
 17 18  1  0
 17 42  1  6
 18 19  1  6
 19 20  1  0
M  END
>  <i_m_ct_stereo_status>  (273) 
1

>  <s_m_source_file>  (273) 
/var/tmp/pbs.5076255.sched01/tmp7zsp0c9b/86_oh4d05k.sdf

>  <i_m_source_file_index>  (273) 
25

>  <i_lp_mmshare_version>  (273) 
48012

>  <i_f3d_flags>  (273) 
0

>  <s_epik_input>  (273) 
W0NAXTEyM1tDQEhdNFtDSDJdW0NIMl1bQ0BASF0oW0NIM10pW0NAQEhdMltDSDJdW0NIMl1bQ0BAXShbQ0gzXSkoT08zKU9bQ0BIXTFPQyg9TylbQ0BASF00W0NIM10=

>  <s_epik_cmdline>  (273) 
J2VwaWtfcHl0aG9uJywgJy1waHQnLCAnMi4wJywgJy1waCcsICc3LjAnLCAnLXRuJywgJzgnLCAnLW1hJywgJzIwMCcsICctaW1hZScsICc8aW5maWxlLm1hZT4nLCAnLW9tYWUnLCAnPG91dGZpbGUubWFlPic=

>  <r_lp_tautomer_probability>  (273) 
1

>  <r_epik_Ionization_Penalty>  (273) 
1.7205e-10

>  <r_epik_Ionization_Penalty_Charging>  (273) 
0

>  <r_epik_Ionization_Penalty_Neutral>  (273) 
1.7205e-10

>  <r_epik_State_Penalty>  (273) 
-0

>  <r_epik_Charging_Adjusted_Penalty>  (273) 
0

>  <i_epik_Tot_Q>  (273) 
0

>  <i_epik_Tot_abs_Q>  (273) 
0

>  <s_epik_Chemistry_Notes>  (273) 
This compound has an ester and may undergo hydrolysis at high or low pH. This compound contains an acetal/aminal-like group ( X-CH(R)-Y where X, Y are N, S, or O) that may be acid/base labile, releasing an aldehyde.

>  <s_lp_Force_Field>  (273) 
OPLS3e

>  <r_lp_Energy>  (273) 
36.9221

>  <b_lp_Chiralities_Consistent>  (273) 
1

>  <s_lp_Variant>  (273) 
75:0-1

>  <s_i_glide_gridfile>  (273) 
pfpi4k_grid

>  <i_i_glide_lignum>  (273) 
25

>  <i_i_glide_rotatable_bonds>  (273) 
0

>  <r_i_docking_score>  (273) 
-3.06822

>  <r_i_glide_ligand_efficiency>  (273) 
-0.153411

>  <r_i_glide_ligand_efficiency_sa>  (273) 
-0.416421

>  <r_i_glide_ligand_efficiency_ln>  (273) 
-0.767873

>  <r_i_glide_gscore>  (273) 
-3.06822

>  <r_i_glide_lipo>  (273) 
-0.103274

>  <r_i_glide_hbond>  (273) 
-0.0656333

>  <r_i_glide_metal>  (273) 
-0

>  <r_i_glide_rewards>  (273) 
-1.48489

>  <r_i_glide_evdw>  (273) 
-21.8227

>  <r_i_glide_ecoul>  (273) 
-1.812

>  <r_i_glide_erotb>  (273) 
0

>  <r_i_glide_esite>  (273) 
-0.0514787

>  <r_i_glide_emodel>  (273) 
-28.3212

>  <r_i_glide_energy>  (273) 
-23.6347

>  <r_i_glide_einternal>  (273) 
0

>  <r_i_glide_intrahb_reward>  (273) 
-0

>  <i_i_glide_confnum>  (273) 
2

>  <i_i_glide_posenum>  (273) 
2

>  <r_i_glide_eff_state_penalty>  (273) 
0

>  <ligand_id>  (273) 
75

>  <original_smiles>  (273) 
CC1CCC2C(C)C(=O)OC3OC4(C)CCC1C32OO4

>  <smiles>  (273) 
[H]C([H])([H])C12OOC34C([H])(OC(=O)C([H])(C([H])([H])[H])C3([H])C([H])([H])C([H])([H])C([H])(C([H])([H])[H])C4([H])C([H])([H])C1([H])[H])O2

$$$$
76:0:0
     RDKit          3D

 25 26  0  0  1  0  0  0  0  0999 V2000
    3.6157    0.4937   -4.9127 N   0  0  0  0  0  0  0  0  0  0  0  0
    3.6088   -0.3853   -3.9183 C   0  0  0  0  0  0  0  0  0  0  0  0
    2.9239   -1.5383   -3.9051 N   0  0  0  0  0  0  0  0  0  0  0  0
    3.1886   -2.1530   -2.7138 C   0  0  0  0  0  0  0  0  0  0  0  0
    3.9730   -1.3557   -1.9774 C   0  0  0  0  0  0  0  0  0  0  0  0
    4.2464   -0.2456   -2.7412 N   0  0  0  0  0  0  0  0  0  0  0  0
    4.2802   -1.8398   -0.6201 C   0  0  1  0  0  0  0  0  0  0  0  0
    3.7453   -0.8917    0.4686 C   0  0  0  0  0  0  0  0  0  0  0  0
    4.6691    0.1439    0.6974 O   0  0  0  0  0  0  0  0  0  0  0  0
    3.5438   -3.2363   -0.6821 C   0  0  1  0  0  0  0  0  0  0  0  0
    2.6274   -3.3868    0.3940 O   0  0  0  0  0  0  0  0  0  0  0  0
    2.8143   -3.4009   -2.0749 C   0  0  1  0  0  0  0  0  0  0  0  0
    1.4084   -3.5869   -1.9457 O   0  0  0  0  0  0  0  0  0  0  0  0
    4.3120    1.2551   -4.9673 H   0  0  0  0  0  0  0  0  0  0  0  0
    2.8037    0.5953   -5.5301 H   0  0  0  0  0  0  0  0  0  0  0  0
    2.3224   -1.8659   -4.6530 H   0  0  0  0  0  0  0  0  0  0  0  0
    5.3610   -1.9889   -0.5245 H   0  0  0  0  0  0  0  0  0  0  0  0
    2.7454   -0.5193    0.2600 H   0  0  0  0  0  0  0  0  0  0  0  0
    3.7047   -1.3481    1.4528 H   0  0  0  0  0  0  0  0  0  0  0  0
    4.6906    0.7556   -0.0274 H   0  0  0  0  0  0  0  0  0  0  0  0
    4.2895   -4.0251   -0.5866 H   0  0  0  0  0  0  0  0  0  0  0  0
    2.0006   -2.6910    0.3006 H   0  0  0  0  0  0  0  0  0  0  0  0
    3.3057   -4.1744   -2.6415 H   0  0  0  0  0  0  0  0  0  0  0  0
    1.0253   -3.9098   -2.7693 H   0  0  0  0  0  0  0  0  0  0  0  0
    4.7526    0.5908   -2.4534 H   0  0  0  0  0  0  0  0  0  0  0  0
  1  2  1  0
  1 14  1  0
  1 15  1  0
  2  3  1  0
  2  6  2  0
  3  4  1  0
  3 16  1  0
  4 12  1  0
  4  5  2  0
  5  6  1  0
  5  7  1  0
  6 25  1  0
  7  8  1  0
  7 10  1  0
  7 17  1  6
  8  9  1  0
  8 18  1  0
  8 19  1  0
  9 20  1  0
 10 11  1  0
 10 12  1  0
 10 21  1  1
 11 22  1  0
 12 13  1  0
 12 23  1  6
 13 24  1  0
M  CHG  1   6   1
M  END
>  <i_m_ct_stereo_status>  (274) 
1

>  <s_m_source_file>  (274) 
/var/tmp/pbs.5076255.sched01/tmp7zsp0c9b/86_oh4d05k.sdf

>  <i_m_source_file_index>  (274) 
26

>  <i_lp_mmshare_version>  (274) 
48012

>  <i_f3d_flags>  (274) 
0

>  <s_epik_input>  (274) 
W05IMl1DKD1OMSlOPUMoW0NAQEhdMTIpW0NAQEhdKFtDSDJdW09IXSlbQ0BASF0oW09IXSlbQ0BIXTJbT0hd

>  <s_epik_cmdline>  (274) 
J2VwaWtfcHl0aG9uJywgJy1waHQnLCAnMi4wJywgJy1waCcsICc3LjAnLCAnLXRuJywgJzgnLCAnLW1hJywgJzIwMCcsICctaW1hZScsICc8aW5maWxlLm1hZT4nLCAnLW9tYWUnLCAnPG91dGZpbGUubWFlPic=

>  <r_lp_tautomer_probability>  (274) 
1

>  <r_epik_Ionization_Penalty>  (274) 
0.00704578

>  <r_epik_Ionization_Penalty_Charging>  (274) 
0

>  <r_epik_Ionization_Penalty_Neutral>  (274) 
0.00704578

>  <r_epik_State_Penalty>  (274) 
-0

>  <r_epik_Charging_Adjusted_Penalty>  (274) 
0

>  <i_epik_Tot_Q>  (274) 
1

>  <i_epik_Tot_abs_Q>  (274) 
1

>  <s_lp_Force_Field>  (274) 
OPLS3e

>  <r_lp_Energy>  (274) 
6.66976

>  <b_lp_Chiralities_Consistent>  (274) 
1

>  <s_lp_Variant>  (274) 
76:0-1

>  <s_i_glide_gridfile>  (274) 
pfpi4k_grid

>  <i_i_glide_lignum>  (274) 
26

>  <i_i_glide_rotatable_bonds>  (274) 
4

>  <r_i_docking_score>  (274) 
-4.70137

>  <r_i_glide_ligand_efficiency>  (274) 
-0.361644

>  <r_i_glide_ligand_efficiency_sa>  (274) 
-0.850346

>  <r_i_glide_ligand_efficiency_ln>  (274) 
-1.31878

>  <r_i_glide_gscore>  (274) 
-4.70137

>  <r_i_glide_lipo>  (274) 
-0.107137

>  <r_i_glide_hbond>  (274) 
-0.318766

>  <r_i_glide_metal>  (274) 
-0

>  <r_i_glide_rewards>  (274) 
-2.52356

>  <r_i_glide_evdw>  (274) 
-10.1821

>  <r_i_glide_ecoul>  (274) 
-11.3507

>  <r_i_glide_erotb>  (274) 
0.459792

>  <r_i_glide_esite>  (274) 
0

>  <r_i_glide_emodel>  (274) 
-29.4099

>  <r_i_glide_energy>  (274) 
-21.5328

>  <r_i_glide_einternal>  (274) 
1.57397

>  <r_i_glide_intrahb_reward>  (274) 
-0

>  <i_i_glide_confnum>  (274) 
1

>  <i_i_glide_posenum>  (274) 
24

>  <r_i_glide_eff_state_penalty>  (274) 
0

>  <ligand_id>  (274) 
76

>  <original_smiles>  (274) 
NC1=NC2C(=N1)C(CO)C(O)C2O

>  <smiles>  (274) 
[H]OC([H])([H])C1([H])c2c(n([H])c(N([H])[H])[n+]2[H])C([H])(O[H])C1([H])O[H]

$$$$
76:0:1
     RDKit          3D

 25 26  0  0  1  0  0  0  0  0999 V2000
    3.8085    0.4320   -4.8950 N   0  0  0  0  0  0  0  0  0  0  0  0
    3.7492   -0.4283   -3.8874 C   0  0  0  0  0  0  0  0  0  0  0  0
    3.0147   -1.5410   -3.8494 N   0  0  0  0  0  0  0  0  0  0  0  0
    3.2657   -2.1536   -2.6456 C   0  0  0  0  0  0  0  0  0  0  0  0
    4.0729   -1.3712   -1.9376 C   0  0  0  0  0  0  0  0  0  0  0  0
    4.3975   -0.2931   -2.7113 N   0  0  0  0  0  0  0  0  0  0  0  0
    4.3509   -1.8497   -0.5654 C   0  0  1  0  0  0  0  0  0  0  0  0
    3.8677   -0.8345    0.4993 C   0  0  0  0  0  0  0  0  0  0  0  0
    4.8548    0.1313    0.7246 O   0  0  0  0  0  0  0  0  0  0  0  0
    3.5375   -3.2053   -0.5963 C   0  0  1  0  0  0  0  0  0  0  0  0
    2.6159   -3.2876    0.4715 O   0  0  0  0  0  0  0  0  0  0  0  0
    2.8367   -3.3698   -2.0006 C   0  0  1  0  0  0  0  0  0  0  0  0
    1.4264   -3.4426   -1.9136 O   0  0  0  0  0  0  0  0  0  0  0  0
    4.5732    1.1116   -4.9897 H   0  0  0  0  0  0  0  0  0  0  0  0
    3.0304    0.5325   -5.5525 H   0  0  0  0  0  0  0  0  0  0  0  0
    2.4076   -1.8768   -4.5993 H   0  0  0  0  0  0  0  0  0  0  0  0
    5.4202   -2.0477   -0.4625 H   0  0  0  0  0  0  0  0  0  0  0  0
    2.8894   -0.4090    0.2622 H   0  0  0  0  0  0  0  0  0  0  0  0
    3.7791   -1.2697    1.4879 H   0  0  0  0  0  0  0  0  0  0  0  0
    4.8856    0.7699    0.0164 H   0  0  0  0  0  0  0  0  0  0  0  0
    4.2466   -4.0195   -0.4648 H   0  0  0  0  0  0  0  0  0  0  0  0
    2.0488   -2.5323    0.4115 H   0  0  0  0  0  0  0  0  0  0  0  0
    3.2859   -4.1983   -2.5442 H   0  0  0  0  0  0  0  0  0  0  0  0
    1.1094   -2.6037   -1.5576 H   0  0  0  0  0  0  0  0  0  0  0  0
    4.9466    0.5237   -2.4392 H   0  0  0  0  0  0  0  0  0  0  0  0
  1  2  1  0
  1 14  1  0
  1 15  1  0
  2  3  1  0
  2  6  2  0
  3  4  1  0
  3 16  1  0
  4 12  1  0
  4  5  2  0
  5  6  1  0
  5  7  1  0
  6 25  1  0
  7  8  1  0
  7 10  1  0
  7 17  1  6
  8  9  1  0
  8 18  1  0
  8 19  1  0
  9 20  1  0
 10 11  1  0
 10 12  1  0
 10 21  1  1
 11 22  1  0
 12 13  1  0
 12 23  1  6
 13 24  1  0
M  CHG  1   6   1
M  END
>  <i_m_ct_stereo_status>  (275) 
1

>  <s_m_source_file>  (275) 
/var/tmp/pbs.5076255.sched01/tmp7zsp0c9b/86_oh4d05k.sdf

>  <i_m_source_file_index>  (275) 
26

>  <i_lp_mmshare_version>  (275) 
48012

>  <i_f3d_flags>  (275) 
0

>  <s_epik_input>  (275) 
W05IMl1DKD1OMSlOPUMoW0NAQEhdMTIpW0NAQEhdKFtDSDJdW09IXSlbQ0BASF0oW09IXSlbQ0BIXTJbT0hd

>  <s_epik_cmdline>  (275) 
J2VwaWtfcHl0aG9uJywgJy1waHQnLCAnMi4wJywgJy1waCcsICc3LjAnLCAnLXRuJywgJzgnLCAnLW1hJywgJzIwMCcsICctaW1hZScsICc8aW5maWxlLm1hZT4nLCAnLW9tYWUnLCAnPG91dGZpbGUubWFlPic=

>  <r_lp_tautomer_probability>  (275) 
1

>  <r_epik_Ionization_Penalty>  (275) 
0.00704578

>  <r_epik_Ionization_Penalty_Charging>  (275) 
0

>  <r_epik_Ionization_Penalty_Neutral>  (275) 
0.00704578

>  <r_epik_State_Penalty>  (275) 
-0

>  <r_epik_Charging_Adjusted_Penalty>  (275) 
0

>  <i_epik_Tot_Q>  (275) 
1

>  <i_epik_Tot_abs_Q>  (275) 
1

>  <s_lp_Force_Field>  (275) 
OPLS3e

>  <r_lp_Energy>  (275) 
6.66976

>  <b_lp_Chiralities_Consistent>  (275) 
1

>  <s_lp_Variant>  (275) 
76:0-1

>  <s_i_glide_gridfile>  (275) 
pfpi4k_grid

>  <i_i_glide_lignum>  (275) 
26

>  <i_i_glide_rotatable_bonds>  (275) 
4

>  <r_i_docking_score>  (275) 
-4.41738

>  <r_i_glide_ligand_efficiency>  (275) 
-0.339798

>  <r_i_glide_ligand_efficiency_sa>  (275) 
-0.798979

>  <r_i_glide_ligand_efficiency_ln>  (275) 
-1.23911

>  <r_i_glide_gscore>  (275) 
-4.41738

>  <r_i_glide_lipo>  (275) 
-0.109686

>  <r_i_glide_hbond>  (275) 
-0.349381

>  <r_i_glide_metal>  (275) 
-0

>  <r_i_glide_rewards>  (275) 
-2.50881

>  <r_i_glide_evdw>  (275) 
-10.1455

>  <r_i_glide_ecoul>  (275) 
-9.34675

>  <r_i_glide_erotb>  (275) 
0.459792

>  <r_i_glide_esite>  (275) 
0

>  <r_i_glide_emodel>  (275) 
-26.8672

>  <r_i_glide_energy>  (275) 
-19.4923

>  <r_i_glide_einternal>  (275) 
1.55506

>  <r_i_glide_intrahb_reward>  (275) 
-0

>  <i_i_glide_confnum>  (275) 
1

>  <i_i_glide_posenum>  (275) 
10

>  <r_i_glide_eff_state_penalty>  (275) 
0

>  <ligand_id>  (275) 
76

>  <original_smiles>  (275) 
NC1=NC2C(=N1)C(CO)C(O)C2O

>  <smiles>  (275) 
[H]OC([H])([H])C1([H])c2c(n([H])c(N([H])[H])[n+]2[H])C([H])(O[H])C1([H])O[H]

$$$$
76:0:2
     RDKit          3D

 25 26  0  0  1  0  0  0  0  0999 V2000
    3.5270   -0.6954    2.4407 N   0  0  0  0  0  0  0  0  0  0  0  0
    3.7063   -1.1876    1.2072 C   0  0  0  0  0  0  0  0  0  0  0  0
    4.2934   -0.5317    0.1906 N   0  0  0  0  0  0  0  0  0  0  0  0
    4.2812   -1.3542   -0.8823 C   0  0  0  0  0  0  0  0  0  0  0  0
    3.6353   -2.4740   -0.5558 C   0  0  0  0  0  0  0  0  0  0  0  0
    3.2947   -2.3857    0.7756 N   0  0  0  0  0  0  0  0  0  0  0  0
    3.4242   -3.4212   -1.6575 C   0  0  1  0  0  0  0  0  0  0  0  0
    1.9193   -3.6735   -1.9260 C   0  0  0  0  0  0  0  0  0  0  0  0
    1.4186   -4.6724   -1.1038 O   0  0  0  0  0  0  0  0  0  0  0  0
    4.2052   -2.6339   -2.8089 C   0  0  1  0  0  0  0  0  0  0  0  0
    3.4607   -2.4427   -4.0115 O   0  0  0  0  0  0  0  0  0  0  0  0
    4.7480   -1.2564   -2.2526 C   0  0  1  0  0  0  0  0  0  0  0  0
    4.2336   -0.1297   -2.9090 O   0  0  0  0  0  0  0  0  0  0  0  0
    3.3162   -1.3035    3.2293 H   0  0  0  0  0  0  0  0  0  0  0  0
    3.5479    0.3077    2.6277 H   0  0  0  0  0  0  0  0  0  0  0  0
    4.6824    0.3967    0.2288 H   0  0  0  0  0  0  0  0  0  0  0  0
    3.9658   -4.3383   -1.4062 H   0  0  0  0  0  0  0  0  0  0  0  0
    1.3544   -2.7479   -1.9440 H   0  0  0  0  0  0  0  0  0  0  0  0
    1.8049   -4.1211   -2.9047 H   0  0  0  0  0  0  0  0  0  0  0  0
    1.9217   -5.4355   -1.3739 H   0  0  0  0  0  0  0  0  0  0  0  0
    5.0581   -3.2595   -3.0923 H   0  0  0  0  0  0  0  0  0  0  0  0
    2.6323   -2.0446   -3.7872 H   0  0  0  0  0  0  0  0  0  0  0  0
    5.8368   -1.2500   -2.2622 H   0  0  0  0  0  0  0  0  0  0  0  0
    3.2827   -0.1359   -2.9053 H   0  0  0  0  0  0  0  0  0  0  0  0
    2.7410   -3.0361    1.3201 H   0  0  0  0  0  0  0  0  0  0  0  0
  1  2  1  0
  1 14  1  0
  1 15  1  0
  2  3  1  0
  2  6  2  0
  3  4  1  0
  3 16  1  0
  4 12  1  0
  4  5  2  0
  5  6  1  0
  5  7  1  0
  6 25  1  0
  7  8  1  0
  7 10  1  0
  7 17  1  1
  8  9  1  0
  8 18  1  0
  8 19  1  0
  9 20  1  0
 10 11  1  0
 10 12  1  0
 10 21  1  6
 11 22  1  0
 12 13  1  0
 12 23  1  1
 13 24  1  0
M  CHG  1   6   1
M  END
>  <i_m_ct_stereo_status>  (276) 
1

>  <s_m_source_file>  (276) 
/var/tmp/pbs.5076255.sched01/tmp7zsp0c9b/86_oh4d05k.sdf

>  <i_m_source_file_index>  (276) 
26

>  <i_lp_mmshare_version>  (276) 
48012

>  <i_f3d_flags>  (276) 
0

>  <s_epik_input>  (276) 
W05IMl1DKD1OMSlOPUMoW0NAQEhdMTIpW0NAQEhdKFtDSDJdW09IXSlbQ0BASF0oW09IXSlbQ0BIXTJbT0hd

>  <s_epik_cmdline>  (276) 
J2VwaWtfcHl0aG9uJywgJy1waHQnLCAnMi4wJywgJy1waCcsICc3LjAnLCAnLXRuJywgJzgnLCAnLW1hJywgJzIwMCcsICctaW1hZScsICc8aW5maWxlLm1hZT4nLCAnLW9tYWUnLCAnPG91dGZpbGUubWFlPic=

>  <r_lp_tautomer_probability>  (276) 
1

>  <r_epik_Ionization_Penalty>  (276) 
0.00704578

>  <r_epik_Ionization_Penalty_Charging>  (276) 
0

>  <r_epik_Ionization_Penalty_Neutral>  (276) 
0.00704578

>  <r_epik_State_Penalty>  (276) 
-0

>  <r_epik_Charging_Adjusted_Penalty>  (276) 
0

>  <i_epik_Tot_Q>  (276) 
1

>  <i_epik_Tot_abs_Q>  (276) 
1

>  <s_lp_Force_Field>  (276) 
OPLS3e

>  <r_lp_Energy>  (276) 
6.66976

>  <b_lp_Chiralities_Consistent>  (276) 
1

>  <s_lp_Variant>  (276) 
76:0-1

>  <s_i_glide_gridfile>  (276) 
pfpi4k_grid

>  <i_i_glide_lignum>  (276) 
26

>  <i_i_glide_rotatable_bonds>  (276) 
4

>  <r_i_docking_score>  (276) 
-4.21768

>  <r_i_glide_ligand_efficiency>  (276) 
-0.324437

>  <r_i_glide_ligand_efficiency_sa>  (276) 
-0.762859

>  <r_i_glide_ligand_efficiency_ln>  (276) 
-1.1831

>  <r_i_glide_gscore>  (276) 
-4.21768

>  <r_i_glide_lipo>  (276) 
-0.172327

>  <r_i_glide_hbond>  (276) 
-0.300869

>  <r_i_glide_metal>  (276) 
-0

>  <r_i_glide_rewards>  (276) 
-2.13962

>  <r_i_glide_evdw>  (276) 
-10.6505

>  <r_i_glide_ecoul>  (276) 
-9.878

>  <r_i_glide_erotb>  (276) 
0.459792

>  <r_i_glide_esite>  (276) 
-0.0504232

>  <r_i_glide_emodel>  (276) 
-28.1657

>  <r_i_glide_energy>  (276) 
-20.5285

>  <r_i_glide_einternal>  (276) 
1.24716

>  <r_i_glide_intrahb_reward>  (276) 
-0

>  <i_i_glide_confnum>  (276) 
4

>  <i_i_glide_posenum>  (276) 
17

>  <r_i_glide_eff_state_penalty>  (276) 
0

>  <ligand_id>  (276) 
76

>  <original_smiles>  (276) 
NC1=NC2C(=N1)C(CO)C(O)C2O

>  <smiles>  (276) 
[H]OC([H])([H])C1([H])c2c(n([H])c(N([H])[H])[n+]2[H])C([H])(O[H])C1([H])O[H]

$$$$
77:0:0
     RDKit          3D

 42 47  0  0  1  0  0  0  0  0999 V2000
    1.9713   -4.2050   -0.5030 O   0  0  0  0  0  0  0  0  0  0  0  0
    3.1357   -4.2729   -0.0781 C   0  0  0  0  0  0  0  0  0  0  0  0
    4.2551   -3.6570   -0.8064 C   0  0  0  0  0  0  0  0  0  0  0  0
    3.9896   -2.7002   -1.8719 C   0  0  0  0  0  0  0  0  0  0  0  0
    4.6217   -1.5255   -1.9586 N   0  0  0  0  0  0  0  0  0  0  0  0
    4.2059   -0.7996   -3.0690 C   0  0  0  0  0  0  0  0  0  0  0  0
    3.2980   -1.4711   -3.8506 C   0  0  0  0  0  0  0  0  0  0  0  0
    2.8672   -3.0223   -3.1994 S   0  0  0  0  0  0  0  0  0  0  0  0
    5.5689   -3.8791   -0.4312 C   0  0  0  0  0  0  0  0  0  0  0  0
    5.7315   -4.6898    0.6918 N   0  0  0  0  0  0  0  0  0  0  0  0
    6.8742   -5.1459    1.2608 C   0  0  0  0  0  0  0  0  0  0  0  0
    8.2971   -5.0796    1.0788 C   0  0  0  0  0  0  0  0  0  0  0  0
    8.8861   -5.8310    2.0997 C   0  0  0  0  0  0  0  0  0  0  0  0
    7.7878   -6.5896    3.2507 S   0  0  0  0  0  0  0  0  0  0  0  0
    6.5396   -5.8418    2.3856 C   0  0  0  0  0  0  0  0  0  0  0  0
    5.2405   -5.7936    2.5740 N   0  0  0  0  0  0  0  0  0  0  0  0
    4.7811   -5.1506    1.4776 C   0  0  0  0  0  0  0  0  0  0  0  0
    3.3972   -4.9473    1.0814 N   0  0  0  0  0  0  0  0  0  0  0  0
    2.2825   -5.5058    1.8808 C   0  0  2  0  0  0  0  0  0  0  0  0
    2.4061   -5.2511    3.3837 C   0  0  0  0  0  0  0  0  0  0  0  0
    2.4452   -6.6809    3.9763 C   0  0  1  0  0  0  0  0  0  0  0  0
    1.0180   -7.1530    4.3142 C   0  0  0  0  0  0  0  0  0  0  0  0
    0.1602   -7.0347    3.1568 O   0  0  0  0  0  0  0  0  0  0  0  0
    0.6957   -7.5340    1.9137 C   0  0  0  0  0  0  0  0  0  0  0  0
    2.1503   -7.0463    1.7324 C   0  0  2  0  0  0  0  0  0  0  0  0
    2.9106   -7.6538    2.8866 C   0  0  0  0  0  0  0  0  0  0  0  0
    4.6183    0.1793   -3.2347 H   0  0  0  0  0  0  0  0  0  0  0  0
    2.8102   -1.1558   -4.7592 H   0  0  0  0  0  0  0  0  0  0  0  0
    6.4577   -3.4492   -0.8535 H   0  0  0  0  0  0  0  0  0  0  0  0
    8.7601   -4.4956    0.2946 H   0  0  0  0  0  0  0  0  0  0  0  0
    9.9354   -6.0054    2.2997 H   0  0  0  0  0  0  0  0  0  0  0  0
    1.3134   -5.0793    1.6080 H   0  0  0  0  0  0  0  0  0  0  0  0
    3.2952   -4.6841    3.6286 H   0  0  0  0  0  0  0  0  0  0  0  0
    1.5971   -4.6207    3.7725 H   0  0  0  0  0  0  0  0  0  0  0  0
    3.0871   -6.6995    4.8591 H   0  0  0  0  0  0  0  0  0  0  0  0
    1.0684   -8.1854    4.6796 H   0  0  0  0  0  0  0  0  0  0  0  0
    0.5944   -6.5526    5.1270 H   0  0  0  0  0  0  0  0  0  0  0  0
    0.6871   -8.6319    1.8884 H   0  0  0  0  0  0  0  0  0  0  0  0
    0.0464   -7.2067    1.0915 H   0  0  0  0  0  0  0  0  0  0  0  0
    2.5335   -7.3719    0.7712 H   0  0  0  0  0  0  0  0  0  0  0  0
    3.9504   -7.6998    2.6871 H   0  0  0  0  0  0  0  0  0  0  0  0
    2.6600   -8.6975    3.0888 H   0  0  0  0  0  0  0  0  0  0  0  0
  1  2  2  0
  2 18  1  0
  2  3  1  0
  3  4  1  0
  3  9  2  0
  4  8  1  0
  4  5  2  0
  5  6  1  0
  6  7  2  0
  6 27  1  0
  7  8  1  0
  7 28  1  0
  9 10  1  0
  9 29  1  0
 10 17  1  0
 10 11  1  0
 11 15  2  0
 11 12  1  0
 12 13  2  0
 12 30  1  0
 13 14  1  0
 13 31  1  0
 14 15  1  0
 15 16  1  0
 16 17  2  0
 17 18  1  0
 18 19  1  0
 19 25  1  0
 19 20  1  0
 19 32  1  6
 20 21  1  0
 20 33  1  0
 20 34  1  0
 21 26  1  0
 21 22  1  0
 21 35  1  1
 22 23  1  0
 22 36  1  0
 22 37  1  0
 23 24  1  0
 24 25  1  0
 24 38  1  0
 24 39  1  0
 25 26  1  0
 25 40  1  6
 26 41  1  0
 26 42  1  0
M  END
>  <i_m_ct_stereo_status>  (277) 
1

>  <s_m_source_file>  (277) 
/var/tmp/pbs.5076255.sched01/tmp7zsp0c9b/86_oh4d05k.sdf

>  <i_m_source_file_index>  (277) 
27

>  <i_lp_mmshare_version>  (277) 
48012

>  <i_f3d_flags>  (277) 
0

>  <s_epik_input>  (277) 
czFbY0hdW2NIXW5jMS1jKFtjSF0yKWMoPU8pbihbQ0BIXShbQ0gyXVtDQEBIXTM0KVtDQEBIXShbQ0gyXTQpW0NIMl1PW0NIMl0zKWM1bmMoYzZuMjUpc1tjSF1bY0hdNg==

>  <s_epik_cmdline>  (277) 
J2VwaWtfcHl0aG9uJywgJy1waHQnLCAnMi4wJywgJy1waCcsICc3LjAnLCAnLXRuJywgJzgnLCAnLW1hJywgJzIwMCcsICctaW1hZScsICc8aW5maWxlLm1hZT4nLCAnLW9tYWUnLCAnPG91dGZpbGUubWFlPic=

>  <r_epik_Ionization_Penalty>  (277) 
0.00192777

>  <r_epik_Ionization_Penalty_Charging>  (277) 
0.0019037

>  <r_epik_Ionization_Penalty_Neutral>  (277) 
2.40725e-05

>  <r_epik_State_Penalty>  (277) 
0.00129608

>  <r_epik_Charging_Adjusted_Penalty>  (277) 
0.00319977

>  <i_epik_Tot_Q>  (277) 
0

>  <i_epik_Tot_abs_Q>  (277) 
0

>  <s_lp_Force_Field>  (277) 
OPLS3e

>  <r_lp_Energy>  (277) 
51.0128

>  <b_lp_Chiralities_Consistent>  (277) 
1

>  <s_lp_Variant>  (277) 
77:0-1

>  <s_i_glide_gridfile>  (277) 
pfpi4k_grid

>  <i_i_glide_lignum>  (277) 
27

>  <i_i_glide_rotatable_bonds>  (277) 
2

>  <r_i_docking_score>  (277) 
-3.20616

>  <r_i_glide_ligand_efficiency>  (277) 
-0.123314

>  <r_i_glide_ligand_efficiency_sa>  (277) 
-0.365316

>  <r_i_glide_ligand_efficiency_ln>  (277) 
-0.752955

>  <r_i_glide_gscore>  (277) 
-3.20616

>  <r_i_glide_lipo>  (277) 
-0.629408

>  <r_i_glide_hbond>  (277) 
0

>  <r_i_glide_metal>  (277) 
-0

>  <r_i_glide_rewards>  (277) 
-0.951648

>  <r_i_glide_evdw>  (277) 
-32.621

>  <r_i_glide_ecoul>  (277) 
-1.70023

>  <r_i_glide_erotb>  (277) 
0.263058

>  <r_i_glide_esite>  (277) 
-0.00207317

>  <r_i_glide_emodel>  (277) 
-39.4293

>  <r_i_glide_energy>  (277) 
-34.3212

>  <r_i_glide_einternal>  (277) 
1.3198

>  <r_i_glide_intrahb_reward>  (277) 
-0

>  <i_i_glide_confnum>  (277) 
3

>  <i_i_glide_posenum>  (277) 
8

>  <r_i_glide_eff_state_penalty>  (277) 
0

>  <ligand_id>  (277) 
77

>  <original_smiles>  (277) 
O=c1c(-c2nccs2)cn2c3ccsc3nc2n1C1CC2COCC1C2

>  <smiles>  (277) 
[H]c1nc(-c2c([H])n3c4c([H])c([H])sc4nc3n(C3([H])C([H])([H])C4([H])C([H])([H])OC([H])([H])C3([H])C4([H])[H])c2=O)sc1[H]

$$$$
77:0:1
     RDKit          3D

 42 47  0  0  1  0  0  0  0  0999 V2000
    1.6725   -5.5658    0.4997 O   0  0  0  0  0  0  0  0  0  0  0  0
    2.7930   -5.7659    0.9721 C   0  0  0  0  0  0  0  0  0  0  0  0
    4.0447   -5.1967    0.3603 C   0  0  0  0  0  0  0  0  0  0  0  0
    3.9626   -4.1406   -0.6565 C   0  0  0  0  0  0  0  0  0  0  0  0
    2.8585   -3.4351   -0.9253 N   0  0  0  0  0  0  0  0  0  0  0  0
    3.0426   -2.5169   -1.9633 C   0  0  0  0  0  0  0  0  0  0  0  0
    4.3255   -2.5000   -2.4451 C   0  0  0  0  0  0  0  0  0  0  0  0
    5.3481   -3.6386   -1.6386 S   0  0  0  0  0  0  0  0  0  0  0  0
    5.2806   -5.6696    0.7273 C   0  0  0  0  0  0  0  0  0  0  0  0
    5.3045   -6.5792    1.7674 N   0  0  0  0  0  0  0  0  0  0  0  0
    6.3459   -7.2113    2.3201 C   0  0  0  0  0  0  0  0  0  0  0  0
    7.7658   -7.3144    2.1792 C   0  0  0  0  0  0  0  0  0  0  0  0
    8.2289   -8.2152    3.1515 C   0  0  0  0  0  0  0  0  0  0  0  0
    7.0034   -8.9177    4.2041 S   0  0  0  0  0  0  0  0  0  0  0  0
    5.8559   -7.9568    3.3767 C   0  0  0  0  0  0  0  0  0  0  0  0
    4.5736   -7.7983    3.5165 N   0  0  0  0  0  0  0  0  0  0  0  0
    4.2251   -6.9825    2.4822 C   0  0  0  0  0  0  0  0  0  0  0  0
    2.9431   -6.5434    2.0689 N   0  0  0  0  0  0  0  0  0  0  0  0
    1.7071   -7.0212    2.7813 C   0  0  2  0  0  0  0  0  0  0  0  0
    1.8271   -6.9686    4.3043 C   0  0  0  0  0  0  0  0  0  0  0  0
    1.6467   -8.4562    4.7092 C   0  0  1  0  0  0  0  0  0  0  0  0
    0.1555   -8.7393    4.9737 C   0  0  0  0  0  0  0  0  0  0  0  0
   -0.6484   -8.3351    3.8320 O   0  0  0  0  0  0  0  0  0  0  0  0
   -0.1570   -8.7712    2.5390 C   0  0  0  0  0  0  0  0  0  0  0  0
    1.3617   -8.5005    2.4176 C   0  0  2  0  0  0  0  0  0  0  0  0
    2.0001   -9.3463    3.5019 C   0  0  0  0  0  0  0  0  0  0  0  0
    2.2180   -1.9100   -2.2862 H   0  0  0  0  0  0  0  0  0  0  0  0
    4.7396   -1.8803   -3.2239 H   0  0  0  0  0  0  0  0  0  0  0  0
    6.2469   -5.3499    0.3627 H   0  0  0  0  0  0  0  0  0  0  0  0
    8.3413   -6.7476    1.4569 H   0  0  0  0  0  0  0  0  0  0  0  0
    9.2512   -8.5220    3.3387 H   0  0  0  0  0  0  0  0  0  0  0  0
    0.8368   -6.4044    2.5518 H   0  0  0  0  0  0  0  0  0  0  0  0
    2.7681   -6.5550    4.6457 H   0  0  0  0  0  0  0  0  0  0  0  0
    1.0900   -6.2866    4.7508 H   0  0  0  0  0  0  0  0  0  0  0  0
    2.2499   -8.6777    5.5897 H   0  0  0  0  0  0  0  0  0  0  0  0
    0.0298   -9.8048    5.1998 H   0  0  0  0  0  0  0  0  0  0  0  0
   -0.1998   -8.1772    5.8390 H   0  0  0  0  0  0  0  0  0  0  0  0
   -0.3349   -9.8416    2.3909 H   0  0  0  0  0  0  0  0  0  0  0  0
   -0.7247   -8.2428    1.7704 H   0  0  0  0  0  0  0  0  0  0  0  0
    1.6953   -8.7614    1.4093 H   0  0  0  0  0  0  0  0  0  0  0  0
    3.0563   -9.4991    3.3044 H   0  0  0  0  0  0  0  0  0  0  0  0
    1.5656  -10.3451    3.5784 H   0  0  0  0  0  0  0  0  0  0  0  0
  1  2  2  0
  2 18  1  0
  2  3  1  0
  3  4  1  0
  3  9  2  0
  4  8  1  0
  4  5  2  0
  5  6  1  0
  6  7  2  0
  6 27  1  0
  7  8  1  0
  7 28  1  0
  9 10  1  0
  9 29  1  0
 10 17  1  0
 10 11  1  0
 11 15  2  0
 11 12  1  0
 12 13  2  0
 12 30  1  0
 13 14  1  0
 13 31  1  0
 14 15  1  0
 15 16  1  0
 16 17  2  0
 17 18  1  0
 18 19  1  0
 19 25  1  0
 19 20  1  0
 19 32  1  6
 20 21  1  0
 20 33  1  0
 20 34  1  0
 21 26  1  0
 21 22  1  0
 21 35  1  1
 22 23  1  0
 22 36  1  0
 22 37  1  0
 23 24  1  0
 24 25  1  0
 24 38  1  0
 24 39  1  0
 25 26  1  0
 25 40  1  6
 26 41  1  0
 26 42  1  0
M  END
>  <i_m_ct_stereo_status>  (278) 
1

>  <s_m_source_file>  (278) 
/var/tmp/pbs.5076255.sched01/tmp7zsp0c9b/86_oh4d05k.sdf

>  <i_m_source_file_index>  (278) 
27

>  <i_lp_mmshare_version>  (278) 
48012

>  <i_f3d_flags>  (278) 
0

>  <s_epik_input>  (278) 
czFbY0hdW2NIXW5jMS1jKFtjSF0yKWMoPU8pbihbQ0BIXShbQ0gyXVtDQEBIXTM0KVtDQEBIXShbQ0gyXTQpW0NIMl1PW0NIMl0zKWM1bmMoYzZuMjUpc1tjSF1bY0hdNg==

>  <s_epik_cmdline>  (278) 
J2VwaWtfcHl0aG9uJywgJy1waHQnLCAnMi4wJywgJy1waCcsICc3LjAnLCAnLXRuJywgJzgnLCAnLW1hJywgJzIwMCcsICctaW1hZScsICc8aW5maWxlLm1hZT4nLCAnLW9tYWUnLCAnPG91dGZpbGUubWFlPic=

>  <r_epik_Ionization_Penalty>  (278) 
0.00192777

>  <r_epik_Ionization_Penalty_Charging>  (278) 
0.0019037

>  <r_epik_Ionization_Penalty_Neutral>  (278) 
2.40725e-05

>  <r_epik_State_Penalty>  (278) 
0.00129608

>  <r_epik_Charging_Adjusted_Penalty>  (278) 
0.00319977

>  <i_epik_Tot_Q>  (278) 
0

>  <i_epik_Tot_abs_Q>  (278) 
0

>  <s_lp_Force_Field>  (278) 
OPLS3e

>  <r_lp_Energy>  (278) 
51.0128

>  <b_lp_Chiralities_Consistent>  (278) 
1

>  <s_lp_Variant>  (278) 
77:0-1

>  <s_i_glide_gridfile>  (278) 
pfpi4k_grid

>  <i_i_glide_lignum>  (278) 
27

>  <i_i_glide_rotatable_bonds>  (278) 
2

>  <r_i_docking_score>  (278) 
-2.84187

>  <r_i_glide_ligand_efficiency>  (278) 
-0.109303

>  <r_i_glide_ligand_efficiency_sa>  (278) 
-0.323808

>  <r_i_glide_ligand_efficiency_ln>  (278) 
-0.667403

>  <r_i_glide_gscore>  (278) 
-2.84187

>  <r_i_glide_lipo>  (278) 
-0.288878

>  <r_i_glide_hbond>  (278) 
-0.121178

>  <r_i_glide_metal>  (278) 
-0

>  <r_i_glide_rewards>  (278) 
-0.871409

>  <r_i_glide_evdw>  (278) 
-29.1204

>  <r_i_glide_ecoul>  (278) 
-2.44959

>  <r_i_glide_erotb>  (278) 
0.263058

>  <r_i_glide_esite>  (278) 
0

>  <r_i_glide_emodel>  (278) 
-36.5035

>  <r_i_glide_energy>  (278) 
-31.57

>  <r_i_glide_einternal>  (278) 
0.389894

>  <r_i_glide_intrahb_reward>  (278) 
-0

>  <i_i_glide_confnum>  (278) 
5

>  <i_i_glide_posenum>  (278) 
25

>  <r_i_glide_eff_state_penalty>  (278) 
0

>  <ligand_id>  (278) 
77

>  <original_smiles>  (278) 
O=c1c(-c2nccs2)cn2c3ccsc3nc2n1C1CC2COCC1C2

>  <smiles>  (278) 
[H]c1nc(-c2c([H])n3c4c([H])c([H])sc4nc3n(C3([H])C([H])([H])C4([H])C([H])([H])OC([H])([H])C3([H])C4([H])[H])c2=O)sc1[H]

$$$$
77:0:2
     RDKit          3D

 42 47  0  0  1  0  0  0  0  0999 V2000
    1.3554   -4.2555    3.9436 O   0  0  0  0  0  0  0  0  0  0  0  0
    1.9051   -4.1365    2.8463 C   0  0  0  0  0  0  0  0  0  0  0  0
    2.1161   -5.3281    1.9516 C   0  0  0  0  0  0  0  0  0  0  0  0
    1.4876   -6.5979    2.2857 C   0  0  0  0  0  0  0  0  0  0  0  0
    0.2069   -6.7072    2.6710 N   0  0  0  0  0  0  0  0  0  0  0  0
   -0.1412   -8.0402    2.9332 C   0  0  0  0  0  0  0  0  0  0  0  0
    0.8774   -8.9079    2.6469 C   0  0  0  0  0  0  0  0  0  0  0  0
    2.3168   -8.1241    2.0850 S   0  0  0  0  0  0  0  0  0  0  0  0
    2.9165   -5.2428    0.8456 C   0  0  0  0  0  0  0  0  0  0  0  0
    3.3923   -3.9776    0.5321 N   0  0  0  0  0  0  0  0  0  0  0  0
    4.2102   -3.5728   -0.4557 C   0  0  0  0  0  0  0  0  0  0  0  0
    4.9426   -4.1428   -1.5691 C   0  0  0  0  0  0  0  0  0  0  0  0
    5.6103   -3.0972   -2.2156 C   0  0  0  0  0  0  0  0  0  0  0  0
    5.3667   -1.4919   -1.5231 S   0  0  0  0  0  0  0  0  0  0  0  0
    4.3291   -2.2216   -0.4153 C   0  0  0  0  0  0  0  0  0  0  0  0
    3.6126   -1.7408    0.5940 N   0  0  0  0  0  0  0  0  0  0  0  0
    3.0858   -2.8450    1.1745 C   0  0  0  0  0  0  0  0  0  0  0  0
    2.3209   -2.9305    2.3854 N   0  0  0  0  0  0  0  0  0  0  0  0
    1.9970   -1.7029    3.1885 C   0  0  2  0  0  0  0  0  0  0  0  0
    1.5350   -0.5118    2.3458 C   0  0  0  0  0  0  0  0  0  0  0  0
    2.6267    0.5507    2.6329 C   0  0  1  0  0  0  0  0  0  0  0  0
    2.1803    1.4160    3.8374 C   0  0  0  0  0  0  0  0  0  0  0  0
    1.8737    0.5819    4.9645 O   0  0  0  0  0  0  0  0  0  0  0  0
    2.8171   -0.4526    5.2717 C   0  0  0  0  0  0  0  0  0  0  0  0
    3.2376   -1.2063    3.9800 C   0  0  2  0  0  0  0  0  0  0  0  0
    3.9044   -0.1434    3.1308 C   0  0  0  0  0  0  0  0  0  0  0  0
   -1.1229   -8.2680    3.3006 H   0  0  0  0  0  0  0  0  0  0  0  0
    0.8798   -9.9787    2.7172 H   0  0  0  0  0  0  0  0  0  0  0  0
    3.1494   -6.0274    0.1180 H   0  0  0  0  0  0  0  0  0  0  0  0
    4.8869   -5.1897   -1.8315 H   0  0  0  0  0  0  0  0  0  0  0  0
    6.2311   -3.1365   -3.0937 H   0  0  0  0  0  0  0  0  0  0  0  0
    1.1724   -1.8553    3.8972 H   0  0  0  0  0  0  0  0  0  0  0  0
    1.4592   -0.7273    1.2859 H   0  0  0  0  0  0  0  0  0  0  0  0
    0.5076   -0.1974    2.5765 H   0  0  0  0  0  0  0  0  0  0  0  0
    2.7851    1.1762    1.7560 H   0  0  0  0  0  0  0  0  0  0  0  0
    2.9776    2.1378    4.0710 H   0  0  0  0  0  0  0  0  0  0  0  0
    1.2800    1.9968    3.5931 H   0  0  0  0  0  0  0  0  0  0  0  0
    3.7194   -0.0363    5.7489 H   0  0  0  0  0  0  0  0  0  0  0  0
    2.3562   -1.1278    6.0063 H   0  0  0  0  0  0  0  0  0  0  0  0
    3.9023   -2.0248    4.2556 H   0  0  0  0  0  0  0  0  0  0  0  0
    4.5332   -0.5852    2.3926 H   0  0  0  0  0  0  0  0  0  0  0  0
    4.5634    0.5283    3.6928 H   0  0  0  0  0  0  0  0  0  0  0  0
  1  2  2  0
  2 18  1  0
  2  3  1  0
  3  4  1  0
  3  9  2  0
  4  8  1  0
  4  5  2  0
  5  6  1  0
  6  7  2  0
  6 27  1  0
  7  8  1  0
  7 28  1  0
  9 10  1  0
  9 29  1  0
 10 17  1  0
 10 11  1  0
 11 15  2  0
 11 12  1  0
 12 13  2  0
 12 30  1  0
 13 14  1  0
 13 31  1  0
 14 15  1  0
 15 16  1  0
 16 17  2  0
 17 18  1  0
 18 19  1  0
 19 25  1  0
 19 20  1  0
 19 32  1  1
 20 21  1  0
 20 33  1  0
 20 34  1  0
 21 26  1  0
 21 22  1  0
 21 35  1  6
 22 23  1  0
 22 36  1  0
 22 37  1  0
 23 24  1  0
 24 25  1  0
 24 38  1  0
 24 39  1  0
 25 26  1  0
 25 40  1  1
 26 41  1  0
 26 42  1  0
M  END
>  <i_m_ct_stereo_status>  (279) 
1

>  <s_m_source_file>  (279) 
/var/tmp/pbs.5076255.sched01/tmp7zsp0c9b/86_oh4d05k.sdf

>  <i_m_source_file_index>  (279) 
27

>  <i_lp_mmshare_version>  (279) 
48012

>  <i_f3d_flags>  (279) 
0

>  <s_epik_input>  (279) 
czFbY0hdW2NIXW5jMS1jKFtjSF0yKWMoPU8pbihbQ0BIXShbQ0gyXVtDQEBIXTM0KVtDQEBIXShbQ0gyXTQpW0NIMl1PW0NIMl0zKWM1bmMoYzZuMjUpc1tjSF1bY0hdNg==

>  <s_epik_cmdline>  (279) 
J2VwaWtfcHl0aG9uJywgJy1waHQnLCAnMi4wJywgJy1waCcsICc3LjAnLCAnLXRuJywgJzgnLCAnLW1hJywgJzIwMCcsICctaW1hZScsICc8aW5maWxlLm1hZT4nLCAnLW9tYWUnLCAnPG91dGZpbGUubWFlPic=

>  <r_epik_Ionization_Penalty>  (279) 
0.00192777

>  <r_epik_Ionization_Penalty_Charging>  (279) 
0.0019037

>  <r_epik_Ionization_Penalty_Neutral>  (279) 
2.40725e-05

>  <r_epik_State_Penalty>  (279) 
0.00129608

>  <r_epik_Charging_Adjusted_Penalty>  (279) 
0.00319977

>  <i_epik_Tot_Q>  (279) 
0

>  <i_epik_Tot_abs_Q>  (279) 
0

>  <s_lp_Force_Field>  (279) 
OPLS3e

>  <r_lp_Energy>  (279) 
51.0128

>  <b_lp_Chiralities_Consistent>  (279) 
1

>  <s_lp_Variant>  (279) 
77:0-1

>  <s_i_glide_gridfile>  (279) 
pfpi4k_grid

>  <i_i_glide_lignum>  (279) 
27

>  <i_i_glide_rotatable_bonds>  (279) 
2

>  <r_i_docking_score>  (279) 
-2.662

>  <r_i_glide_ligand_efficiency>  (279) 
-0.102385

>  <r_i_glide_ligand_efficiency_sa>  (279) 
-0.303314

>  <r_i_glide_ligand_efficiency_ln>  (279) 
-0.625161

>  <r_i_glide_gscore>  (279) 
-2.662

>  <r_i_glide_lipo>  (279) 
-0.206998

>  <r_i_glide_hbond>  (279) 
-0.0632352

>  <r_i_glide_metal>  (279) 
-0

>  <r_i_glide_rewards>  (279) 
-0.787655

>  <r_i_glide_evdw>  (279) 
-29.5509

>  <r_i_glide_ecoul>  (279) 
-2.4344

>  <r_i_glide_erotb>  (279) 
0.263058

>  <r_i_glide_esite>  (279) 
-0.0244626

>  <r_i_glide_emodel>  (279) 
-36.4321

>  <r_i_glide_energy>  (279) 
-31.9853

>  <r_i_glide_einternal>  (279) 
0.154414

>  <r_i_glide_intrahb_reward>  (279) 
-0

>  <i_i_glide_confnum>  (279) 
2

>  <i_i_glide_posenum>  (279) 
3

>  <r_i_glide_eff_state_penalty>  (279) 
0

>  <ligand_id>  (279) 
77

>  <original_smiles>  (279) 
O=c1c(-c2nccs2)cn2c3ccsc3nc2n1C1CC2COCC1C2

>  <smiles>  (279) 
[H]c1nc(-c2c([H])n3c4c([H])c([H])sc4nc3n(C3([H])C([H])([H])C4([H])C([H])([H])OC([H])([H])C3([H])C4([H])[H])c2=O)sc1[H]

$$$$
77:1:0
     RDKit          3D

 42 47  0  0  1  0  0  0  0  0999 V2000
    1.0581   -6.2546    0.7023 O   0  0  0  0  0  0  0  0  0  0  0  0
    2.0565   -6.8099    1.2313 C   0  0  0  0  0  0  0  0  0  0  0  0
    3.4220   -6.3570    0.9375 C   0  0  0  0  0  0  0  0  0  0  0  0
    3.6556   -5.0860    0.2622 C   0  0  0  0  0  0  0  0  0  0  0  0
    2.7125   -4.1489    0.0997 N   0  0  0  0  0  0  0  0  0  0  0  0
    3.1875   -3.0304   -0.5782 C   0  0  0  0  0  0  0  0  0  0  0  0
    4.5105   -3.1134   -0.8692 C   0  0  0  0  0  0  0  0  0  0  0  0
    5.2343   -4.6028   -0.3344 S   0  0  0  0  0  0  0  0  0  0  0  0
    4.4903   -7.1615    1.2126 C   0  0  0  0  0  0  0  0  0  0  0  0
    4.1982   -8.3778    1.8404 N   0  0  0  0  0  0  0  0  0  0  0  0
    5.0481   -9.3255    2.2477 C   0  0  0  0  0  0  0  0  0  0  0  0
    6.4615   -9.6558    2.2117 C   0  0  0  0  0  0  0  0  0  0  0  0
    6.6449  -10.8747    2.8480 C   0  0  0  0  0  0  0  0  0  0  0  0
    5.1846  -11.6419    3.4985 S   0  0  0  0  0  0  0  0  0  0  0  0
    4.3217  -10.3369    2.8269 C   0  0  0  0  0  0  0  0  0  0  0  0
    2.9996  -10.0889    2.7072 N   0  0  0  0  0  0  0  0  0  0  0  0
    3.0091   -8.8283    2.1594 C   0  0  0  0  0  0  0  0  0  0  0  0
    1.8806   -7.9141    1.9931 N   0  0  0  0  0  0  0  0  0  0  0  0
    0.5271   -8.2283    2.5149 C   0  0  2  0  0  0  0  0  0  0  0  0
   -0.3558   -6.9808    2.8981 C   0  0  0  0  0  0  0  0  0  0  0  0
   -0.7989   -7.1609    4.3248 C   0  0  2  0  0  0  0  0  0  0  0  0
    0.2660   -6.6347    5.3127 C   0  0  0  0  0  0  0  0  0  0  0  0
    1.5260   -7.2241    5.0738 O   0  0  0  0  0  0  0  0  0  0  0  0
    1.5320   -8.6256    4.9029 C   0  0  0  0  0  0  0  0  0  0  0  0
    0.4768   -9.0443    3.8240 C   0  0  1  0  0  0  0  0  0  0  0  0
   -0.8664   -8.6566    4.4344 C   0  0  0  0  0  0  0  0  0  0  0  0
    2.4917   -2.2365   -0.7831 H   0  0  0  0  0  0  0  0  0  0  0  0
    5.1282   -2.3889   -1.3661 H   0  0  0  0  0  0  0  0  0  0  0  0
    5.5232   -6.9928    0.9751 H   0  0  0  0  0  0  0  0  0  0  0  0
    7.1890   -9.0394    1.6987 H   0  0  0  0  0  0  0  0  0  0  0  0
    7.5786  -11.4126    2.9613 H   0  0  0  0  0  0  0  0  0  0  0  0
    0.0144   -8.7596    1.7096 H   0  0  0  0  0  0  0  0  0  0  0  0
    0.1408   -6.0122    2.9151 H   0  0  0  0  0  0  0  0  0  0  0  0
   -1.1953   -6.9029    2.2095 H   0  0  0  0  0  0  0  0  0  0  0  0
   -1.7459   -6.6650    4.5052 H   0  0  0  0  0  0  0  0  0  0  0  0
    0.3753   -5.5444    5.2426 H   0  0  0  0  0  0  0  0  0  0  0  0
   -0.0224   -6.8588    6.3393 H   0  0  0  0  0  0  0  0  0  0  0  0
    2.5829   -8.8289    4.6868 H   0  0  0  0  0  0  0  0  0  0  0  0
    1.4106   -9.2303    5.7988 H   0  0  0  0  0  0  0  0  0  0  0  0
    0.4987  -10.1146    3.5964 H   0  0  0  0  0  0  0  0  0  0  0  0
   -0.9597   -9.0060    5.4674 H   0  0  0  0  0  0  0  0  0  0  0  0
   -1.7029   -9.0564    3.8591 H   0  0  0  0  0  0  0  0  0  0  0  0
  1  2  2  0
  2 18  1  0
  2  3  1  0
  3  4  1  0
  3  9  2  0
  4  8  1  0
  4  5  2  0
  5  6  1  0
  6  7  2  0
  6 27  1  0
  7  8  1  0
  7 28  1  0
  9 10  1  0
  9 29  1  0
 10 17  1  0
 10 11  1  0
 11 15  2  0
 11 12  1  0
 12 13  2  0
 12 30  1  0
 13 14  1  0
 13 31  1  0
 14 15  1  0
 15 16  1  0
 16 17  2  0
 17 18  1  0
 18 19  1  0
 19 25  1  0
 19 20  1  0
 19 32  1  6
 20 21  1  0
 20 33  1  0
 20 34  1  0
 21 26  1  0
 21 22  1  0
 21 35  1  6
 22 23  1  0
 22 36  1  0
 22 37  1  0
 23 24  1  0
 24 25  1  0
 24 38  1  0
 24 39  1  0
 25 26  1  0
 25 40  1  6
 26 41  1  0
 26 42  1  0
M  END
>  <i_m_ct_stereo_status>  (280) 
1

>  <s_m_source_file>  (280) 
/var/tmp/pbs.5076255.sched01/tmp7zsp0c9b/86_oh4d05k.sdf

>  <i_m_source_file_index>  (280) 
28

>  <i_lp_mmshare_version>  (280) 
48012

>  <i_f3d_flags>  (280) 
0

>  <s_epik_input>  (280) 
czFbY0hdW2NIXW5jMS1jKFtjSF0yKWMoPU8pbihbQ0BIXShbQ0gyXVtDQEBIXTM0KVtDQEBIXShbQ0gyXTQpW0NIMl1PW0NIMl0zKWM1bmMoYzZuMjUpc1tjSF1bY0hdNg==

>  <s_epik_cmdline>  (280) 
J2VwaWtfcHl0aG9uJywgJy1waHQnLCAnMi4wJywgJy1waCcsICc3LjAnLCAnLXRuJywgJzgnLCAnLW1hJywgJzIwMCcsICctaW1hZScsICc8aW5maWxlLm1hZT4nLCAnLW9tYWUnLCAnPG91dGZpbGUubWFlPic=

>  <r_epik_Ionization_Penalty>  (280) 
0.00192777

>  <r_epik_Ionization_Penalty_Charging>  (280) 
0.0019037

>  <r_epik_Ionization_Penalty_Neutral>  (280) 
2.40725e-05

>  <r_epik_State_Penalty>  (280) 
0.00129608

>  <r_epik_Charging_Adjusted_Penalty>  (280) 
0.00319977

>  <i_epik_Tot_Q>  (280) 
0

>  <i_epik_Tot_abs_Q>  (280) 
0

>  <s_lp_Force_Field>  (280) 
OPLS3e

>  <r_lp_Energy>  (280) 
51.4815

>  <b_lp_Chiralities_Consistent>  (280) 
1

>  <s_lp_Variant>  (280) 
77:0-2

>  <s_i_glide_gridfile>  (280) 
pfpi4k_grid

>  <i_i_glide_lignum>  (280) 
28

>  <i_i_glide_rotatable_bonds>  (280) 
2

>  <r_i_docking_score>  (280) 
-2.76691

>  <r_i_glide_ligand_efficiency>  (280) 
-0.10642

>  <r_i_glide_ligand_efficiency_sa>  (280) 
-0.315267

>  <r_i_glide_ligand_efficiency_ln>  (280) 
-0.649799

>  <r_i_glide_gscore>  (280) 
-2.76691

>  <r_i_glide_lipo>  (280) 
-0.181492

>  <r_i_glide_hbond>  (280) 
-0.16

>  <r_i_glide_metal>  (280) 
-0

>  <r_i_glide_rewards>  (280) 
-0.787655

>  <r_i_glide_evdw>  (280) 
-31.1844

>  <r_i_glide_ecoul>  (280) 
-1.93397

>  <r_i_glide_erotb>  (280) 
0.263058

>  <r_i_glide_esite>  (280) 
-0.0515052

>  <r_i_glide_emodel>  (280) 
-24.3068

>  <r_i_glide_energy>  (280) 
-33.1183

>  <r_i_glide_einternal>  (280) 
27.4721

>  <r_i_glide_intrahb_reward>  (280) 
-0

>  <i_i_glide_confnum>  (280) 
4

>  <i_i_glide_posenum>  (280) 
2

>  <r_i_glide_eff_state_penalty>  (280) 
0

>  <ligand_id>  (280) 
77

>  <original_smiles>  (280) 
O=c1c(-c2nccs2)cn2c3ccsc3nc2n1C1CC2COCC1C2

>  <smiles>  (280) 
[H]c1nc(-c2c([H])n3c4c([H])c([H])sc4nc3n(C3([H])C([H])([H])C4([H])C([H])([H])OC([H])([H])C3([H])C4([H])[H])c2=O)sc1[H]

$$$$
78:0:0
     RDKit          3D

 59 63  0  0  1  0  0  0  0  0999 V2000
    6.9963    0.2726    7.5473 C   0  0  0  0  0  0  0  0  0  0  0  0
    6.6501    0.5983    6.2142 O   0  0  0  0  0  0  0  0  0  0  0  0
    5.6501   -0.1426    5.6174 C   0  0  0  0  0  0  0  0  0  0  0  0
    4.9572   -1.1358    6.1940 C   0  0  0  0  0  0  0  0  0  0  0  0
    3.8649   -1.8506    5.4800 C   0  0  0  0  0  0  0  0  0  0  0  0
    3.9823   -1.9344    3.9228 C   0  0  2  0  0  0  0  0  0  0  0  0
    5.1091   -2.9747    3.6120 C   0  0  0  0  0  0  0  0  0  0  0  0
    5.7311   -2.9387    2.2023 C   0  0  0  0  0  0  0  0  0  0  0  0
    6.1396   -1.5550    1.8350 N   0  0  1  0  0  0  0  0  0  0  0  0
    6.8259   -1.5204    0.5142 C   0  0  0  0  0  0  0  0  0  0  0  0
    4.9935   -0.5975    1.9065 C   0  0  0  0  0  0  0  0  0  0  0  0
    4.3744   -0.5111    3.3447 C   0  0  2  0  0  0  0  0  0  0  0  0
    5.4040    0.3146    4.1994 C   0  0  0  0  0  0  0  0  0  0  0  0
    3.0035    0.1366    3.2118 C   0  0  0  0  0  0  0  0  0  0  0  0
    2.6841    1.5057    3.0928 C   0  0  0  0  0  0  0  0  0  0  0  0
    1.3335    1.8981    2.9662 C   0  0  0  0  0  0  0  0  0  0  0  0
    1.0222    3.2203    2.8801 O   0  0  0  0  0  0  0  0  0  0  0  0
    0.3169    0.9243    2.9452 C   0  0  0  0  0  0  0  0  0  0  0  0
    0.6436   -0.4436    3.0590 C   0  0  0  0  0  0  0  0  0  0  0  0
    1.9892   -0.8283    3.2006 C   0  0  0  0  0  0  0  0  0  0  0  0
    2.5205   -2.2402    3.3635 C   0  0  1  0  0  0  0  0  0  0  0  0
    2.5578   -2.8711    1.9719 C   0  0  0  0  0  0  0  0  0  0  0  0
    2.2788   -4.1582    1.6584 C   0  0  0  0  0  0  0  0  0  0  0  0
    2.2735   -4.6414    0.3664 O   0  0  0  0  0  0  0  0  0  0  0  0
    2.7796   -3.7792   -0.6553 C   0  0  0  0  0  0  0  0  0  0  0  0
    1.8482   -5.0934    2.7163 C   0  0  0  0  0  0  0  0  0  0  0  0
    1.3808   -6.2031    2.4738 O   0  0  0  0  0  0  0  0  0  0  0  0
    1.9714   -4.6168    4.1702 C   0  0  0  0  0  0  0  0  0  0  0  0
    1.6274   -3.1181    4.3026 C   0  0  0  0  0  0  0  0  0  0  0  0
    7.8008    0.9378    7.8601 H   0  0  0  0  0  0  0  0  0  0  0  0
    7.3592   -0.7538    7.6309 H   0  0  0  0  0  0  0  0  0  0  0  0
    6.1588    0.4160    8.2309 H   0  0  0  0  0  0  0  0  0  0  0  0
    5.1149   -1.4280    7.2262 H   0  0  0  0  0  0  0  0  0  0  0  0
    3.7722   -2.8551    5.9103 H   0  0  0  0  0  0  0  0  0  0  0  0
    2.9622   -1.2960    5.7561 H   0  0  0  0  0  0  0  0  0  0  0  0
    5.9201   -2.8042    4.3208 H   0  0  0  0  0  0  0  0  0  0  0  0
    4.7821   -3.9882    3.8145 H   0  0  0  0  0  0  0  0  0  0  0  0
    6.6092   -3.5851    2.1771 H   0  0  0  0  0  0  0  0  0  0  0  0
    5.0545   -3.3342    1.4434 H   0  0  0  0  0  0  0  0  0  0  0  0
    6.1316   -1.8353   -0.2761 H   0  0  0  0  0  0  0  0  0  0  0  0
    7.6899   -2.1910    0.5132 H   0  0  0  0  0  0  0  0  0  0  0  0
    7.1714   -0.5060    0.3041 H   0  0  0  0  0  0  0  0  0  0  0  0
    5.3452    0.3849    1.5916 H   0  0  0  0  0  0  0  0  0  0  0  0
    4.2779   -0.8784    1.1414 H   0  0  0  0  0  0  0  0  0  0  0  0
    5.1299    1.3627    4.2120 H   0  0  0  0  0  0  0  0  0  0  0  0
    6.3963    0.2619    3.7488 H   0  0  0  0  0  0  0  0  0  0  0  0
    3.4431    2.2735    3.1194 H   0  0  0  0  0  0  0  0  0  0  0  0
    0.6289    3.4989    2.0403 H   0  0  0  0  0  0  0  0  0  0  0  0
   -0.7152    1.2220    2.8540 H   0  0  0  0  0  0  0  0  0  0  0  0
   -0.1443   -1.1721    3.0481 H   0  0  0  0  0  0  0  0  0  0  0  0
    2.7729   -2.1726    1.1889 H   0  0  0  0  0  0  0  0  0  0  0  0
    2.7963   -4.2489   -1.6265 H   0  0  0  0  0  0  0  0  0  0  0  0
    3.8038   -3.4788   -0.4350 H   0  0  0  0  0  0  0  0  0  0  0  0
    2.1657   -2.8855   -0.7761 H   0  0  0  0  0  0  0  0  0  0  0  0
    1.3131   -5.2007    4.8056 H   0  0  0  0  0  0  0  0  0  0  0  0
    2.9906   -4.8140    4.4974 H   0  0  0  0  0  0  0  0  0  0  0  0
    1.6856   -2.8253    5.3516 H   0  0  0  0  0  0  0  0  0  0  0  0
    0.5768   -3.0057    3.9978 H   0  0  0  0  0  0  0  0  0  0  0  0
    6.8276   -1.2455    2.5310 H   0  0  0  0  0  0  0  0  0  0  0  0
  1  2  1  0
  1 30  1  0
  1 31  1  0
  1 32  1  0
  2  3  1  0
  3 13  1  0
  3  4  2  0
  4  5  1  0
  4 33  1  0
  6  5  1  1
  5 34  1  0
  5 35  1  0
  6 12  1  0
  6 21  1  0
  6  7  1  0
  7  8  1  0
  7 36  1  0
  7 37  1  0
  8  9  1  0
  8 38  1  0
  8 39  1  0
  9 10  1  0
  9 11  1  0
  9 59  1  1
 10 40  1  0
 10 41  1  0
 10 42  1  0
 12 11  1  6
 11 43  1  0
 11 44  1  0
 12 13  1  0
 12 14  1  0
 13 45  1  0
 13 46  1  0
 14 20  2  0
 14 15  1  0
 15 16  2  0
 15 47  1  0
 16 17  1  0
 16 18  1  0
 17 48  1  0
 18 19  2  0
 18 49  1  0
 19 20  1  0
 19 50  1  0
 20 21  1  0
 21 29  1  1
 21 22  1  0
 22 23  2  0
 22 51  1  0
 23 24  1  0
 23 26  1  0
 24 25  1  0
 25 52  1  0
 25 53  1  0
 25 54  1  0
 26 27  2  0
 26 28  1  0
 28 29  1  0
 28 55  1  0
 28 56  1  0
 29 57  1  0
 29 58  1  0
M  CHG  1   9   1
M  END
>  <i_m_ct_stereo_status>  (281) 
1

>  <s_m_source_file>  (281) 
/var/tmp/pbs.5076255.sched01/tmp7zsp0c9b/86_oh4d05k.sdf

>  <i_m_source_file_index>  (281) 
29

>  <i_lp_mmshare_version>  (281) 
48012

>  <i_f3d_flags>  (281) 
0

>  <s_epik_input>  (281) 
W0NIM11PQyg9W0NIXVtDSDJdMSlbQ0gyXVtDQF0oW0NAXTEyMykoW0NIMl1OKFtDSDNdKVtDSDJdW0NIMl0yKWM0YyhbY0hdW2NIXWMoW2NIXTQpW09IXSlbQ0BAXTM1W0NIXT1DKE9bQ0gzXSlDKD1PKVtDSDJdW0NIMl01

>  <s_epik_cmdline>  (281) 
J2VwaWtfcHl0aG9uJywgJy1waHQnLCAnMi4wJywgJy1waCcsICc3LjAnLCAnLXRuJywgJzgnLCAnLW1hJywgJzIwMCcsICctaW1hZScsICc8aW5maWxlLm1hZT4nLCAnLW9tYWUnLCAnPG91dGZpbGUubWFlPic=

>  <r_lp_tautomer_probability>  (281) 
1

>  <r_epik_Ionization_Penalty>  (281) 
0.0156049

>  <r_epik_Ionization_Penalty_Charging>  (281) 
0.0146338

>  <r_epik_Ionization_Penalty_Neutral>  (281) 
0.000971159

>  <r_epik_State_Penalty>  (281) 
0.0114569

>  <r_epik_Charging_Adjusted_Penalty>  (281) 
0.0260906

>  <i_epik_Tot_Q>  (281) 
1

>  <i_epik_Tot_abs_Q>  (281) 
1

>  <s_lp_Force_Field>  (281) 
OPLS3e

>  <r_lp_Energy>  (281) 
67.8467

>  <b_lp_Chiralities_Consistent>  (281) 
1

>  <s_lp_Variant>  (281) 
78:0-1

>  <s_i_glide_gridfile>  (281) 
pfpi4k_grid

>  <i_i_glide_lignum>  (281) 
29

>  <i_i_glide_rotatable_bonds>  (281) 
3

>  <r_i_docking_score>  (281) 
-3.50034

>  <r_i_glide_ligand_efficiency>  (281) 
-0.120701

>  <r_i_glide_ligand_efficiency_sa>  (281) 
-0.370833

>  <r_i_glide_ligand_efficiency_ln>  (281) 
-0.801489

>  <r_i_glide_gscore>  (281) 
-3.50034

>  <r_i_glide_lipo>  (281) 
-0.487981

>  <r_i_glide_hbond>  (281) 
-0.167421

>  <r_i_glide_metal>  (281) 
-0

>  <r_i_glide_rewards>  (281) 
-0.705687

>  <r_i_glide_evdw>  (281) 
-16.4223

>  <r_i_glide_ecoul>  (281) 
-8.66525

>  <r_i_glide_erotb>  (281) 
0

>  <r_i_glide_esite>  (281) 
-0.0183499

>  <r_i_glide_emodel>  (281) 
-31.0363

>  <r_i_glide_energy>  (281) 
-25.0875

>  <r_i_glide_einternal>  (281) 
2.75025

>  <r_i_glide_intrahb_reward>  (281) 
-0

>  <i_i_glide_confnum>  (281) 
2

>  <i_i_glide_posenum>  (281) 
4

>  <r_i_glide_eff_state_penalty>  (281) 
0

>  <ligand_id>  (281) 
78

>  <original_smiles>  (281) 
COC1=CCC23CCN(C)CC2(C1)c1cc(O)ccc1C31C=C(OC)C(=O)CC1

>  <smiles>  (281) 
[H]Oc1c([H])c([H])c2c(c1[H])C13C([H])([H])C(OC([H])([H])[H])=C([H])C([H])([H])C1(C([H])([H])C([H])([H])[N+]([H])(C([H])([H])[H])C3([H])[H])C21C([H])=C(OC([H])([H])[H])C(=O)C([H])([H])C1([H])[H]

$$$$
78:0:1
     RDKit          3D

 59 63  0  0  1  0  0  0  0  0999 V2000
    7.7435    2.8607    6.9089 C   0  0  0  0  0  0  0  0  0  0  0  0
    7.4312    1.5706    6.4085 O   0  0  0  0  0  0  0  0  0  0  0  0
    6.1246    1.3097    6.0863 C   0  0  0  0  0  0  0  0  0  0  0  0
    5.0880    2.1687    6.2160 C   0  0  0  0  0  0  0  0  0  0  0  0
    3.7063    1.8186    5.7753 C   0  0  0  0  0  0  0  0  0  0  0  0
    3.3251    0.3065    5.8314 C   0  0  2  0  0  0  0  0  0  0  0  0
    3.1454   -0.0586    7.3476 C   0  0  0  0  0  0  0  0  0  0  0  0
    3.1873   -1.5457    7.7158 C   0  0  0  0  0  0  0  0  0  0  0  0
    4.3844   -2.2175    7.1348 N   0  0  1  0  0  0  0  0  0  0  0  0
    4.4911   -3.6349    7.5649 C   0  0  0  0  0  0  0  0  0  0  0  0
    4.4470   -2.0533    5.6485 C   0  0  0  0  0  0  0  0  0  0  0  0
    4.5028   -0.5612    5.1985 C   0  0  2  0  0  0  0  0  0  0  0  0
    5.9588   -0.0757    5.5143 C   0  0  0  0  0  0  0  0  0  0  0  0
    4.1128   -0.5089    3.7285 C   0  0  0  0  0  0  0  0  0  0  0  0
    4.9644   -0.7907    2.6118 C   0  0  0  0  0  0  0  0  0  0  0  0
    4.4042   -0.6823    1.3193 C   0  0  0  0  0  0  0  0  0  0  0  0
    5.1802   -0.9100    0.2253 O   0  0  0  0  0  0  0  0  0  0  0  0
    3.0484   -0.3411    1.1513 C   0  0  0  0  0  0  0  0  0  0  0  0
    2.2190   -0.0867    2.2571 C   0  0  0  0  0  0  0  0  0  0  0  0
    2.8006   -0.1595    3.5547 C   0  0  0  0  0  0  0  0  0  0  0  0
    2.0674    0.1159    4.8597 C   0  0  1  0  0  0  0  0  0  0  0  0
    1.2440   -1.1327    5.1826 C   0  0  0  0  0  0  0  0  0  0  0  0
    0.0210   -1.1775    5.7349 C   0  0  0  0  0  0  0  0  0  0  0  0
   -0.6735   -2.3456    5.9934 O   0  0  0  0  0  0  0  0  0  0  0  0
    0.0047   -3.5813    5.7502 C   0  0  0  0  0  0  0  0  0  0  0  0
   -0.6546    0.0887    6.0850 C   0  0  0  0  0  0  0  0  0  0  0  0
   -1.8334    0.1367    6.4808 O   0  0  0  0  0  0  0  0  0  0  0  0
    0.1382    1.3848    5.9729 C   0  0  0  0  0  0  0  0  0  0  0  0
    1.1089    1.3525    4.7744 C   0  0  0  0  0  0  0  0  0  0  0  0
    8.8085    2.8920    7.1330 H   0  0  0  0  0  0  0  0  0  0  0  0
    7.1987    3.0808    7.8290 H   0  0  0  0  0  0  0  0  0  0  0  0
    7.5303    3.6331    6.1680 H   0  0  0  0  0  0  0  0  0  0  0  0
    5.2259    3.1753    6.5799 H   0  0  0  0  0  0  0  0  0  0  0  0
    2.9974    2.4091    6.3617 H   0  0  0  0  0  0  0  0  0  0  0  0
    3.6363    2.1792    4.7456 H   0  0  0  0  0  0  0  0  0  0  0  0
    3.9465    0.4161    7.9249 H   0  0  0  0  0  0  0  0  0  0  0  0
    2.2274    0.3586    7.7417 H   0  0  0  0  0  0  0  0  0  0  0  0
    3.2344   -1.6403    8.8042 H   0  0  0  0  0  0  0  0  0  0  0  0
    2.2813   -2.0755    7.4048 H   0  0  0  0  0  0  0  0  0  0  0  0
    3.6347   -4.2059    7.1842 H   0  0  0  0  0  0  0  0  0  0  0  0
    4.4984   -3.7037    8.6553 H   0  0  0  0  0  0  0  0  0  0  0  0
    5.4113   -4.0806    7.1824 H   0  0  0  0  0  0  0  0  0  0  0  0
    5.3322   -2.5803    5.2789 H   0  0  0  0  0  0  0  0  0  0  0  0
    3.6076   -2.6054    5.2256 H   0  0  0  0  0  0  0  0  0  0  0  0
    6.6083   -0.1707    4.6421 H   0  0  0  0  0  0  0  0  0  0  0  0
    6.4008   -0.7072    6.2871 H   0  0  0  0  0  0  0  0  0  0  0  0
    5.9975   -1.0471    2.7277 H   0  0  0  0  0  0  0  0  0  0  0  0
    4.6900   -0.8493   -0.5858 H   0  0  0  0  0  0  0  0  0  0  0  0
    2.6283   -0.2652    0.1631 H   0  0  0  0  0  0  0  0  0  0  0  0
    1.1929    0.1637    2.1125 H   0  0  0  0  0  0  0  0  0  0  0  0
    1.7272   -2.0474    4.8720 H   0  0  0  0  0  0  0  0  0  0  0  0
   -0.6106   -4.4358    6.0446 H   0  0  0  0  0  0  0  0  0  0  0  0
    0.9293   -3.6513    6.3242 H   0  0  0  0  0  0  0  0  0  0  0  0
    0.2307   -3.7021    4.6909 H   0  0  0  0  0  0  0  0  0  0  0  0
   -0.5456    2.2284    5.8809 H   0  0  0  0  0  0  0  0  0  0  0  0
    0.6786    1.5217    6.9078 H   0  0  0  0  0  0  0  0  0  0  0  0
    1.6570    2.3046    4.7072 H   0  0  0  0  0  0  0  0  0  0  0  0
    0.4673    1.2476    3.8842 H   0  0  0  0  0  0  0  0  0  0  0  0
    5.2087   -1.7196    7.5195 H   0  0  0  0  0  0  0  0  0  0  0  0
  1  2  1  0
  1 30  1  0
  1 31  1  0
  1 32  1  0
  2  3  1  0
  3 13  1  0
  3  4  2  0
  4  5  1  0
  4 33  1  0
  6  5  1  1
  5 34  1  0
  5 35  1  0
  6 12  1  0
  6 21  1  0
  6  7  1  0
  7  8  1  0
  7 36  1  0
  7 37  1  0
  8  9  1  0
  8 38  1  0
  8 39  1  0
  9 10  1  0
  9 11  1  0
  9 59  1  1
 10 40  1  0
 10 41  1  0
 10 42  1  0
 12 11  1  1
 11 43  1  0
 11 44  1  0
 12 13  1  0
 12 14  1  0
 13 45  1  0
 13 46  1  0
 14 20  2  0
 14 15  1  0
 15 16  2  0
 15 47  1  0
 16 17  1  0
 16 18  1  0
 17 48  1  0
 18 19  2  0
 18 49  1  0
 19 20  1  0
 19 50  1  0
 20 21  1  0
 21 29  1  6
 21 22  1  0
 22 23  2  0
 22 51  1  0
 23 24  1  0
 23 26  1  0
 24 25  1  0
 25 52  1  0
 25 53  1  0
 25 54  1  0
 26 27  2  0
 26 28  1  0
 28 29  1  0
 28 55  1  0
 28 56  1  0
 29 57  1  0
 29 58  1  0
M  CHG  1   9   1
M  END
>  <i_m_ct_stereo_status>  (282) 
1

>  <s_m_source_file>  (282) 
/var/tmp/pbs.5076255.sched01/tmp7zsp0c9b/86_oh4d05k.sdf

>  <i_m_source_file_index>  (282) 
29

>  <i_lp_mmshare_version>  (282) 
48012

>  <i_f3d_flags>  (282) 
0

>  <s_epik_input>  (282) 
W0NIM11PQyg9W0NIXVtDSDJdMSlbQ0gyXVtDQF0oW0NAXTEyMykoW0NIMl1OKFtDSDNdKVtDSDJdW0NIMl0yKWM0YyhbY0hdW2NIXWMoW2NIXTQpW09IXSlbQ0BAXTM1W0NIXT1DKE9bQ0gzXSlDKD1PKVtDSDJdW0NIMl01

>  <s_epik_cmdline>  (282) 
J2VwaWtfcHl0aG9uJywgJy1waHQnLCAnMi4wJywgJy1waCcsICc3LjAnLCAnLXRuJywgJzgnLCAnLW1hJywgJzIwMCcsICctaW1hZScsICc8aW5maWxlLm1hZT4nLCAnLW9tYWUnLCAnPG91dGZpbGUubWFlPic=

>  <r_lp_tautomer_probability>  (282) 
1

>  <r_epik_Ionization_Penalty>  (282) 
0.0156049

>  <r_epik_Ionization_Penalty_Charging>  (282) 
0.0146338

>  <r_epik_Ionization_Penalty_Neutral>  (282) 
0.000971159

>  <r_epik_State_Penalty>  (282) 
0.0114569

>  <r_epik_Charging_Adjusted_Penalty>  (282) 
0.0260906

>  <i_epik_Tot_Q>  (282) 
1

>  <i_epik_Tot_abs_Q>  (282) 
1

>  <s_lp_Force_Field>  (282) 
OPLS3e

>  <r_lp_Energy>  (282) 
67.8467

>  <b_lp_Chiralities_Consistent>  (282) 
1

>  <s_lp_Variant>  (282) 
78:0-1

>  <s_i_glide_gridfile>  (282) 
pfpi4k_grid

>  <i_i_glide_lignum>  (282) 
29

>  <i_i_glide_rotatable_bonds>  (282) 
3

>  <r_i_docking_score>  (282) 
-3.05471

>  <r_i_glide_ligand_efficiency>  (282) 
-0.105335

>  <r_i_glide_ligand_efficiency_sa>  (282) 
-0.323621

>  <r_i_glide_ligand_efficiency_ln>  (282) 
-0.69945

>  <r_i_glide_gscore>  (282) 
-3.05471

>  <r_i_glide_lipo>  (282) 
-0.409194

>  <r_i_glide_hbond>  (282) 
-0.16

>  <r_i_glide_metal>  (282) 
-0

>  <r_i_glide_rewards>  (282) 
-0.705687

>  <r_i_glide_evdw>  (282) 
-17.8909

>  <r_i_glide_ecoul>  (282) 
-5.62252

>  <r_i_glide_erotb>  (282) 
0

>  <r_i_glide_esite>  (282) 
-0.0419004

>  <r_i_glide_emodel>  (282) 
-30.3516

>  <r_i_glide_energy>  (282) 
-23.5135

>  <r_i_glide_einternal>  (282) 
0.0304066

>  <r_i_glide_intrahb_reward>  (282) 
-0

>  <i_i_glide_confnum>  (282) 
1

>  <i_i_glide_posenum>  (282) 
31

>  <r_i_glide_eff_state_penalty>  (282) 
0

>  <ligand_id>  (282) 
78

>  <original_smiles>  (282) 
COC1=CCC23CCN(C)CC2(C1)c1cc(O)ccc1C31C=C(OC)C(=O)CC1

>  <smiles>  (282) 
[H]Oc1c([H])c([H])c2c(c1[H])C13C([H])([H])C(OC([H])([H])[H])=C([H])C([H])([H])C1(C([H])([H])C([H])([H])[N+]([H])(C([H])([H])[H])C3([H])[H])C21C([H])=C(OC([H])([H])[H])C(=O)C([H])([H])C1([H])[H]

$$$$
78:0:2
     RDKit          3D

 59 63  0  0  1  0  0  0  0  0999 V2000
    5.1547  -13.1117    4.2085 C   0  0  0  0  0  0  0  0  0  0  0  0
    4.3535  -12.1189    4.8213 O   0  0  0  0  0  0  0  0  0  0  0  0
    4.1895  -10.9265    4.1314 C   0  0  0  0  0  0  0  0  0  0  0  0
    4.7344  -10.6270    2.9580 C   0  0  0  0  0  0  0  0  0  0  0  0
    4.4657   -9.3340    2.2605 C   0  0  0  0  0  0  0  0  0  0  0  0
    4.1476   -8.1049    3.1726 C   0  0  2  0  0  0  0  0  0  0  0  0
    5.4986   -7.6798    3.8399 C   0  0  0  0  0  0  0  0  0  0  0  0
    5.4031   -6.7930    5.0944 C   0  0  0  0  0  0  0  0  0  0  0  0
    4.4670   -7.3712    6.0864 N   0  0  1  0  0  0  0  0  0  0  0  0
    4.4442   -6.5767    7.3389 C   0  0  0  0  0  0  0  0  0  0  0  0
    3.1069   -7.5698    5.5139 C   0  0  0  0  0  0  0  0  0  0  0  0
    3.1030   -8.5387    4.2812 C   0  0  2  0  0  0  0  0  0  0  0  0
    3.2752   -9.9837    4.8848 C   0  0  0  0  0  0  0  0  0  0  0  0
    1.7930   -8.3305    3.5582 C   0  0  0  0  0  0  0  0  0  0  0  0
    0.5318   -8.8608    3.8664 C   0  0  0  0  0  0  0  0  0  0  0  0
   -0.5593   -8.5378    3.0494 C   0  0  0  0  0  0  0  0  0  0  0  0
   -1.8007   -9.0545    3.2839 O   0  0  0  0  0  0  0  0  0  0  0  0
   -0.3987   -7.6719    1.9482 C   0  0  0  0  0  0  0  0  0  0  0  0
    0.8721   -7.1239    1.6509 C   0  0  0  0  0  0  0  0  0  0  0  0
    1.9573   -7.4572    2.4413 C   0  0  0  0  0  0  0  0  0  0  0  0
    3.4014   -7.0217    2.2596 C   0  0  1  0  0  0  0  0  0  0  0  0
    3.4974   -5.5947    2.8159 C   0  0  0  0  0  0  0  0  0  0  0  0
    4.2297   -4.5708    2.3075 C   0  0  0  0  0  0  0  0  0  0  0  0
    4.2075   -3.2924    2.8132 O   0  0  0  0  0  0  0  0  0  0  0  0
    2.9547   -2.7822    3.2747 C   0  0  0  0  0  0  0  0  0  0  0  0
    5.0377   -4.7856    1.0923 C   0  0  0  0  0  0  0  0  0  0  0  0
    5.6108   -3.8638    0.5030 O   0  0  0  0  0  0  0  0  0  0  0  0
    5.1516   -6.2139    0.5570 C   0  0  0  0  0  0  0  0  0  0  0  0
    3.8326   -6.9890    0.7439 C   0  0  0  0  0  0  0  0  0  0  0  0
    5.1896  -13.9694    4.8801 H   0  0  0  0  0  0  0  0  0  0  0  0
    6.1770  -12.7663    4.0496 H   0  0  0  0  0  0  0  0  0  0  0  0
    4.7292  -13.4396    3.2595 H   0  0  0  0  0  0  0  0  0  0  0  0
    5.3433  -11.3280    2.3934 H   0  0  0  0  0  0  0  0  0  0  0  0
    5.3231   -9.1233    1.6139 H   0  0  0  0  0  0  0  0  0  0  0  0
    3.6076   -9.5650    1.6215 H   0  0  0  0  0  0  0  0  0  0  0  0
    6.0432   -8.5805    4.1458 H   0  0  0  0  0  0  0  0  0  0  0  0
    6.1487   -7.1828    3.1256 H   0  0  0  0  0  0  0  0  0  0  0  0
    6.3998   -6.7301    5.5428 H   0  0  0  0  0  0  0  0  0  0  0  0
    5.1197   -5.7652    4.8473 H   0  0  0  0  0  0  0  0  0  0  0  0
    4.0693   -5.5605    7.1456 H   0  0  0  0  0  0  0  0  0  0  0  0
    5.4527   -6.4952    7.7640 H   0  0  0  0  0  0  0  0  0  0  0  0
    3.7975   -7.0520    8.0855 H   0  0  0  0  0  0  0  0  0  0  0  0
    2.4499   -7.9753    6.2908 H   0  0  0  0  0  0  0  0  0  0  0  0
    2.6866   -6.5920    5.2815 H   0  0  0  0  0  0  0  0  0  0  0  0
    2.3170  -10.4696    5.0556 H   0  0  0  0  0  0  0  0  0  0  0  0
    3.7556   -9.9185    5.8594 H   0  0  0  0  0  0  0  0  0  0  0  0
    0.3864   -9.5421    4.7051 H   0  0  0  0  0  0  0  0  0  0  0  0
   -1.8190   -9.7234    3.9591 H   0  0  0  0  0  0  0  0  0  0  0  0
   -1.2497   -7.4712    1.3448 H   0  0  0  0  0  0  0  0  0  0  0  0
    0.9839   -6.4764    0.7887 H   0  0  0  0  0  0  0  0  0  0  0  0
    2.8762   -5.4051    3.6697 H   0  0  0  0  0  0  0  0  0  0  0  0
    3.1141   -1.8005    3.7228 H   0  0  0  0  0  0  0  0  0  0  0  0
    2.4614   -3.3857    4.0377 H   0  0  0  0  0  0  0  0  0  0  0  0
    2.2778   -2.6535    2.4281 H   0  0  0  0  0  0  0  0  0  0  0  0
    5.4094   -6.1838   -0.4978 H   0  0  0  0  0  0  0  0  0  0  0  0
    5.9729   -6.7038    1.0782 H   0  0  0  0  0  0  0  0  0  0  0  0
    3.9353   -7.9731    0.2766 H   0  0  0  0  0  0  0  0  0  0  0  0
    3.0785   -6.4280    0.1702 H   0  0  0  0  0  0  0  0  0  0  0  0
    4.8267   -8.2997    6.3243 H   0  0  0  0  0  0  0  0  0  0  0  0
  1  2  1  0
  1 30  1  0
  1 31  1  0
  1 32  1  0
  2  3  1  0
  3 13  1  0
  3  4  2  0
  4  5  1  0
  4 33  1  0
  6  5  1  6
  5 34  1  0
  5 35  1  0
  6 12  1  0
  6 21  1  0
  6  7  1  0
  7  8  1  0
  7 36  1  0
  7 37  1  0
  8  9  1  0
  8 38  1  0
  8 39  1  0
  9 10  1  0
  9 11  1  0
  9 59  1  1
 10 40  1  0
 10 41  1  0
 10 42  1  0
 12 11  1  1
 11 43  1  0
 11 44  1  0
 12 13  1  0
 12 14  1  0
 13 45  1  0
 13 46  1  0
 14 20  2  0
 14 15  1  0
 15 16  2  0
 15 47  1  0
 16 17  1  0
 16 18  1  0
 17 48  1  0
 18 19  2  0
 18 49  1  0
 19 20  1  0
 19 50  1  0
 20 21  1  0
 21 29  1  6
 21 22  1  0
 22 23  2  0
 22 51  1  0
 23 24  1  0
 23 26  1  0
 24 25  1  0
 25 52  1  0
 25 53  1  0
 25 54  1  0
 26 27  2  0
 26 28  1  0
 28 29  1  0
 28 55  1  0
 28 56  1  0
 29 57  1  0
 29 58  1  0
M  CHG  1   9   1
M  END
>  <i_m_ct_stereo_status>  (283) 
1

>  <s_m_source_file>  (283) 
/var/tmp/pbs.5076255.sched01/tmp7zsp0c9b/86_oh4d05k.sdf

>  <i_m_source_file_index>  (283) 
29

>  <i_lp_mmshare_version>  (283) 
48012

>  <i_f3d_flags>  (283) 
0

>  <s_epik_input>  (283) 
W0NIM11PQyg9W0NIXVtDSDJdMSlbQ0gyXVtDQF0oW0NAXTEyMykoW0NIMl1OKFtDSDNdKVtDSDJdW0NIMl0yKWM0YyhbY0hdW2NIXWMoW2NIXTQpW09IXSlbQ0BAXTM1W0NIXT1DKE9bQ0gzXSlDKD1PKVtDSDJdW0NIMl01

>  <s_epik_cmdline>  (283) 
J2VwaWtfcHl0aG9uJywgJy1waHQnLCAnMi4wJywgJy1waCcsICc3LjAnLCAnLXRuJywgJzgnLCAnLW1hJywgJzIwMCcsICctaW1hZScsICc8aW5maWxlLm1hZT4nLCAnLW9tYWUnLCAnPG91dGZpbGUubWFlPic=

>  <r_lp_tautomer_probability>  (283) 
1

>  <r_epik_Ionization_Penalty>  (283) 
0.0156049

>  <r_epik_Ionization_Penalty_Charging>  (283) 
0.0146338

>  <r_epik_Ionization_Penalty_Neutral>  (283) 
0.000971159

>  <r_epik_State_Penalty>  (283) 
0.0114569

>  <r_epik_Charging_Adjusted_Penalty>  (283) 
0.0260906

>  <i_epik_Tot_Q>  (283) 
1

>  <i_epik_Tot_abs_Q>  (283) 
1

>  <s_lp_Force_Field>  (283) 
OPLS3e

>  <r_lp_Energy>  (283) 
67.8467

>  <b_lp_Chiralities_Consistent>  (283) 
1

>  <s_lp_Variant>  (283) 
78:0-1

>  <s_i_glide_gridfile>  (283) 
pfpi4k_grid

>  <i_i_glide_lignum>  (283) 
29

>  <i_i_glide_rotatable_bonds>  (283) 
3

>  <r_i_docking_score>  (283) 
-2.9157

>  <r_i_glide_ligand_efficiency>  (283) 
-0.100541

>  <r_i_glide_ligand_efficiency_sa>  (283) 
-0.308895

>  <r_i_glide_ligand_efficiency_ln>  (283) 
-0.667621

>  <r_i_glide_gscore>  (283) 
-2.9157

>  <r_i_glide_lipo>  (283) 
-0.258383

>  <r_i_glide_hbond>  (283) 
-0.16

>  <r_i_glide_metal>  (283) 
-0

>  <r_i_glide_rewards>  (283) 
-0.769754

>  <r_i_glide_evdw>  (283) 
-21.1199

>  <r_i_glide_ecoul>  (283) 
-4.47712

>  <r_i_glide_erotb>  (283) 
0

>  <r_i_glide_esite>  (283) 
0

>  <r_i_glide_emodel>  (283) 
-31.4953

>  <r_i_glide_energy>  (283) 
-25.597

>  <r_i_glide_einternal>  (283) 
1.37238

>  <r_i_glide_intrahb_reward>  (283) 
-0

>  <i_i_glide_confnum>  (283) 
1

>  <i_i_glide_posenum>  (283) 
13

>  <r_i_glide_eff_state_penalty>  (283) 
0

>  <ligand_id>  (283) 
78

>  <original_smiles>  (283) 
COC1=CCC23CCN(C)CC2(C1)c1cc(O)ccc1C31C=C(OC)C(=O)CC1

>  <smiles>  (283) 
[H]Oc1c([H])c([H])c2c(c1[H])C13C([H])([H])C(OC([H])([H])[H])=C([H])C([H])([H])C1(C([H])([H])C([H])([H])[N+]([H])(C([H])([H])[H])C3([H])[H])C21C([H])=C(OC([H])([H])[H])C(=O)C([H])([H])C1([H])[H]

$$$$
78:1:0
     RDKit          3D

 58 62  0  0  1  0  0  0  0  0999 V2000
    3.3467    0.2741    3.8991 C   0  0  0  0  0  0  0  0  0  0  0  0
    3.7141   -1.0608    4.2419 O   0  0  0  0  0  0  0  0  0  0  0  0
    3.5965   -2.0493    3.2835 C   0  0  0  0  0  0  0  0  0  0  0  0
    2.7284   -2.0334    2.2528 C   0  0  0  0  0  0  0  0  0  0  0  0
    2.6790   -3.0929    1.1876 C   0  0  0  0  0  0  0  0  0  0  0  0
    3.9558   -3.9670    1.0823 C   0  0  2  0  0  0  0  0  0  0  0  0
    3.4665   -5.2863    0.3913 C   0  0  0  0  0  0  0  0  0  0  0  0
    2.6569   -6.2359    1.2943 C   0  0  0  0  0  0  0  0  0  0  0  0
    3.4775   -6.6069    2.4385 N   0  0  0  0  0  0  0  0  0  0  0  0
    2.7606   -7.5646    3.2647 C   0  0  0  0  0  0  0  0  0  0  0  0
    3.7581   -5.4259    3.2387 C   0  0  0  0  0  0  0  0  0  0  0  0
    4.5632   -4.3435    2.4894 C   0  0  2  0  0  0  0  0  0  0  0  0
    4.6490   -3.1440    3.4864 C   0  0  0  0  0  0  0  0  0  0  0  0
    5.9705   -4.7387    2.0767 C   0  0  0  0  0  0  0  0  0  0  0  0
    6.8725   -5.5873    2.7682 C   0  0  0  0  0  0  0  0  0  0  0  0
    8.1176   -5.8874    2.1780 C   0  0  0  0  0  0  0  0  0  0  0  0
    9.0124   -6.6945    2.8201 O   0  0  0  0  0  0  0  0  0  0  0  0
    8.4361   -5.3471    0.9024 C   0  0  0  0  0  0  0  0  0  0  0  0
    7.5563   -4.4801    0.2500 C   0  0  0  0  0  0  0  0  0  0  0  0
    6.3132   -4.1831    0.8532 C   0  0  0  0  0  0  0  0  0  0  0  0
    5.1821   -3.3551    0.2591 C   0  0  1  0  0  0  0  0  0  0  0  0
    5.0587   -3.5872   -1.2535 C   0  0  0  0  0  0  0  0  0  0  0  0
    4.8448   -2.6203   -2.1859 C   0  0  0  0  0  0  0  0  0  0  0  0
    4.7704   -2.8597   -3.5396 O   0  0  0  0  0  0  0  0  0  0  0  0
    4.2773   -4.1210   -3.9559 C   0  0  0  0  0  0  0  0  0  0  0  0
    4.6714   -1.1998   -1.7933 C   0  0  0  0  0  0  0  0  0  0  0  0
    4.5891   -0.2921   -2.6205 O   0  0  0  0  0  0  0  0  0  0  0  0
    4.6253   -0.8637   -0.2937 C   0  0  0  0  0  0  0  0  0  0  0  0
    5.5043   -1.8410    0.5181 C   0  0  0  0  0  0  0  0  0  0  0  0
    3.2062    0.8619    4.8106 H   0  0  0  0  0  0  0  0  0  0  0  0
    2.4430    0.3805    3.3082 H   0  0  0  0  0  0  0  0  0  0  0  0
    4.1764    0.7205    3.3503 H   0  0  0  0  0  0  0  0  0  0  0  0
    1.9694   -1.2749    2.1446 H   0  0  0  0  0  0  0  0  0  0  0  0
    1.8212   -3.7030    1.4459 H   0  0  0  0  0  0  0  0  0  0  0  0
    2.4537   -2.6503    0.2187 H   0  0  0  0  0  0  0  0  0  0  0  0
    2.8543   -5.0513   -0.4784 H   0  0  0  0  0  0  0  0  0  0  0  0
    4.2985   -5.8739    0.0058 H   0  0  0  0  0  0  0  0  0  0  0  0
    1.7089   -5.7957    1.6041 H   0  0  0  0  0  0  0  0  0  0  0  0
    2.4060   -7.1450    0.7481 H   0  0  0  0  0  0  0  0  0  0  0  0
    3.3685   -7.8331    4.1323 H   0  0  0  0  0  0  0  0  0  0  0  0
    2.5537   -8.4771    2.7010 H   0  0  0  0  0  0  0  0  0  0  0  0
    1.8140   -7.1524    3.6248 H   0  0  0  0  0  0  0  0  0  0  0  0
    2.8116   -4.9863    3.5617 H   0  0  0  0  0  0  0  0  0  0  0  0
    4.2931   -5.7204    4.1433 H   0  0  0  0  0  0  0  0  0  0  0  0
    5.6131   -2.6469    3.3583 H   0  0  0  0  0  0  0  0  0  0  0  0
    4.6638   -3.4838    4.5261 H   0  0  0  0  0  0  0  0  0  0  0  0
    6.6050   -6.0001    3.7321 H   0  0  0  0  0  0  0  0  0  0  0  0
    9.6946   -7.0750    2.2502 H   0  0  0  0  0  0  0  0  0  0  0  0
    9.3745   -5.6209    0.4281 H   0  0  0  0  0  0  0  0  0  0  0  0
    7.7954   -4.0825   -0.7280 H   0  0  0  0  0  0  0  0  0  0  0  0
    5.2156   -4.6173   -1.5583 H   0  0  0  0  0  0  0  0  0  0  0  0
    4.2691   -4.1693   -5.0405 H   0  0  0  0  0  0  0  0  0  0  0  0
    3.2493   -4.2187   -3.6080 H   0  0  0  0  0  0  0  0  0  0  0  0
    4.8818   -4.9510   -3.5989 H   0  0  0  0  0  0  0  0  0  0  0  0
    4.9645    0.1514   -0.0973 H   0  0  0  0  0  0  0  0  0  0  0  0
    3.5752   -0.9044   -0.0030 H   0  0  0  0  0  0  0  0  0  0  0  0
    5.4409   -1.5474    1.5619 H   0  0  0  0  0  0  0  0  0  0  0  0
    6.5507   -1.6758    0.2331 H   0  0  0  0  0  0  0  0  0  0  0  0
  1  2  1  0
  1 30  1  0
  1 31  1  0
  1 32  1  0
  2  3  1  0
  3 13  1  0
  3  4  2  0
  4  5  1  0
  4 33  1  0
  6  5  1  1
  5 34  1  0
  5 35  1  0
  6 12  1  0
  6 21  1  0
  6  7  1  0
  7  8  1  0
  7 36  1  0
  7 37  1  0
  8  9  1  0
  8 38  1  0
  8 39  1  0
  9 10  1  0
  9 11  1  0
 10 40  1  0
 10 41  1  0
 10 42  1  0
 12 11  1  1
 11 43  1  0
 11 44  1  0
 12 13  1  0
 12 14  1  0
 13 45  1  0
 13 46  1  0
 14 20  2  0
 14 15  1  0
 15 16  2  0
 15 47  1  0
 16 17  1  0
 16 18  1  0
 17 48  1  0
 18 19  2  0
 18 49  1  0
 19 20  1  0
 19 50  1  0
 20 21  1  0
 21 29  1  6
 21 22  1  0
 22 23  2  0
 22 51  1  0
 23 24  1  0
 23 26  1  0
 24 25  1  0
 25 52  1  0
 25 53  1  0
 25 54  1  0
 26 27  2  0
 26 28  1  0
 28 29  1  0
 28 55  1  0
 28 56  1  0
 29 57  1  0
 29 58  1  0
M  END
>  <i_m_ct_stereo_status>  (284) 
1

>  <s_m_source_file>  (284) 
/var/tmp/pbs.5076255.sched01/tmp7zsp0c9b/86_oh4d05k.sdf

>  <i_m_source_file_index>  (284) 
30

>  <i_lp_mmshare_version>  (284) 
48012

>  <i_f3d_flags>  (284) 
0

>  <s_epik_input>  (284) 
W0NIM11PQyg9W0NIXVtDSDJdMSlbQ0gyXVtDQF0oW0NAXTEyMykoW0NIMl1OKFtDSDNdKVtDSDJdW0NIMl0yKWM0YyhbY0hdW2NIXWMoW2NIXTQpW09IXSlbQ0BAXTM1W0NIXT1DKE9bQ0gzXSlDKD1PKVtDSDJdW0NIMl01

>  <s_epik_cmdline>  (284) 
J2VwaWtfcHl0aG9uJywgJy1waHQnLCAnMi4wJywgJy1waCcsICc3LjAnLCAnLXRuJywgJzgnLCAnLW1hJywgJzIwMCcsICctaW1hZScsICc8aW5maWxlLm1hZT4nLCAnLW9tYWUnLCAnPG91dGZpbGUubWFlPic=

>  <r_lp_tautomer_probability>  (284) 
1

>  <r_epik_Ionization_Penalty>  (284) 
2.20023

>  <r_epik_Ionization_Penalty_Charging>  (284) 
0

>  <r_epik_Ionization_Penalty_Neutral>  (284) 
2.20023

>  <r_epik_State_Penalty>  (284) 
2.34351

>  <r_epik_Charging_Adjusted_Penalty>  (284) 
2.34351

>  <i_epik_Tot_Q>  (284) 
0

>  <i_epik_Tot_abs_Q>  (284) 
0

>  <s_lp_Force_Field>  (284) 
OPLS3e

>  <r_lp_Energy>  (284) 
58.4567

>  <b_lp_Chiralities_Consistent>  (284) 
1

>  <s_lp_Variant>  (284) 
78:0-2

>  <s_i_glide_gridfile>  (284) 
pfpi4k_grid

>  <i_i_glide_lignum>  (284) 
30

>  <i_i_glide_rotatable_bonds>  (284) 
3

>  <r_i_docking_score>  (284) 
-3.6016

>  <r_i_glide_ligand_efficiency>  (284) 
-0.124193

>  <r_i_glide_ligand_efficiency_sa>  (284) 
-0.381561

>  <r_i_glide_ligand_efficiency_ln>  (284) 
-0.824676

>  <r_i_glide_gscore>  (284) 
-3.6016

>  <r_i_glide_lipo>  (284) 
-0.581709

>  <r_i_glide_hbond>  (284) 
-0.16

>  <r_i_glide_metal>  (284) 
-0

>  <r_i_glide_rewards>  (284) 
-0.712559

>  <r_i_glide_evdw>  (284) 
-24.9657

>  <r_i_glide_ecoul>  (284) 
-5.68905

>  <r_i_glide_erotb>  (284) 
0

>  <r_i_glide_esite>  (284) 
-0.0456944

>  <r_i_glide_emodel>  (284) 
-34.165

>  <r_i_glide_energy>  (284) 
-30.6547

>  <r_i_glide_einternal>  (284) 
5.09146

>  <r_i_glide_intrahb_reward>  (284) 
-0

>  <i_i_glide_confnum>  (284) 
1

>  <i_i_glide_posenum>  (284) 
37

>  <r_i_glide_eff_state_penalty>  (284) 
0

>  <ligand_id>  (284) 
78

>  <original_smiles>  (284) 
COC1=CCC23CCN(C)CC2(C1)c1cc(O)ccc1C31C=C(OC)C(=O)CC1

>  <smiles>  (284) 
[H]Oc1c([H])c([H])c2c(c1[H])C13C([H])([H])C(OC([H])([H])[H])=C([H])C([H])([H])C1(C([H])([H])C([H])([H])N(C([H])([H])[H])C3([H])[H])C21C([H])=C(OC([H])([H])[H])C(=O)C([H])([H])C1([H])[H]

$$$$
78:1:1
     RDKit          3D

 58 62  0  0  1  0  0  0  0  0999 V2000
    9.7926   -2.7080    0.4820 C   0  0  0  0  0  0  0  0  0  0  0  0
    8.7153   -1.7735    0.4956 O   0  0  0  0  0  0  0  0  0  0  0  0
    7.4573   -2.2479    0.1971 C   0  0  0  0  0  0  0  0  0  0  0  0
    7.2198   -3.4972   -0.2519 C   0  0  0  0  0  0  0  0  0  0  0  0
    5.8487   -4.0253   -0.5867 C   0  0  0  0  0  0  0  0  0  0  0  0
    4.6784   -3.1944   -0.0146 C   0  0  2  0  0  0  0  0  0  0  0  0
    3.4637   -3.5069   -0.9550 C   0  0  0  0  0  0  0  0  0  0  0  0
    3.5029   -2.8338   -2.3409 C   0  0  0  0  0  0  0  0  0  0  0  0
    3.5714   -1.3922   -2.1524 N   0  0  0  0  0  0  0  0  0  0  0  0
    3.5249   -0.7072   -3.4352 C   0  0  0  0  0  0  0  0  0  0  0  0
    4.8013   -1.0317   -1.4577 C   0  0  0  0  0  0  0  0  0  0  0  0
    4.9405   -1.6336   -0.0383 C   0  0  2  0  0  0  0  0  0  0  0  0
    6.3654   -1.2093    0.4491 C   0  0  0  0  0  0  0  0  0  0  0  0
    3.9217   -1.1659    0.9890 C   0  0  0  0  0  0  0  0  0  0  0  0
    3.3714    0.1232    1.1327 C   0  0  0  0  0  0  0  0  0  0  0  0
    2.3666    0.3210    2.1027 C   0  0  0  0  0  0  0  0  0  0  0  0
    1.7887    1.5528    2.2250 O   0  0  0  0  0  0  0  0  0  0  0  0
    1.9459   -0.7414    2.9346 C   0  0  0  0  0  0  0  0  0  0  0  0
    2.5337   -2.0159    2.8108 C   0  0  0  0  0  0  0  0  0  0  0  0
    3.5368   -2.2031    1.8307 C   0  0  0  0  0  0  0  0  0  0  0  0
    4.2681   -3.4951    1.4925 C   0  0  1  0  0  0  0  0  0  0  0  0
    3.3381   -4.6966    1.6455 C   0  0  0  0  0  0  0  0  0  0  0  0
    3.6655   -5.8915    2.2161 C   0  0  0  0  0  0  0  0  0  0  0  0
    2.7696   -6.9212    2.3714 O   0  0  0  0  0  0  0  0  0  0  0  0
    1.4486   -6.7123    1.8842 C   0  0  0  0  0  0  0  0  0  0  0  0
    5.0264   -6.1220    2.7383 C   0  0  0  0  0  0  0  0  0  0  0  0
    5.3412   -7.1335    3.3650 O   0  0  0  0  0  0  0  0  0  0  0  0
    6.0961   -5.0583    2.4800 C   0  0  0  0  0  0  0  0  0  0  0  0
    5.4733   -3.6464    2.4790 C   0  0  0  0  0  0  0  0  0  0  0  0
   10.7630   -2.2169    0.5561 H   0  0  0  0  0  0  0  0  0  0  0  0
    9.7801   -3.2998   -0.4273 H   0  0  0  0  0  0  0  0  0  0  0  0
    9.7128   -3.3887    1.3245 H   0  0  0  0  0  0  0  0  0  0  0  0
    8.0134   -4.2122   -0.4090 H   0  0  0  0  0  0  0  0  0  0  0  0
    5.8244   -4.0463   -1.6762 H   0  0  0  0  0  0  0  0  0  0  0  0
    5.7486   -5.0699   -0.2782 H   0  0  0  0  0  0  0  0  0  0  0  0
    3.3828   -4.5843   -1.1073 H   0  0  0  0  0  0  0  0  0  0  0  0
    2.5164   -3.2062   -0.5078 H   0  0  0  0  0  0  0  0  0  0  0  0
    4.3293   -3.1950   -2.9497 H   0  0  0  0  0  0  0  0  0  0  0  0
    2.5841   -3.0764   -2.8827 H   0  0  0  0  0  0  0  0  0  0  0  0
    3.5587    0.3742   -3.2847 H   0  0  0  0  0  0  0  0  0  0  0  0
    2.5940   -0.9416   -3.9533 H   0  0  0  0  0  0  0  0  0  0  0  0
    4.3600   -0.9937   -4.0745 H   0  0  0  0  0  0  0  0  0  0  0  0
    5.6490   -1.3501   -2.0640 H   0  0  0  0  0  0  0  0  0  0  0  0
    4.8440    0.0535   -1.3961 H   0  0  0  0  0  0  0  0  0  0  0  0
    6.3496   -1.0233    1.5209 H   0  0  0  0  0  0  0  0  0  0  0  0
    6.6457   -0.2365    0.0563 H   0  0  0  0  0  0  0  0  0  0  0  0
    3.6844    0.9173    0.4827 H   0  0  0  0  0  0  0  0  0  0  0  0
    1.0232    1.5855    2.7768 H   0  0  0  0  0  0  0  0  0  0  0  0
    1.1711   -0.5821    3.6845 H   0  0  0  0  0  0  0  0  0  0  0  0
    2.2151   -2.8307    3.4482 H   0  0  0  0  0  0  0  0  0  0  0  0
    2.3385   -4.5130    1.2820 H   0  0  0  0  0  0  0  0  0  0  0  0
    0.8298   -7.5825    2.0629 H   0  0  0  0  0  0  0  0  0  0  0  0
    1.4583   -6.5307    0.8047 H   0  0  0  0  0  0  0  0  0  0  0  0
    0.9751   -5.8617    2.3855 H   0  0  0  0  0  0  0  0  0  0  0  0
    6.8870   -5.1052    3.2335 H   0  0  0  0  0  0  0  0  0  0  0  0
    6.5627   -5.2964    1.5254 H   0  0  0  0  0  0  0  0  0  0  0  0
    6.2580   -2.9270    2.2865 H   0  0  0  0  0  0  0  0  0  0  0  0
    5.1217   -3.4271    3.4912 H   0  0  0  0  0  0  0  0  0  0  0  0
  1  2  1  0
  1 30  1  0
  1 31  1  0
  1 32  1  0
  2  3  1  0
  3 13  1  0
  3  4  2  0
  4  5  1  0
  4 33  1  0
  6  5  1  6
  5 34  1  0
  5 35  1  0
  6 12  1  0
  6 21  1  0
  6  7  1  0
  7  8  1  0
  7 36  1  0
  7 37  1  0
  8  9  1  0
  8 38  1  0
  8 39  1  0
  9 10  1  0
  9 11  1  0
 10 40  1  0
 10 41  1  0
 10 42  1  0
 12 11  1  6
 11 43  1  0
 11 44  1  0
 12 13  1  0
 12 14  1  0
 13 45  1  0
 13 46  1  0
 14 20  2  0
 14 15  1  0
 15 16  2  0
 15 47  1  0
 16 17  1  0
 16 18  1  0
 17 48  1  0
 18 19  2  0
 18 49  1  0
 19 20  1  0
 19 50  1  0
 20 21  1  0
 21 29  1  1
 21 22  1  0
 22 23  2  0
 22 51  1  0
 23 24  1  0
 23 26  1  0
 24 25  1  0
 25 52  1  0
 25 53  1  0
 25 54  1  0
 26 27  2  0
 26 28  1  0
 28 29  1  0
 28 55  1  0
 28 56  1  0
 29 57  1  0
 29 58  1  0
M  END
>  <i_m_ct_stereo_status>  (285) 
1

>  <s_m_source_file>  (285) 
/var/tmp/pbs.5076255.sched01/tmp7zsp0c9b/86_oh4d05k.sdf

>  <i_m_source_file_index>  (285) 
30

>  <i_lp_mmshare_version>  (285) 
48012

>  <i_f3d_flags>  (285) 
0

>  <s_epik_input>  (285) 
W0NIM11PQyg9W0NIXVtDSDJdMSlbQ0gyXVtDQF0oW0NAXTEyMykoW0NIMl1OKFtDSDNdKVtDSDJdW0NIMl0yKWM0YyhbY0hdW2NIXWMoW2NIXTQpW09IXSlbQ0BAXTM1W0NIXT1DKE9bQ0gzXSlDKD1PKVtDSDJdW0NIMl01

>  <s_epik_cmdline>  (285) 
J2VwaWtfcHl0aG9uJywgJy1waHQnLCAnMi4wJywgJy1waCcsICc3LjAnLCAnLXRuJywgJzgnLCAnLW1hJywgJzIwMCcsICctaW1hZScsICc8aW5maWxlLm1hZT4nLCAnLW9tYWUnLCAnPG91dGZpbGUubWFlPic=

>  <r_lp_tautomer_probability>  (285) 
1

>  <r_epik_Ionization_Penalty>  (285) 
2.20023

>  <r_epik_Ionization_Penalty_Charging>  (285) 
0

>  <r_epik_Ionization_Penalty_Neutral>  (285) 
2.20023

>  <r_epik_State_Penalty>  (285) 
2.34351

>  <r_epik_Charging_Adjusted_Penalty>  (285) 
2.34351

>  <i_epik_Tot_Q>  (285) 
0

>  <i_epik_Tot_abs_Q>  (285) 
0

>  <s_lp_Force_Field>  (285) 
OPLS3e

>  <r_lp_Energy>  (285) 
58.4567

>  <b_lp_Chiralities_Consistent>  (285) 
1

>  <s_lp_Variant>  (285) 
78:0-2

>  <s_i_glide_gridfile>  (285) 
pfpi4k_grid

>  <i_i_glide_lignum>  (285) 
30

>  <i_i_glide_rotatable_bonds>  (285) 
3

>  <r_i_docking_score>  (285) 
-2.57359

>  <r_i_glide_ligand_efficiency>  (285) 
-0.0887445

>  <r_i_glide_ligand_efficiency_sa>  (285) 
-0.272651

>  <r_i_glide_ligand_efficiency_ln>  (285) 
-0.589287

>  <r_i_glide_gscore>  (285) 
-2.57359

>  <r_i_glide_lipo>  (285) 
-0.644353

>  <r_i_glide_hbond>  (285) 
0

>  <r_i_glide_metal>  (285) 
-0

>  <r_i_glide_rewards>  (285) 
-0.712559

>  <r_i_glide_evdw>  (285) 
-29.1998

>  <r_i_glide_ecoul>  (285) 
1.62209

>  <r_i_glide_erotb>  (285) 
0

>  <r_i_glide_esite>  (285) 
0

>  <r_i_glide_emodel>  (285) 
-30.5145

>  <r_i_glide_energy>  (285) 
-27.5777

>  <r_i_glide_einternal>  (285) 
2.77668

>  <r_i_glide_intrahb_reward>  (285) 
-0

>  <i_i_glide_confnum>  (285) 
3

>  <i_i_glide_posenum>  (285) 
25

>  <r_i_glide_eff_state_penalty>  (285) 
0

>  <ligand_id>  (285) 
78

>  <original_smiles>  (285) 
COC1=CCC23CCN(C)CC2(C1)c1cc(O)ccc1C31C=C(OC)C(=O)CC1

>  <smiles>  (285) 
[H]Oc1c([H])c([H])c2c(c1[H])C13C([H])([H])C(OC([H])([H])[H])=C([H])C([H])([H])C1(C([H])([H])C([H])([H])N(C([H])([H])[H])C3([H])[H])C21C([H])=C(OC([H])([H])[H])C(=O)C([H])([H])C1([H])[H]

$$$$
78:1:2
     RDKit          3D

 58 62  0  0  1  0  0  0  0  0999 V2000
    9.7070   -2.7018    0.4636 C   0  0  0  0  0  0  0  0  0  0  0  0
    8.6105   -1.7839    0.4584 O   0  0  0  0  0  0  0  0  0  0  0  0
    7.3542   -2.2724    0.1688 C   0  0  0  0  0  0  0  0  0  0  0  0
    7.1131   -3.5185   -0.2969 C   0  0  0  0  0  0  0  0  0  0  0  0
    5.7390   -4.0341   -0.6313 C   0  0  0  0  0  0  0  0  0  0  0  0
    4.5798   -3.2303   -0.0007 C   0  0  2  0  0  0  0  0  0  0  0  0
    3.3485   -3.5368   -0.9230 C   0  0  0  0  0  0  0  0  0  0  0  0
    3.3595   -2.8392   -2.2983 C   0  0  0  0  0  0  0  0  0  0  0  0
    3.4106   -1.4025   -2.0763 N   0  0  0  0  0  0  0  0  0  0  0  0
    3.3414   -0.6893   -3.3405 C   0  0  0  0  0  0  0  0  0  0  0  0
    4.6445   -1.0346   -1.3961 C   0  0  0  0  0  0  0  0  0  0  0  0
    4.8229   -1.6690    0.0023 C   0  0  2  0  0  0  0  0  0  0  0  0
    6.2552   -1.2430    0.4568 C   0  0  0  0  0  0  0  0  0  0  0  0
    3.8194   -1.2461    1.0667 C   0  0  0  0  0  0  0  0  0  0  0  0
    3.2386    0.0288    1.2495 C   0  0  0  0  0  0  0  0  0  0  0  0
    2.2578    0.2026    2.2353 C   0  0  0  0  0  0  0  0  0  0  0  0
    1.6458    1.4027    2.4118 O   0  0  0  0  0  0  0  0  0  0  0  0
    1.8784   -0.8982    3.0608 C   0  0  0  0  0  0  0  0  0  0  0  0
    2.4820   -2.1512    2.8929 C   0  0  0  0  0  0  0  0  0  0  0  0
    3.4742   -2.3063    1.8904 C   0  0  0  0  0  0  0  0  0  0  0  0
    4.2078   -3.5795    1.5121 C   0  0  1  0  0  0  0  0  0  0  0  0
    3.2893   -4.7986    1.6418 C   0  0  0  0  0  0  0  0  0  0  0  0
    3.6289   -6.0008    2.1686 C   0  0  0  0  0  0  0  0  0  0  0  0
    2.7498   -7.0531    2.3236 O   0  0  0  0  0  0  0  0  0  0  0  0
    1.4118   -6.8587    1.8752 C   0  0  0  0  0  0  0  0  0  0  0  0
    5.0040   -6.2428    2.6792 C   0  0  0  0  0  0  0  0  0  0  0  0
    5.3307   -7.2684    3.2711 O   0  0  0  0  0  0  0  0  0  0  0  0
    6.0614   -5.1571    2.4439 C   0  0  0  0  0  0  0  0  0  0  0  0
    5.4278   -3.7489    2.4897 C   0  0  0  0  0  0  0  0  0  0  0  0
   10.6679   -2.2022    0.5883 H   0  0  0  0  0  0  0  0  0  0  0  0
    9.7441   -3.2804   -0.4572 H   0  0  0  0  0  0  0  0  0  0  0  0
    9.6084   -3.4001    1.2888 H   0  0  0  0  0  0  0  0  0  0  0  0
    7.9047   -4.2283   -0.4770 H   0  0  0  0  0  0  0  0  0  0  0  0
    5.6964   -4.0251   -1.7216 H   0  0  0  0  0  0  0  0  0  0  0  0
    5.6499   -5.0844   -0.3430 H   0  0  0  0  0  0  0  0  0  0  0  0
    3.2827   -4.6107   -1.0976 H   0  0  0  0  0  0  0  0  0  0  0  0
    2.4039   -3.2600   -0.4521 H   0  0  0  0  0  0  0  0  0  0  0  0
    4.1813   -3.1779   -2.9229 H   0  0  0  0  0  0  0  0  0  0  0  0
    2.4357   -3.0803   -2.8314 H   0  0  0  0  0  0  0  0  0  0  0  0
    3.3714    0.3878   -3.1606 H   0  0  0  0  0  0  0  0  0  0  0  0
    2.4052   -0.9234   -3.8481 H   0  0  0  0  0  0  0  0  0  0  0  0
    4.1710   -0.9507   -3.9951 H   0  0  0  0  0  0  0  0  0  0  0  0
    5.4866   -1.3324   -2.0210 H   0  0  0  0  0  0  0  0  0  0  0  0
    4.6713    0.0513   -1.3097 H   0  0  0  0  0  0  0  0  0  0  0  0
    6.2561   -1.0920    1.5351 H   0  0  0  0  0  0  0  0  0  0  0  0
    6.5202   -0.2575    0.0742 H   0  0  0  0  0  0  0  0  0  0  0  0
    3.5338    0.8444    0.6021 H   0  0  0  0  0  0  0  0  0  0  0  0
    1.8459    2.0353    1.7338 H   0  0  0  0  0  0  0  0  0  0  0  0
    1.1166   -0.7518    3.8098 H   0  0  0  0  0  0  0  0  0  0  0  0
    2.1809   -2.9893    3.5029 H   0  0  0  0  0  0  0  0  0  0  0  0
    2.2792   -4.5965    1.2943 H   0  0  0  0  0  0  0  0  0  0  0  0
    0.8088   -7.7429    2.0411 H   0  0  0  0  0  0  0  0  0  0  0  0
    1.3975   -6.6501    0.8020 H   0  0  0  0  0  0  0  0  0  0  0  0
    0.9365   -6.0321    2.4114 H   0  0  0  0  0  0  0  0  0  0  0  0
    6.8552   -5.2092    3.1974 H   0  0  0  0  0  0  0  0  0  0  0  0
    6.5253   -5.3703    1.4801 H   0  0  0  0  0  0  0  0  0  0  0  0
    6.2175   -3.0219    2.3267 H   0  0  0  0  0  0  0  0  0  0  0  0
    5.0578   -3.5738    3.5086 H   0  0  0  0  0  0  0  0  0  0  0  0
  1  2  1  0
  1 30  1  0
  1 31  1  0
  1 32  1  0
  2  3  1  0
  3 13  1  0
  3  4  2  0
  4  5  1  0
  4 33  1  0
  6  5  1  6
  5 34  1  0
  5 35  1  0
  6 12  1  0
  6 21  1  0
  6  7  1  0
  7  8  1  0
  7 36  1  0
  7 37  1  0
  8  9  1  0
  8 38  1  0
  8 39  1  0
  9 10  1  0
  9 11  1  0
 10 40  1  0
 10 41  1  0
 10 42  1  0
 12 11  1  6
 11 43  1  0
 11 44  1  0
 12 13  1  0
 12 14  1  0
 13 45  1  0
 13 46  1  0
 14 20  2  0
 14 15  1  0
 15 16  2  0
 15 47  1  0
 16 17  1  0
 16 18  1  0
 17 48  1  0
 18 19  2  0
 18 49  1  0
 19 20  1  0
 19 50  1  0
 20 21  1  0
 21 29  1  1
 21 22  1  0
 22 23  2  0
 22 51  1  0
 23 24  1  0
 23 26  1  0
 24 25  1  0
 25 52  1  0
 25 53  1  0
 25 54  1  0
 26 27  2  0
 26 28  1  0
 28 29  1  0
 28 55  1  0
 28 56  1  0
 29 57  1  0
 29 58  1  0
M  END
>  <i_m_ct_stereo_status>  (286) 
1

>  <s_m_source_file>  (286) 
/var/tmp/pbs.5076255.sched01/tmp7zsp0c9b/86_oh4d05k.sdf

>  <i_m_source_file_index>  (286) 
30

>  <i_lp_mmshare_version>  (286) 
48012

>  <i_f3d_flags>  (286) 
0

>  <s_epik_input>  (286) 
W0NIM11PQyg9W0NIXVtDSDJdMSlbQ0gyXVtDQF0oW0NAXTEyMykoW0NIMl1OKFtDSDNdKVtDSDJdW0NIMl0yKWM0YyhbY0hdW2NIXWMoW2NIXTQpW09IXSlbQ0BAXTM1W0NIXT1DKE9bQ0gzXSlDKD1PKVtDSDJdW0NIMl01

>  <s_epik_cmdline>  (286) 
J2VwaWtfcHl0aG9uJywgJy1waHQnLCAnMi4wJywgJy1waCcsICc3LjAnLCAnLXRuJywgJzgnLCAnLW1hJywgJzIwMCcsICctaW1hZScsICc8aW5maWxlLm1hZT4nLCAnLW9tYWUnLCAnPG91dGZpbGUubWFlPic=

>  <r_lp_tautomer_probability>  (286) 
1

>  <r_epik_Ionization_Penalty>  (286) 
2.20023

>  <r_epik_Ionization_Penalty_Charging>  (286) 
0

>  <r_epik_Ionization_Penalty_Neutral>  (286) 
2.20023

>  <r_epik_State_Penalty>  (286) 
2.34351

>  <r_epik_Charging_Adjusted_Penalty>  (286) 
2.34351

>  <i_epik_Tot_Q>  (286) 
0

>  <i_epik_Tot_abs_Q>  (286) 
0

>  <s_lp_Force_Field>  (286) 
OPLS3e

>  <r_lp_Energy>  (286) 
58.4567

>  <b_lp_Chiralities_Consistent>  (286) 
1

>  <s_lp_Variant>  (286) 
78:0-2

>  <s_i_glide_gridfile>  (286) 
pfpi4k_grid

>  <i_i_glide_lignum>  (286) 
30

>  <i_i_glide_rotatable_bonds>  (286) 
3

>  <r_i_docking_score>  (286) 
-2.53326

>  <r_i_glide_ligand_efficiency>  (286) 
-0.0873538

>  <r_i_glide_ligand_efficiency_sa>  (286) 
-0.268378

>  <r_i_glide_ligand_efficiency_ln>  (286) 
-0.580052

>  <r_i_glide_gscore>  (286) 
-2.53326

>  <r_i_glide_lipo>  (286) 
-0.614611

>  <r_i_glide_hbond>  (286) 
0

>  <r_i_glide_metal>  (286) 
-0

>  <r_i_glide_rewards>  (286) 
-0.712559

>  <r_i_glide_evdw>  (286) 
-29.3045

>  <r_i_glide_ecoul>  (286) 
1.72756

>  <r_i_glide_erotb>  (286) 
0

>  <r_i_glide_esite>  (286) 
0

>  <r_i_glide_emodel>  (286) 
-30.3612

>  <r_i_glide_energy>  (286) 
-27.5769

>  <r_i_glide_einternal>  (286) 
3.01972

>  <r_i_glide_intrahb_reward>  (286) 
-0

>  <i_i_glide_confnum>  (286) 
3

>  <i_i_glide_posenum>  (286) 
38

>  <r_i_glide_eff_state_penalty>  (286) 
0

>  <ligand_id>  (286) 
78

>  <original_smiles>  (286) 
COC1=CCC23CCN(C)CC2(C1)c1cc(O)ccc1C31C=C(OC)C(=O)CC1

>  <smiles>  (286) 
[H]Oc1c([H])c([H])c2c(c1[H])C13C([H])([H])C(OC([H])([H])[H])=C([H])C([H])([H])C1(C([H])([H])C([H])([H])N(C([H])([H])[H])C3([H])[H])C21C([H])=C(OC([H])([H])[H])C(=O)C([H])([H])C1([H])[H]

$$$$
79:0:0
     RDKit          3D

 31 33  0  0  1  0  0  0  0  0999 V2000
    4.5592   -0.6423    0.4094 C   0  0  0  0  0  0  0  0  0  0  0  0
    4.0270   -1.9966    0.0401 N   0  0  0  0  0  0  0  0  0  0  0  0
    3.0525   -2.3801    1.1203 C   0  0  0  0  0  0  0  0  0  0  0  0
    5.0682   -3.0186   -0.2683 C   0  0  1  0  0  0  0  0  0  0  0  0
    4.2712   -4.2545   -0.7343 C   0  0  0  0  0  0  0  0  0  0  0  0
    3.0882   -3.5851   -1.4827 C   0  0  0  0  0  0  0  0  0  0  0  0
    3.4481   -2.0737   -1.3206 C   0  0  2  0  0  0  0  0  0  0  0  0
    4.5930   -1.8263   -2.3050 C   0  0  0  0  0  0  0  0  0  0  0  0
    5.7903   -2.4848   -1.5624 C   0  0  0  0  0  0  0  0  0  0  0  0
    4.7495   -0.4652   -2.5329 O   0  0  0  0  0  0  0  0  0  0  0  0
    3.9627   -0.1767   -3.6870 C   0  0  0  0  0  0  0  0  0  0  0  0
    3.4247   -1.5353   -4.1230 C   0  0  0  0  0  0  0  0  0  0  0  0
    4.3774   -2.4088   -3.5582 O   0  0  0  0  0  0  0  0  0  0  0  0
    4.9604   -0.6471    1.4221 H   0  0  0  0  0  0  0  0  0  0  0  0
    3.7416    0.0780    0.4120 H   0  0  0  0  0  0  0  0  0  0  0  0
    5.3468   -0.2238   -0.2146 H   0  0  0  0  0  0  0  0  0  0  0  0
    2.5447   -3.3440    1.0217 H   0  0  0  0  0  0  0  0  0  0  0  0
    2.2500   -1.6330    1.1364 H   0  0  0  0  0  0  0  0  0  0  0  0
    3.5285   -2.3783    2.1010 H   0  0  0  0  0  0  0  0  0  0  0  0
    5.7988   -3.1961    0.5037 H   0  0  0  0  0  0  0  0  0  0  0  0
    4.8464   -4.9377   -1.3587 H   0  0  0  0  0  0  0  0  0  0  0  0
    3.9185   -4.8260    0.1388 H   0  0  0  0  0  0  0  0  0  0  0  0
    3.0113   -3.8733   -2.5399 H   0  0  0  0  0  0  0  0  0  0  0  0
    2.1327   -3.8242   -1.0235 H   0  0  0  0  0  0  0  0  0  0  0  0
    2.6605   -1.3401   -1.4753 H   0  0  0  0  0  0  0  0  0  0  0  0
    6.4934   -1.7278   -1.2614 H   0  0  0  0  0  0  0  0  0  0  0  0
    6.2100   -3.3101   -2.1150 H   0  0  0  0  0  0  0  0  0  0  0  0
    3.1817    0.5406   -3.4613 H   0  0  0  0  0  0  0  0  0  0  0  0
    4.5488    0.2107   -4.5196 H   0  0  0  0  0  0  0  0  0  0  0  0
    2.4404   -1.7273   -3.6934 H   0  0  0  0  0  0  0  0  0  0  0  0
    3.3375   -1.6368   -5.1914 H   0  0  0  0  0  0  0  0  0  0  0  0
  1  2  1  0
  1 14  1  0
  1 15  1  0
  1 16  1  0
  2  7  1  0
  2  3  1  0
  2  4  1  0
  3 17  1  0
  3 18  1  0
  3 19  1  0
  4  9  1  0
  4  5  1  0
  4 20  1  1
  5  6  1  0
  5 21  1  0
  5 22  1  0
  6  7  1  0
  6 23  1  0
  6 24  1  0
  7  8  1  0
  7 25  1  1
  8 13  1  0
  8  9  1  0
  8 10  1  0
  9 26  1  0
  9 27  1  0
 10 11  1  0
 11 12  1  0
 11 28  1  0
 11 29  1  0
 12 13  1  0
 12 30  1  0
 12 31  1  0
M  CHG  1   2   1
M  END
>  <i_m_ct_stereo_status>  (287) 
1

>  <s_m_source_file>  (287) 
/var/tmp/pbs.5076255.sched01/tmp7zsp0c9b/86_oh4d05k.sdf

>  <i_m_source_file_index>  (287) 
31

>  <i_lp_mmshare_version>  (287) 
48012

>  <i_f3d_flags>  (287) 
0

>  <s_epik_input>  (287) 
W0NIMl0xW0NIMl1bQ0BASF0oW0NIMl0yKVtOK10oW0NIM10pKFtDSDNdKVtDQEhdMUMyM09bQ0gyXVtDSDJdTzM=

>  <s_epik_cmdline>  (287) 
J2VwaWtfcHl0aG9uJywgJy1waHQnLCAnMi4wJywgJy1waCcsICc3LjAnLCAnLXRuJywgJzgnLCAnLW1hJywgJzIwMCcsICctaW1hZScsICc8aW5maWxlLm1hZT4nLCAnLW9tYWUnLCAnPG91dGZpbGUubWFlPic=

>  <r_lp_tautomer_probability>  (287) 
1

>  <r_epik_Ionization_Penalty>  (287) 
1.31558e-16

>  <r_epik_Ionization_Penalty_Charging>  (287) 
0

>  <r_epik_Ionization_Penalty_Neutral>  (287) 
1.31558e-16

>  <r_epik_State_Penalty>  (287) 
-0

>  <r_epik_Charging_Adjusted_Penalty>  (287) 
0

>  <i_epik_Tot_Q>  (287) 
1

>  <i_epik_Tot_abs_Q>  (287) 
1

>  <s_lp_Force_Field>  (287) 
OPLS3e

>  <r_lp_Energy>  (287) 
21.435

>  <b_lp_Chiralities_Consistent>  (287) 
1

>  <s_lp_Variant>  (287) 
79:0-1

>  <s_i_glide_gridfile>  (287) 
pfpi4k_grid

>  <i_i_glide_lignum>  (287) 
31

>  <i_i_glide_rotatable_bonds>  (287) 
0

>  <r_i_docking_score>  (287) 
-3.82863

>  <r_i_glide_ligand_efficiency>  (287) 
-0.29451

>  <r_i_glide_ligand_efficiency_sa>  (287) 
-0.692492

>  <r_i_glide_ligand_efficiency_ln>  (287) 
-1.07397

>  <r_i_glide_gscore>  (287) 
-3.82863

>  <r_i_glide_lipo>  (287) 
-0.391856

>  <r_i_glide_hbond>  (287) 
0

>  <r_i_glide_metal>  (287) 
-0

>  <r_i_glide_rewards>  (287) 
-2.1528

>  <r_i_glide_evdw>  (287) 
-13.9642

>  <r_i_glide_ecoul>  (287) 
-3.6525

>  <r_i_glide_erotb>  (287) 
0

>  <r_i_glide_esite>  (287) 
-0.0378889

>  <r_i_glide_emodel>  (287) 
-21.3204

>  <r_i_glide_energy>  (287) 
-17.6167

>  <r_i_glide_einternal>  (287) 
0

>  <r_i_glide_intrahb_reward>  (287) 
-0

>  <i_i_glide_confnum>  (287) 
2

>  <i_i_glide_posenum>  (287) 
3

>  <r_i_glide_eff_state_penalty>  (287) 
0

>  <ligand_id>  (287) 
79

>  <original_smiles>  (287) 
C[N+]1(C)C2CCC1C1(C2)OCCO1

>  <smiles>  (287) 
[H]C1([H])OC2(OC1([H])[H])C([H])([H])C1([H])C([H])([H])C([H])([H])C2([H])[N+]1(C([H])([H])[H])C([H])([H])[H]

$$$$
79:0:1
     RDKit          3D

 31 33  0  0  1  0  0  0  0  0999 V2000
    6.1718   -3.2691   -2.1956 C   0  0  0  0  0  0  0  0  0  0  0  0
    5.1943   -2.7503   -1.1910 N   0  0  0  0  0  0  0  0  0  0  0  0
    5.9262   -2.6765    0.1106 C   0  0  0  0  0  0  0  0  0  0  0  0
    3.9125   -3.5152   -1.1535 C   0  0  1  0  0  0  0  0  0  0  0  0
    3.0530   -2.7294   -0.1306 C   0  0  0  0  0  0  0  0  0  0  0  0
    3.4974   -1.2791   -0.4329 C   0  0  0  0  0  0  0  0  0  0  0  0
    4.5408   -1.4848   -1.5768 C   0  0  2  0  0  0  0  0  0  0  0  0
    3.7131   -1.8337   -2.8383 C   0  0  0  0  0  0  0  0  0  0  0  0
    3.2582   -3.2729   -2.5309 C   0  0  0  0  0  0  0  0  0  0  0  0
    4.4496   -1.7587   -4.0177 O   0  0  0  0  0  0  0  0  0  0  0  0
    4.0385   -0.5639   -4.6489 C   0  0  0  0  0  0  0  0  0  0  0  0
    2.6092   -0.4646   -4.2037 C   0  0  0  0  0  0  0  0  0  0  0  0
    2.6461   -0.9766   -2.9104 O   0  0  0  0  0  0  0  0  0  0  0  0
    6.5797   -4.1705   -1.7681 H   0  0  0  0  0  0  0  0  0  0  0  0
    6.9955   -2.5669   -2.3052 H   0  0  0  0  0  0  0  0  0  0  0  0
    5.8179   -3.5277   -3.1947 H   0  0  0  0  0  0  0  0  0  0  0  0
    5.3746   -2.3114    0.9790 H   0  0  0  0  0  0  0  0  0  0  0  0
    6.7665   -1.9979   -0.0080 H   0  0  0  0  0  0  0  0  0  0  0  0
    6.3285   -3.6484    0.3973 H   0  0  0  0  0  0  0  0  0  0  0  0
    3.9919   -4.5835   -0.9243 H   0  0  0  0  0  0  0  0  0  0  0  0
    1.9781   -2.8834   -0.2692 H   0  0  0  0  0  0  0  0  0  0  0  0
    3.2943   -3.0083    0.8902 H   0  0  0  0  0  0  0  0  0  0  0  0
    2.6384   -0.6660   -0.6704 H   0  0  0  0  0  0  0  0  0  0  0  0
    3.9591   -0.8012    0.4278 H   0  0  0  0  0  0  0  0  0  0  0  0
    5.2015   -0.6342   -1.7695 H   0  0  0  0  0  0  0  0  0  0  0  0
    3.6662   -3.9370   -3.3085 H   0  0  0  0  0  0  0  0  0  0  0  0
    2.1617   -3.3540   -2.5194 H   0  0  0  0  0  0  0  0  0  0  0  0
    4.6065    0.2736   -4.2504 H   0  0  0  0  0  0  0  0  0  0  0  0
    4.1077   -0.6025   -5.7324 H   0  0  0  0  0  0  0  0  0  0  0  0
    2.2076    0.5468   -4.2157 H   0  0  0  0  0  0  0  0  0  0  0  0
    1.9445   -1.0867   -4.7988 H   0  0  0  0  0  0  0  0  0  0  0  0
  1  2  1  0
  1 14  1  0
  1 15  1  0
  1 16  1  0
  2  7  1  0
  2  3  1  0
  2  4  1  0
  3 17  1  0
  3 18  1  0
  3 19  1  0
  4  9  1  0
  4  5  1  0
  4 20  1  1
  5  6  1  0
  5 21  1  0
  5 22  1  0
  6  7  1  0
  6 23  1  0
  6 24  1  0
  7  8  1  0
  7 25  1  6
  8 13  1  0
  8  9  1  0
  8 10  1  0
  9 26  1  0
  9 27  1  0
 10 11  1  0
 11 12  1  0
 11 28  1  0
 11 29  1  0
 12 13  1  0
 12 30  1  0
 12 31  1  0
M  CHG  1   2   1
M  END
>  <i_m_ct_stereo_status>  (288) 
1

>  <s_m_source_file>  (288) 
/var/tmp/pbs.5076255.sched01/tmp7zsp0c9b/86_oh4d05k.sdf

>  <i_m_source_file_index>  (288) 
31

>  <i_lp_mmshare_version>  (288) 
48012

>  <i_f3d_flags>  (288) 
0

>  <s_epik_input>  (288) 
W0NIMl0xW0NIMl1bQ0BASF0oW0NIMl0yKVtOK10oW0NIM10pKFtDSDNdKVtDQEhdMUMyM09bQ0gyXVtDSDJdTzM=

>  <s_epik_cmdline>  (288) 
J2VwaWtfcHl0aG9uJywgJy1waHQnLCAnMi4wJywgJy1waCcsICc3LjAnLCAnLXRuJywgJzgnLCAnLW1hJywgJzIwMCcsICctaW1hZScsICc8aW5maWxlLm1hZT4nLCAnLW9tYWUnLCAnPG91dGZpbGUubWFlPic=

>  <r_lp_tautomer_probability>  (288) 
1

>  <r_epik_Ionization_Penalty>  (288) 
1.31558e-16

>  <r_epik_Ionization_Penalty_Charging>  (288) 
0

>  <r_epik_Ionization_Penalty_Neutral>  (288) 
1.31558e-16

>  <r_epik_State_Penalty>  (288) 
-0

>  <r_epik_Charging_Adjusted_Penalty>  (288) 
0

>  <i_epik_Tot_Q>  (288) 
1

>  <i_epik_Tot_abs_Q>  (288) 
1

>  <s_lp_Force_Field>  (288) 
OPLS3e

>  <r_lp_Energy>  (288) 
21.435

>  <b_lp_Chiralities_Consistent>  (288) 
1

>  <s_lp_Variant>  (288) 
79:0-1

>  <s_i_glide_gridfile>  (288) 
pfpi4k_grid

>  <i_i_glide_lignum>  (288) 
31

>  <i_i_glide_rotatable_bonds>  (288) 
0

>  <r_i_docking_score>  (288) 
-3.76106

>  <r_i_glide_ligand_efficiency>  (288) 
-0.289312

>  <r_i_glide_ligand_efficiency_sa>  (288) 
-0.680269

>  <r_i_glide_ligand_efficiency_ln>  (288) 
-1.05501

>  <r_i_glide_gscore>  (288) 
-3.76106

>  <r_i_glide_lipo>  (288) 
-0.603296

>  <r_i_glide_hbond>  (288) 
-0.15874

>  <r_i_glide_metal>  (288) 
-0

>  <r_i_glide_rewards>  (288) 
-2.1528

>  <r_i_glide_evdw>  (288) 
-8.1301

>  <r_i_glide_ecoul>  (288) 
-2.88565

>  <r_i_glide_erotb>  (288) 
0

>  <r_i_glide_esite>  (288) 
-0.00686332

>  <r_i_glide_emodel>  (288) 
-15.3185

>  <r_i_glide_energy>  (288) 
-11.0157

>  <r_i_glide_einternal>  (288) 
0

>  <r_i_glide_intrahb_reward>  (288) 
-0

>  <i_i_glide_confnum>  (288) 
3

>  <i_i_glide_posenum>  (288) 
8

>  <r_i_glide_eff_state_penalty>  (288) 
0

>  <ligand_id>  (288) 
79

>  <original_smiles>  (288) 
C[N+]1(C)C2CCC1C1(C2)OCCO1

>  <smiles>  (288) 
[H]C1([H])OC2(OC1([H])[H])C([H])([H])C1([H])C([H])([H])C([H])([H])C2([H])[N+]1(C([H])([H])[H])C([H])([H])[H]

$$$$
79:0:2
     RDKit          3D

 31 33  0  0  1  0  0  0  0  0999 V2000
    5.3164   -0.7036   -0.0368 C   0  0  0  0  0  0  0  0  0  0  0  0
    4.5525   -1.4095    1.0152 N   0  0  0  0  0  0  0  0  0  0  0  0
    4.1910   -0.3568    2.0590 C   0  0  0  0  0  0  0  0  0  0  0  0
    5.1827   -2.6296    1.5562 C   0  0  1  0  0  0  0  0  0  0  0  0
    4.1488   -3.2340    2.5283 C   0  0  0  0  0  0  0  0  0  0  0  0
    2.8241   -2.8962    1.8114 C   0  0  0  0  0  0  0  0  0  0  0  0
    3.3412   -2.1419    0.5392 C   0  0  2  0  0  0  0  0  0  0  0  0
    3.9023   -3.2541   -0.3726 C   0  0  0  0  0  0  0  0  0  0  0  0
    5.2412   -3.6385    0.3265 C   0  0  0  0  0  0  0  0  0  0  0  0
    4.0833   -2.8205   -1.6807 O   0  0  0  0  0  0  0  0  0  0  0  0
    2.8846   -3.1479   -2.3693 C   0  0  0  0  0  0  0  0  0  0  0  0
    2.0363   -3.8903   -1.3271 C   0  0  0  0  0  0  0  0  0  0  0  0
    3.0173   -4.3293   -0.4138 O   0  0  0  0  0  0  0  0  0  0  0  0
    6.1654   -0.1618    0.3934 H   0  0  0  0  0  0  0  0  0  0  0  0
    4.6712    0.0292   -0.5130 H   0  0  0  0  0  0  0  0  0  0  0  0
    5.7461   -1.3090   -0.8506 H   0  0  0  0  0  0  0  0  0  0  0  0
    3.6114   -0.7017    2.9054 H   0  0  0  0  0  0  0  0  0  0  0  0
    3.5939    0.4033    1.5535 H   0  0  0  0  0  0  0  0  0  0  0  0
    5.0995    0.1060    2.4427 H   0  0  0  0  0  0  0  0  0  0  0  0
    6.1817   -2.5114    1.9665 H   0  0  0  0  0  0  0  0  0  0  0  0
    4.2776   -4.3016    2.7012 H   0  0  0  0  0  0  0  0  0  0  0  0
    4.2078   -2.7333    3.5081 H   0  0  0  0  0  0  0  0  0  0  0  0
    2.2230   -3.7955    1.6242 H   0  0  0  0  0  0  0  0  0  0  0  0
    2.2024   -2.2262    2.4025 H   0  0  0  0  0  0  0  0  0  0  0  0
    2.6249   -1.5018    0.0422 H   0  0  0  0  0  0  0  0  0  0  0  0
    6.0822   -3.3924   -0.3126 H   0  0  0  0  0  0  0  0  0  0  0  0
    5.2503   -4.6697    0.6706 H   0  0  0  0  0  0  0  0  0  0  0  0
    2.3978   -2.2493   -2.7463 H   0  0  0  0  0  0  0  0  0  0  0  0
    3.1188   -3.7726   -3.2246 H   0  0  0  0  0  0  0  0  0  0  0  0
    1.3930   -3.1948   -0.7988 H   0  0  0  0  0  0  0  0  0  0  0  0
    1.3877   -4.6821   -1.7201 H   0  0  0  0  0  0  0  0  0  0  0  0
  1  2  1  0
  1 14  1  0
  1 15  1  0
  1 16  1  0
  2  7  1  0
  2  3  1  0
  2  4  1  0
  3 17  1  0
  3 18  1  0
  3 19  1  0
  4  9  1  0
  4  5  1  0
  4 20  1  1
  5  6  1  0
  5 21  1  0
  5 22  1  0
  6  7  1  0
  6 23  1  0
  6 24  1  0
  7  8  1  0
  7 25  1  6
  8 13  1  0
  8  9  1  0
  8 10  1  0
  9 26  1  0
  9 27  1  0
 10 11  1  0
 11 12  1  0
 11 28  1  0
 11 29  1  0
 12 13  1  0
 12 30  1  0
 12 31  1  0
M  CHG  1   2   1
M  END
>  <i_m_ct_stereo_status>  (289) 
1

>  <s_m_source_file>  (289) 
/var/tmp/pbs.5076255.sched01/tmp7zsp0c9b/86_oh4d05k.sdf

>  <i_m_source_file_index>  (289) 
31

>  <i_lp_mmshare_version>  (289) 
48012

>  <i_f3d_flags>  (289) 
0

>  <s_epik_input>  (289) 
W0NIMl0xW0NIMl1bQ0BASF0oW0NIMl0yKVtOK10oW0NIM10pKFtDSDNdKVtDQEhdMUMyM09bQ0gyXVtDSDJdTzM=

>  <s_epik_cmdline>  (289) 
J2VwaWtfcHl0aG9uJywgJy1waHQnLCAnMi4wJywgJy1waCcsICc3LjAnLCAnLXRuJywgJzgnLCAnLW1hJywgJzIwMCcsICctaW1hZScsICc8aW5maWxlLm1hZT4nLCAnLW9tYWUnLCAnPG91dGZpbGUubWFlPic=

>  <r_lp_tautomer_probability>  (289) 
1

>  <r_epik_Ionization_Penalty>  (289) 
1.31558e-16

>  <r_epik_Ionization_Penalty_Charging>  (289) 
0

>  <r_epik_Ionization_Penalty_Neutral>  (289) 
1.31558e-16

>  <r_epik_State_Penalty>  (289) 
-0

>  <r_epik_Charging_Adjusted_Penalty>  (289) 
0

>  <i_epik_Tot_Q>  (289) 
1

>  <i_epik_Tot_abs_Q>  (289) 
1

>  <s_lp_Force_Field>  (289) 
OPLS3e

>  <r_lp_Energy>  (289) 
21.435

>  <b_lp_Chiralities_Consistent>  (289) 
1

>  <s_lp_Variant>  (289) 
79:0-1

>  <s_i_glide_gridfile>  (289) 
pfpi4k_grid

>  <i_i_glide_lignum>  (289) 
31

>  <i_i_glide_rotatable_bonds>  (289) 
0

>  <r_i_docking_score>  (289) 
-3.3869

>  <r_i_glide_ligand_efficiency>  (289) 
-0.26053

>  <r_i_glide_ligand_efficiency_sa>  (289) 
-0.612594

>  <r_i_glide_ligand_efficiency_ln>  (289) 
-0.950054

>  <r_i_glide_gscore>  (289) 
-3.3869

>  <r_i_glide_lipo>  (289) 
-0.190301

>  <r_i_glide_hbond>  (289) 
0

>  <r_i_glide_metal>  (289) 
-0

>  <r_i_glide_rewards>  (289) 
-2.19414

>  <r_i_glide_evdw>  (289) 
-10.9178

>  <r_i_glide_ecoul>  (289) 
-3.04377

>  <r_i_glide_erotb>  (289) 
0

>  <r_i_glide_esite>  (289) 
0

>  <r_i_glide_emodel>  (289) 
-17.4202

>  <r_i_glide_energy>  (289) 
-13.9615

>  <r_i_glide_einternal>  (289) 
0

>  <r_i_glide_intrahb_reward>  (289) 
-0

>  <i_i_glide_confnum>  (289) 
2

>  <i_i_glide_posenum>  (289) 
5

>  <r_i_glide_eff_state_penalty>  (289) 
0

>  <ligand_id>  (289) 
79

>  <original_smiles>  (289) 
C[N+]1(C)C2CCC1C1(C2)OCCO1

>  <smiles>  (289) 
[H]C1([H])OC2(OC1([H])[H])C([H])([H])C1([H])C([H])([H])C([H])([H])C2([H])[N+]1(C([H])([H])[H])C([H])([H])[H]

$$$$
80:0:0
     RDKit          3D

 79 85  0  0  1  0  0  0  0  0999 V2000
    3.8987   -9.9544    2.7862 C   0  0  0  0  0  0  0  0  0  0  0  0
    4.7524   -8.8258    2.2755 C   0  0  0  0  0  0  0  0  0  0  0  0
    4.2126   -7.8565    1.3940 C   0  0  0  0  0  0  0  0  0  0  0  0
    5.0485   -6.8349    0.8782 C   0  0  0  0  0  0  0  0  0  0  0  0
    4.4344   -5.7526   -0.0294 C   0  0  0  0  0  0  0  0  0  0  0  0
    4.8548   -4.2421    0.2163 C   0  0  2  0  0  0  0  0  0  0  0  0
    6.3353   -4.1080    0.5192 C   0  0  0  0  0  0  0  0  0  0  0  0
    6.9318   -2.7596    0.5746 C   0  0  1  0  0  0  0  0  0  0  0  0
    6.8563   -2.1523   -0.7007 O   0  0  0  0  0  0  0  0  0  0  0  0
    6.1740   -1.9587    1.5935 C   0  0  2  0  0  0  0  0  0  0  0  0
    5.7461   -2.6355    2.7710 O   0  0  0  0  0  0  0  0  0  0  0  0
    4.6815   -2.1847    1.9355 C   0  0  1  0  0  0  0  0  0  0  0  0
    3.8709   -0.9864    2.6228 C   0  0  1  0  0  0  0  0  0  0  0  0
    4.9279    0.0520    3.1388 C   0  0  0  0  0  0  0  0  0  0  0  0
    3.0056   -0.2488    1.5841 C   0  0  0  0  0  0  0  0  0  0  0  0
    2.4664    1.0903    2.0960 C   0  0  0  0  0  0  0  0  0  0  0  0
    1.6868    0.9873    3.4400 C   0  0  1  0  0  0  0  0  0  0  0  0
    0.1161    0.9822    3.3148 C   0  0  0  0  0  0  0  0  0  0  0  0
   -0.4952    2.2108    4.0358 C   0  0  0  0  0  0  0  0  0  0  0  0
   -0.4702    0.9581    1.8844 C   0  0  0  0  0  0  0  0  0  0  0  0
   -0.3056   -0.3030    4.0334 C   0  0  0  0  0  0  0  0  0  0  0  0
    0.7340   -0.4788    5.1205 C   0  0  0  0  0  0  0  0  0  0  0  0
    2.1162   -0.1405    4.4791 C   0  0  2  0  0  0  0  0  0  0  0  0
    2.9086    0.4061    5.7093 C   0  0  0  0  0  0  0  0  0  0  0  0
    2.9408   -1.3834    3.8453 C   0  0  1  0  0  0  0  0  0  0  0  0
    2.0379   -2.6363    3.5986 C   0  0  0  0  0  0  0  0  0  0  0  0
    2.7431   -3.9620    3.5162 C   0  0  1  0  0  0  0  0  0  0  0  0
    2.2660   -4.8503    2.5141 O   0  0  0  0  0  0  0  0  0  0  0  0
    3.6004   -4.3781    2.3743 C   0  0  1  0  0  0  0  0  0  0  0  0
    3.9474   -3.4265    1.2302 C   0  0  2  0  0  0  0  0  0  0  0  0
    2.7455   -3.0624    0.3094 C   0  0  0  0  0  0  0  0  0  0  0  0
    6.4234   -6.8394    1.2251 C   0  0  0  0  0  0  0  0  0  0  0  0
    6.9333   -7.7194    2.1536 C   0  0  0  0  0  0  0  0  0  0  0  0
    6.1159   -8.7526    2.6885 C   0  0  0  0  0  0  0  0  0  0  0  0
    6.7023   -9.6631    3.5328 O   0  0  0  0  0  0  0  0  0  0  0  0
    2.8967   -9.8769    2.3816 H   0  0  0  0  0  0  0  0  0  0  0  0
    3.8690   -9.8924    3.8680 H   0  0  0  0  0  0  0  0  0  0  0  0
    4.3457  -10.8942    2.4769 H   0  0  0  0  0  0  0  0  0  0  0  0
    3.1484   -7.9151    1.0995 H   0  0  0  0  0  0  0  0  0  0  0  0
    4.6703   -6.0278   -1.0577 H   0  0  0  0  0  0  0  0  0  0  0  0
    3.3358   -5.8260   -0.0086 H   0  0  0  0  0  0  0  0  0  0  0  0
    4.7690   -3.7594   -0.7597 H   0  0  0  0  0  0  0  0  0  0  0  0
    6.5271   -4.5421    1.5220 H   0  0  0  0  0  0  0  0  0  0  0  0
    6.9111   -4.6815   -0.2272 H   0  0  0  0  0  0  0  0  0  0  0  0
    7.9750   -2.8630    0.8882 H   0  0  0  0  0  0  0  0  0  0  0  0
    5.9487   -2.2441   -0.9643 H   0  0  0  0  0  0  0  0  0  0  0  0
    6.7044   -1.0287    1.8203 H   0  0  0  0  0  0  0  0  0  0  0  0
    4.5089    0.9137    3.6383 H   0  0  0  0  0  0  0  0  0  0  0  0
    5.4753    0.5081    2.3276 H   0  0  0  0  0  0  0  0  0  0  0  0
    5.6414   -0.3632    3.8400 H   0  0  0  0  0  0  0  0  0  0  0  0
    3.5768   -0.0706    0.6754 H   0  0  0  0  0  0  0  0  0  0  0  0
    2.1330   -0.8276    1.3003 H   0  0  0  0  0  0  0  0  0  0  0  0
    3.2867    1.7968    2.1901 H   0  0  0  0  0  0  0  0  0  0  0  0
    1.8808    1.5695    1.3134 H   0  0  0  0  0  0  0  0  0  0  0  0
    1.9349    1.9408    3.9142 H   0  0  0  0  0  0  0  0  0  0  0  0
   -1.5862    2.1692    4.0373 H   0  0  0  0  0  0  0  0  0  0  0  0
   -0.2102    3.1419    3.5414 H   0  0  0  0  0  0  0  0  0  0  0  0
   -0.1730    2.2857    5.0746 H   0  0  0  0  0  0  0  0  0  0  0  0
   -1.5513    0.8175    1.9054 H   0  0  0  0  0  0  0  0  0  0  0  0
   -0.0528    0.1504    1.2845 H   0  0  0  0  0  0  0  0  0  0  0  0
   -0.2939    1.8927    1.3501 H   0  0  0  0  0  0  0  0  0  0  0  0
   -1.3229   -0.2517    4.4193 H   0  0  0  0  0  0  0  0  0  0  0  0
   -0.2668   -1.1424    3.3460 H   0  0  0  0  0  0  0  0  0  0  0  0
    0.4894    0.2541    5.8871 H   0  0  0  0  0  0  0  0  0  0  0  0
    0.6774   -1.4149    5.6581 H   0  0  0  0  0  0  0  0  0  0  0  0
    2.8416   -0.2986    6.5407 H   0  0  0  0  0  0  0  0  0  0  0  0
    2.5032    1.3529    6.0734 H   0  0  0  0  0  0  0  0  0  0  0  0
    3.9761    0.5537    5.5635 H   0  0  0  0  0  0  0  0  0  0  0  0
    3.6184   -1.7200    4.6317 H   0  0  0  0  0  0  0  0  0  0  0  0
    1.3504   -2.8188    4.4106 H   0  0  0  0  0  0  0  0  0  0  0  0
    1.3970   -2.4835    2.7374 H   0  0  0  0  0  0  0  0  0  0  0  0
    2.9829   -4.4272    4.4703 H   0  0  0  0  0  0  0  0  0  0  0  0
    4.3731   -5.0866    2.6628 H   0  0  0  0  0  0  0  0  0  0  0  0
    1.8196   -2.8558    0.8119 H   0  0  0  0  0  0  0  0  0  0  0  0
    2.4863   -3.8556   -0.3842 H   0  0  0  0  0  0  0  0  0  0  0  0
    2.9930   -2.2138   -0.3244 H   0  0  0  0  0  0  0  0  0  0  0  0
    7.1751   -6.2306    0.8077 H   0  0  0  0  0  0  0  0  0  0  0  0
    7.9668   -7.6055    2.4300 H   0  0  0  0  0  0  0  0  0  0  0  0
    7.6160   -9.4099    3.6478 H   0  0  0  0  0  0  0  0  0  0  0  0
  1  2  1  0
  1 36  1  0
  1 37  1  0
  1 38  1  0
  2 34  2  0
  2  3  1  0
  3  4  2  0
  3 39  1  0
  4  5  1  0
  4 32  1  0
  5  6  1  0
  5 40  1  0
  5 41  1  0
  6 30  1  0
  6  7  1  0
  6 42  1  6
  7  8  1  0
  7 43  1  0
  7 44  1  0
  8  9  1  0
  8 10  1  0
  8 45  1  1
  9 46  1  0
 10 12  1  0
 10 11  1  0
 10 47  1  1
 12 11  1  1
 12 30  1  0
 12 13  1  0
 13 25  1  0
 13 14  1  1
 13 15  1  0
 14 48  1  0
 14 49  1  0
 14 50  1  0
 15 16  1  0
 15 51  1  0
 15 52  1  0
 16 17  1  0
 16 53  1  0
 16 54  1  0
 17 23  1  0
 17 18  1  0
 17 55  1  1
 18 19  1  0
 18 20  1  0
 18 21  1  0
 19 56  1  0
 19 57  1  0
 19 58  1  0
 20 59  1  0
 20 60  1  0
 20 61  1  0
 21 22  1  0
 21 62  1  0
 21 63  1  0
 22 23  1  0
 22 64  1  0
 22 65  1  0
 23 24  1  1
 23 25  1  0
 24 66  1  0
 24 67  1  0
 24 68  1  0
 25 26  1  0
 25 69  1  1
 26 27  1  0
 26 70  1  0
 26 71  1  0
 27 29  1  0
 27 28  1  0
 27 72  1  1
 28 29  1  0
 29 30  1  0
 29 73  1  1
 30 31  1  6
 31 74  1  0
 31 75  1  0
 31 76  1  0
 32 33  2  0
 32 77  1  0
 33 34  1  0
 33 78  1  0
 34 35  1  0
 35 79  1  0
M  END
>  <i_m_ct_stereo_status>  (290) 
1

>  <s_m_source_file>  (290) 
/var/tmp/pbs.5076255.sched01/tmp7zsp0c9b/86_oh4d05k.sdf

>  <i_m_source_file_index>  (290) 
32

>  <i_lp_mmshare_version>  (290) 
48012

>  <i_f3d_flags>  (290) 
0

>  <s_epik_input>  (290) 
W09IXWMxW2NIXVtjSF1jKFtjSF1jMVtDSDNdKVtDSDJdW0NASF0oW0NIMl1bQ0BASF0oW09IXSlbQ0BIXShPMilbQ0BAXTIzNClbQ0BAXTQoW0NIM10pW0NASF01W0NASF0oTzUpW0NIMl1bQ0BIXTZbQ0BdMyhbQ0gzXSlbQ0gyXVtDSDJdW0NAQEhdN1tDQEBdNihbQ0gzXSlbQ0gyXVtDSDJdQzcoW0NIM10pW0NIM10=

>  <s_epik_cmdline>  (290) 
J2VwaWtfcHl0aG9uJywgJy1waHQnLCAnMi4wJywgJy1waCcsICc3LjAnLCAnLXRuJywgJzgnLCAnLW1hJywgJzIwMCcsICctaW1hZScsICc8aW5maWxlLm1hZT4nLCAnLW9tYWUnLCAnPG91dGZpbGUubWFlPic=

>  <r_lp_tautomer_probability>  (290) 
1

>  <r_epik_Ionization_Penalty>  (290) 
0.00010961

>  <r_epik_Ionization_Penalty_Charging>  (290) 
0

>  <r_epik_Ionization_Penalty_Neutral>  (290) 
0.00010961

>  <r_epik_State_Penalty>  (290) 
-0

>  <r_epik_Charging_Adjusted_Penalty>  (290) 
0

>  <i_epik_Tot_Q>  (290) 
0

>  <i_epik_Tot_abs_Q>  (290) 
0

>  <s_lp_Force_Field>  (290) 
OPLS3e

>  <r_lp_Energy>  (290) 
109.447

>  <b_lp_Chiralities_Consistent>  (290) 
1

>  <s_lp_Variant>  (290) 
80:0-1

>  <s_i_glide_gridfile>  (290) 
pfpi4k_grid

>  <i_i_glide_lignum>  (290) 
32

>  <i_i_glide_rotatable_bonds>  (290) 
4

>  <r_i_docking_score>  (290) 
-2.7217

>  <r_i_glide_ligand_efficiency>  (290) 
-0.0777628

>  <r_i_glide_ligand_efficiency_sa>  (290) 
-0.254367

>  <r_i_glide_ligand_efficiency_ln>  (290) 
-0.597473

>  <r_i_glide_gscore>  (290) 
-2.7217

>  <r_i_glide_lipo>  (290) 
-0.775654

>  <r_i_glide_hbond>  (290) 
-0.157336

>  <r_i_glide_metal>  (290) 
-0

>  <r_i_glide_rewards>  (290) 
-0.131736

>  <r_i_glide_evdw>  (290) 
-25.5023

>  <r_i_glide_ecoul>  (290) 
-3.71603

>  <r_i_glide_erotb>  (290) 
0.175552

>  <r_i_glide_esite>  (290) 
0

>  <r_i_glide_emodel>  (290) 
-28.8824

>  <r_i_glide_energy>  (290) 
-29.2184

>  <r_i_glide_einternal>  (290) 
6.24923

>  <r_i_glide_intrahb_reward>  (290) 
-0

>  <i_i_glide_confnum>  (290) 
4

>  <i_i_glide_posenum>  (290) 
15

>  <r_i_glide_eff_state_penalty>  (290) 
0

>  <ligand_id>  (290) 
80

>  <original_smiles>  (290) 
Cc1cc(CC2CC(O)C3OC34C3(C)CCC5C(C)(C)CCC5(C)C3CC3OC3C24C)ccc1O

>  <smiles>  (290) 
[H]Oc1c([H])c([H])c(C([H])([H])C2([H])C([H])([H])C([H])(O[H])C3([H])OC34C3(C([H])([H])[H])C([H])([H])C([H])([H])C5([H])C(C([H])([H])[H])(C([H])([H])[H])C([H])([H])C([H])([H])C5(C([H])([H])[H])C3([H])C([H])([H])C3([H])OC3([H])C24C([H])([H])[H])c([H])c1C([H])([H])[H]

$$$$
80:0:1
     RDKit          3D

 79 85  0  0  1  0  0  0  0  0999 V2000
    3.4356   -3.5235   -1.1339 C   0  0  0  0  0  0  0  0  0  0  0  0
    3.3015   -4.1283    0.2424 C   0  0  0  0  0  0  0  0  0  0  0  0
    2.5464   -3.4341    1.2049 C   0  0  0  0  0  0  0  0  0  0  0  0
    2.4516   -3.8882    2.5286 C   0  0  0  0  0  0  0  0  0  0  0  0
    1.7076   -3.0675    3.5830 C   0  0  0  0  0  0  0  0  0  0  0  0
    1.9076   -1.5044    3.4903 C   0  0  2  0  0  0  0  0  0  0  0  0
    3.3576   -1.1288    3.0755 C   0  0  0  0  0  0  0  0  0  0  0  0
    3.4490    0.3382    2.6844 C   0  0  1  0  0  0  0  0  0  0  0  0
    2.6519    0.5899    1.5403 O   0  0  0  0  0  0  0  0  0  0  0  0
    3.0213    1.2149    3.8031 C   0  0  2  0  0  0  0  0  0  0  0  0
    3.3809    0.7501    5.1085 O   0  0  0  0  0  0  0  0  0  0  0  0
    1.9607    0.8146    4.8435 C   0  0  1  0  0  0  0  0  0  0  0  0
    1.2732    1.9470    5.7342 C   0  0  1  0  0  0  0  0  0  0  0  0
    2.1459    3.2467    5.5530 C   0  0  0  0  0  0  0  0  0  0  0  0
   -0.1242    2.3178    5.1972 C   0  0  0  0  0  0  0  0  0  0  0  0
   -0.6725    3.6197    5.7871 C   0  0  0  0  0  0  0  0  0  0  0  0
   -0.7017    3.6400    7.3426 C   0  0  1  0  0  0  0  0  0  0  0  0
   -2.0893    3.3352    8.0141 C   0  0  0  0  0  0  0  0  0  0  0  0
   -2.5896    4.5613    8.8208 C   0  0  0  0  0  0  0  0  0  0  0  0
   -3.2203    2.9005    7.0674 C   0  0  0  0  0  0  0  0  0  0  0  0
   -1.7873    2.1859    8.9701 C   0  0  0  0  0  0  0  0  0  0  0  0
   -0.3499    2.4287    9.3995 C   0  0  0  0  0  0  0  0  0  0  0  0
    0.4376    2.8616    8.1255 C   0  0  2  0  0  0  0  0  0  0  0  0
    1.5302    3.7879    8.7376 C   0  0  0  0  0  0  0  0  0  0  0  0
    1.1504    1.6776    7.3033 C   0  0  1  0  0  0  0  0  0  0  0  0
    0.5851    0.2680    7.6592 C   0  0  0  0  0  0  0  0  0  0  0  0
    1.4961   -0.8775    7.3564 C   0  0  1  0  0  0  0  0  0  0  0  0
    0.8312   -2.0394    6.7994 O   0  0  0  0  0  0  0  0  0  0  0  0
    1.8110   -1.3629    5.9798 C   0  0  1  0  0  0  0  0  0  0  0  0
    1.3574   -0.6563    4.7283 C   0  0  2  0  0  0  0  0  0  0  0  0
   -0.1904   -0.7032    4.5054 C   0  0  0  0  0  0  0  0  0  0  0  0
    3.0723   -5.1104    2.8895 C   0  0  0  0  0  0  0  0  0  0  0  0
    3.7990   -5.8392    1.9149 C   0  0  0  0  0  0  0  0  0  0  0  0
    3.9059   -5.3427    0.6065 C   0  0  0  0  0  0  0  0  0  0  0  0
    4.6155   -6.0631   -0.3210 O   0  0  0  0  0  0  0  0  0  0  0  0
    2.9435   -2.5553   -1.2050 H   0  0  0  0  0  0  0  0  0  0  0  0
    2.9717   -4.1639   -1.8761 H   0  0  0  0  0  0  0  0  0  0  0  0
    4.4906   -3.3751   -1.3905 H   0  0  0  0  0  0  0  0  0  0  0  0
    2.0531   -2.5174    0.9031 H   0  0  0  0  0  0  0  0  0  0  0  0
    0.6536   -3.3411    3.5373 H   0  0  0  0  0  0  0  0  0  0  0  0
    2.0602   -3.4509    4.5400 H   0  0  0  0  0  0  0  0  0  0  0  0
    1.2825   -1.2294    2.6382 H   0  0  0  0  0  0  0  0  0  0  0  0
    4.0358   -1.3524    3.9099 H   0  0  0  0  0  0  0  0  0  0  0  0
    3.7634   -1.6297    2.2139 H   0  0  0  0  0  0  0  0  0  0  0  0
    4.4808    0.5573    2.4319 H   0  0  0  0  0  0  0  0  0  0  0  0
    1.7421    0.4249    1.7344 H   0  0  0  0  0  0  0  0  0  0  0  0
    3.3214    2.2414    3.6318 H   0  0  0  0  0  0  0  0  0  0  0  0
    1.8049    4.1065    6.1188 H   0  0  0  0  0  0  0  0  0  0  0  0
    2.1130    3.6232    4.5290 H   0  0  0  0  0  0  0  0  0  0  0  0
    3.1876    3.1050    5.8469 H   0  0  0  0  0  0  0  0  0  0  0  0
   -0.1041    2.3911    4.1093 H   0  0  0  0  0  0  0  0  0  0  0  0
   -0.8532    1.5615    5.4515 H   0  0  0  0  0  0  0  0  0  0  0  0
   -0.1220    4.4778    5.4082 H   0  0  0  0  0  0  0  0  0  0  0  0
   -1.6491    3.7939    5.3544 H   0  0  0  0  0  0  0  0  0  0  0  0
   -0.5290    4.6960    7.5555 H   0  0  0  0  0  0  0  0  0  0  0  0
   -3.5040    4.3322    9.3695 H   0  0  0  0  0  0  0  0  0  0  0  0
   -2.8116    5.4058    8.1729 H   0  0  0  0  0  0  0  0  0  0  0  0
   -1.8586    4.9058    9.5510 H   0  0  0  0  0  0  0  0  0  0  0  0
   -4.1121    2.6171    7.6325 H   0  0  0  0  0  0  0  0  0  0  0  0
   -2.9376    2.0486    6.4545 H   0  0  0  0  0  0  0  0  0  0  0  0
   -3.4760    3.7056    6.3871 H   0  0  0  0  0  0  0  0  0  0  0  0
   -2.4722    2.1518    9.8197 H   0  0  0  0  0  0  0  0  0  0  0  0
   -1.8664    1.2362    8.4450 H   0  0  0  0  0  0  0  0  0  0  0  0
   -0.3935    3.2547   10.1084 H   0  0  0  0  0  0  0  0  0  0  0  0
    0.0807    1.6279    9.9906 H   0  0  0  0  0  0  0  0  0  0  0  0
    2.0362    3.2738    9.5538 H   0  0  0  0  0  0  0  0  0  0  0  0
    1.1072    4.6987    9.1634 H   0  0  0  0  0  0  0  0  0  0  0  0
    2.3279    4.0927    8.0704 H   0  0  0  0  0  0  0  0  0  0  0  0
    2.1756    1.6340    7.6703 H   0  0  0  0  0  0  0  0  0  0  0  0
    0.4305    0.1319    8.7198 H   0  0  0  0  0  0  0  0  0  0  0  0
   -0.3878    0.1192    7.2219 H   0  0  0  0  0  0  0  0  0  0  0  0
    2.2501   -1.0961    8.1052 H   0  0  0  0  0  0  0  0  0  0  0  0
    2.7812   -1.8509    5.9246 H   0  0  0  0  0  0  0  0  0  0  0  0
   -0.8058   -0.5614    5.3837 H   0  0  0  0  0  0  0  0  0  0  0  0
   -0.5204   -1.6684    4.1317 H   0  0  0  0  0  0  0  0  0  0  0  0
   -0.4962    0.0209    3.7489 H   0  0  0  0  0  0  0  0  0  0  0  0
    3.0148   -5.4852    3.8934 H   0  0  0  0  0  0  0  0  0  0  0  0
    4.2824   -6.7678    2.1873 H   0  0  0  0  0  0  0  0  0  0  0  0
    4.3392   -5.8605   -1.1988 H   0  0  0  0  0  0  0  0  0  0  0  0
  1  2  1  0
  1 36  1  0
  1 37  1  0
  1 38  1  0
  2 34  2  0
  2  3  1  0
  3  4  2  0
  3 39  1  0
  4  5  1  0
  4 32  1  0
  5  6  1  0
  5 40  1  0
  5 41  1  0
  6 30  1  0
  6  7  1  0
  6 42  1  6
  7  8  1  0
  7 43  1  0
  7 44  1  0
  8  9  1  0
  8 10  1  0
  8 45  1  6
  9 46  1  0
 10 12  1  0
 10 11  1  0
 10 47  1  6
 12 11  1  1
 12 30  1  0
 12 13  1  0
 13 25  1  0
 13 14  1  1
 13 15  1  0
 14 48  1  0
 14 49  1  0
 14 50  1  0
 15 16  1  0
 15 51  1  0
 15 52  1  0
 16 17  1  0
 16 53  1  0
 16 54  1  0
 17 23  1  0
 17 18  1  0
 17 55  1  6
 18 19  1  0
 18 20  1  0
 18 21  1  0
 19 56  1  0
 19 57  1  0
 19 58  1  0
 20 59  1  0
 20 60  1  0
 20 61  1  0
 21 22  1  0
 21 62  1  0
 21 63  1  0
 22 23  1  0
 22 64  1  0
 22 65  1  0
 23 24  1  1
 23 25  1  0
 24 66  1  0
 24 67  1  0
 24 68  1  0
 25 26  1  0
 25 69  1  1
 26 27  1  0
 26 70  1  0
 26 71  1  0
 27 29  1  0
 27 28  1  0
 27 72  1  1
 28 29  1  0
 29 30  1  0
 29 73  1  1
 30 31  1  6
 31 74  1  0
 31 75  1  0
 31 76  1  0
 32 33  2  0
 32 77  1  0
 33 34  1  0
 33 78  1  0
 34 35  1  0
 35 79  1  0
M  END
>  <i_m_ct_stereo_status>  (291) 
1

>  <s_m_source_file>  (291) 
/var/tmp/pbs.5076255.sched01/tmp7zsp0c9b/86_oh4d05k.sdf

>  <i_m_source_file_index>  (291) 
32

>  <i_lp_mmshare_version>  (291) 
48012

>  <i_f3d_flags>  (291) 
0

>  <s_epik_input>  (291) 
W09IXWMxW2NIXVtjSF1jKFtjSF1jMVtDSDNdKVtDSDJdW0NASF0oW0NIMl1bQ0BASF0oW09IXSlbQ0BIXShPMilbQ0BAXTIzNClbQ0BAXTQoW0NIM10pW0NASF01W0NASF0oTzUpW0NIMl1bQ0BIXTZbQ0BdMyhbQ0gzXSlbQ0gyXVtDSDJdW0NAQEhdN1tDQEBdNihbQ0gzXSlbQ0gyXVtDSDJdQzcoW0NIM10pW0NIM10=

>  <s_epik_cmdline>  (291) 
J2VwaWtfcHl0aG9uJywgJy1waHQnLCAnMi4wJywgJy1waCcsICc3LjAnLCAnLXRuJywgJzgnLCAnLW1hJywgJzIwMCcsICctaW1hZScsICc8aW5maWxlLm1hZT4nLCAnLW9tYWUnLCAnPG91dGZpbGUubWFlPic=

>  <r_lp_tautomer_probability>  (291) 
1

>  <r_epik_Ionization_Penalty>  (291) 
0.00010961

>  <r_epik_Ionization_Penalty_Charging>  (291) 
0

>  <r_epik_Ionization_Penalty_Neutral>  (291) 
0.00010961

>  <r_epik_State_Penalty>  (291) 
-0

>  <r_epik_Charging_Adjusted_Penalty>  (291) 
0

>  <i_epik_Tot_Q>  (291) 
0

>  <i_epik_Tot_abs_Q>  (291) 
0

>  <s_lp_Force_Field>  (291) 
OPLS3e

>  <r_lp_Energy>  (291) 
109.447

>  <b_lp_Chiralities_Consistent>  (291) 
1

>  <s_lp_Variant>  (291) 
80:0-1

>  <s_i_glide_gridfile>  (291) 
pfpi4k_grid

>  <i_i_glide_lignum>  (291) 
32

>  <i_i_glide_rotatable_bonds>  (291) 
4

>  <r_i_docking_score>  (291) 
-2.36455

>  <r_i_glide_ligand_efficiency>  (291) 
-0.0675586

>  <r_i_glide_ligand_efficiency_sa>  (291) 
-0.220989

>  <r_i_glide_ligand_efficiency_ln>  (291) 
-0.519071

>  <r_i_glide_gscore>  (291) 
-2.36455

>  <r_i_glide_lipo>  (291) 
-0.345876

>  <r_i_glide_hbond>  (291) 
-0.296268

>  <r_i_glide_metal>  (291) 
-0

>  <r_i_glide_rewards>  (291) 
-0.131736

>  <r_i_glide_evdw>  (291) 
-19.2665

>  <r_i_glide_ecoul>  (291) 
-5.35267

>  <r_i_glide_erotb>  (291) 
0.175552

>  <r_i_glide_esite>  (291) 
0

>  <r_i_glide_emodel>  (291) 
-26.1773

>  <r_i_glide_energy>  (291) 
-24.6191

>  <r_i_glide_einternal>  (291) 
5.30883

>  <r_i_glide_intrahb_reward>  (291) 
-0

>  <i_i_glide_confnum>  (291) 
5

>  <i_i_glide_posenum>  (291) 
12

>  <r_i_glide_eff_state_penalty>  (291) 
0

>  <ligand_id>  (291) 
80

>  <original_smiles>  (291) 
Cc1cc(CC2CC(O)C3OC34C3(C)CCC5C(C)(C)CCC5(C)C3CC3OC3C24C)ccc1O

>  <smiles>  (291) 
[H]Oc1c([H])c([H])c(C([H])([H])C2([H])C([H])([H])C([H])(O[H])C3([H])OC34C3(C([H])([H])[H])C([H])([H])C([H])([H])C5([H])C(C([H])([H])[H])(C([H])([H])[H])C([H])([H])C([H])([H])C5(C([H])([H])[H])C3([H])C([H])([H])C3([H])OC3([H])C24C([H])([H])[H])c([H])c1C([H])([H])[H]

$$$$
80:0:2
     RDKit          3D

 79 85  0  0  1  0  0  0  0  0999 V2000
    0.2169   -9.4984    5.7333 C   0  0  0  0  0  0  0  0  0  0  0  0
    0.4154   -8.4523    4.6473 C   0  0  0  0  0  0  0  0  0  0  0  0
    1.4055   -7.4542    4.7951 C   0  0  0  0  0  0  0  0  0  0  0  0
    1.6109   -6.4857    3.7934 C   0  0  0  0  0  0  0  0  0  0  0  0
    2.6725   -5.4053    3.9962 C   0  0  0  0  0  0  0  0  0  0  0  0
    2.6427   -4.1913    2.9911 C   0  0  2  0  0  0  0  0  0  0  0  0
    3.8651   -4.2725    2.0591 C   0  0  0  0  0  0  0  0  0  0  0  0
    3.7287   -3.2947    0.8929 C   0  0  1  0  0  0  0  0  0  0  0  0
    2.6314   -3.6396    0.0590 O   0  0  0  0  0  0  0  0  0  0  0  0
    3.5027   -1.8930    1.3941 C   0  0  2  0  0  0  0  0  0  0  0  0
    4.2212   -1.5331    2.5615 O   0  0  0  0  0  0  0  0  0  0  0  0
    2.7982   -1.5542    2.7196 C   0  0  1  0  0  0  0  0  0  0  0  0
    2.2103   -0.0797    2.9495 C   0  0  1  0  0  0  0  0  0  0  0  0
    2.8319    0.8330    1.8432 C   0  0  0  0  0  0  0  0  0  0  0  0
    0.6819   -0.0233    2.7068 C   0  0  0  0  0  0  0  0  0  0  0  0
    0.1372    1.4009    2.5794 C   0  0  0  0  0  0  0  0  0  0  0  0
    0.4965    2.3207    3.7807 C   0  0  1  0  0  0  0  0  0  0  0  0
   -0.6324    2.5213    4.8583 C   0  0  0  0  0  0  0  0  0  0  0  0
   -1.0567    4.0090    4.9308 C   0  0  0  0  0  0  0  0  0  0  0  0
   -1.9224    1.6935    4.6822 C   0  0  0  0  0  0  0  0  0  0  0  0
    0.0364    2.1126    6.1703 C   0  0  0  0  0  0  0  0  0  0  0  0
    1.4906    2.4933    5.9779 C   0  0  0  0  0  0  0  0  0  0  0  0
    1.8769    2.0807    4.5319 C   0  0  2  0  0  0  0  0  0  0  0  0
    2.9663    3.1407    4.1889 C   0  0  0  0  0  0  0  0  0  0  0  0
    2.5063    0.6049    4.3604 C   0  0  1  0  0  0  0  0  0  0  0  0
    2.2272   -0.3085    5.5866 C   0  0  0  0  0  0  0  0  0  0  0  0
    3.1690   -1.4683    5.7665 C   0  0  1  0  0  0  0  0  0  0  0  0
    2.5468   -2.6929    6.1472 O   0  0  0  0  0  0  0  0  0  0  0  0
    3.2009   -2.6567    4.8859 C   0  0  1  0  0  0  0  0  0  0  0  0
    2.3527   -2.7663    3.6293 C   0  0  2  0  0  0  0  0  0  0  0  0
    0.8224   -2.8715    3.9098 C   0  0  0  0  0  0  0  0  0  0  0  0
    0.8301   -6.5424    2.6142 C   0  0  0  0  0  0  0  0  0  0  0  0
   -0.1749   -7.5183    2.4766 C   0  0  0  0  0  0  0  0  0  0  0  0
   -0.3849   -8.4765    3.4841 C   0  0  0  0  0  0  0  0  0  0  0  0
   -1.3501   -9.4290    3.2883 O   0  0  0  0  0  0  0  0  0  0  0  0
    0.9027   -9.3647    6.5742 H   0  0  0  0  0  0  0  0  0  0  0  0
    0.3825  -10.5045    5.3272 H   0  0  0  0  0  0  0  0  0  0  0  0
   -0.8030   -9.4523    6.1147 H   0  0  0  0  0  0  0  0  0  0  0  0
    2.0233   -7.4418    5.6917 H   0  0  0  0  0  0  0  0  0  0  0  0
    2.5777   -5.0905    5.0305 H   0  0  0  0  0  0  0  0  0  0  0  0
    3.6396   -5.8901    3.9671 H   0  0  0  0  0  0  0  0  0  0  0  0
    1.8054   -4.3097    2.3118 H   0  0  0  0  0  0  0  0  0  0  0  0
    4.7880   -4.0772    2.5985 H   0  0  0  0  0  0  0  0  0  0  0  0
    3.9424   -5.2867    1.6634 H   0  0  0  0  0  0  0  0  0  0  0  0
    4.6387   -3.3094    0.2813 H   0  0  0  0  0  0  0  0  0  0  0  0
    2.4768   -2.9208   -0.5430 H   0  0  0  0  0  0  0  0  0  0  0  0
    3.6008   -1.1764    0.5928 H   0  0  0  0  0  0  0  0  0  0  0  0
    2.5394    1.8721    1.8861 H   0  0  0  0  0  0  0  0  0  0  0  0
    2.4866    0.5321    0.8558 H   0  0  0  0  0  0  0  0  0  0  0  0
    3.9201    0.8334    1.8584 H   0  0  0  0  0  0  0  0  0  0  0  0
    0.4274   -0.5867    1.8074 H   0  0  0  0  0  0  0  0  0  0  0  0
    0.1320   -0.4626    3.5289 H   0  0  0  0  0  0  0  0  0  0  0  0
    0.4672    1.8617    1.6463 H   0  0  0  0  0  0  0  0  0  0  0  0
   -0.9325    1.3509    2.4157 H   0  0  0  0  0  0  0  0  0  0  0  0
    0.5882    3.2896    3.3033 H   0  0  0  0  0  0  0  0  0  0  0  0
   -1.7700    4.1753    5.7370 H   0  0  0  0  0  0  0  0  0  0  0  0
   -1.5305    4.3327    4.0014 H   0  0  0  0  0  0  0  0  0  0  0  0
   -0.2103    4.6775    5.1032 H   0  0  0  0  0  0  0  0  0  0  0  0
   -2.5665    1.8087    5.5512 H   0  0  0  0  0  0  0  0  0  0  0  0
   -1.7105    0.6307    4.5708 H   0  0  0  0  0  0  0  0  0  0  0  0
   -2.5009    2.0182    3.8142 H   0  0  0  0  0  0  0  0  0  0  0  0
   -0.4056    2.6010    7.0411 H   0  0  0  0  0  0  0  0  0  0  0  0
   -0.0559    1.0397    6.3200 H   0  0  0  0  0  0  0  0  0  0  0  0
    1.5316    3.5804    6.0747 H   0  0  0  0  0  0  0  0  0  0  0  0
    2.1558    2.1589    6.7701 H   0  0  0  0  0  0  0  0  0  0  0  0
    3.7298    3.1616    4.9678 H   0  0  0  0  0  0  0  0  0  0  0  0
    2.5595    4.1491    4.1169 H   0  0  0  0  0  0  0  0  0  0  0  0
    3.5149    2.9666    3.2762 H   0  0  0  0  0  0  0  0  0  0  0  0
    3.5904    0.7368    4.3885 H   0  0  0  0  0  0  0  0  0  0  0  0
    2.3518    0.1953    6.5358 H   0  0  0  0  0  0  0  0  0  0  0  0
    1.1986   -0.6462    5.5979 H   0  0  0  0  0  0  0  0  0  0  0  0
    4.1129   -1.2358    6.2616 H   0  0  0  0  0  0  0  0  0  0  0  0
    4.1529   -3.1776    4.8535 H   0  0  0  0  0  0  0  0  0  0  0  0
    0.4162   -2.2351    4.6813 H   0  0  0  0  0  0  0  0  0  0  0  0
    0.5434   -3.8732    4.2368 H   0  0  0  0  0  0  0  0  0  0  0  0
    0.2617   -2.7007    2.9997 H   0  0  0  0  0  0  0  0  0  0  0  0
    0.9836   -5.8560    1.7999 H   0  0  0  0  0  0  0  0  0  0  0  0
   -0.7827   -7.5450    1.5862 H   0  0  0  0  0  0  0  0  0  0  0  0
   -1.5114  -10.0226    4.0243 H   0  0  0  0  0  0  0  0  0  0  0  0
  1  2  1  0
  1 36  1  0
  1 37  1  0
  1 38  1  0
  2 34  2  0
  2  3  1  0
  3  4  2  0
  3 39  1  0
  4  5  1  0
  4 32  1  0
  5  6  1  0
  5 40  1  0
  5 41  1  0
  6 30  1  0
  6  7  1  0
  6 42  1  6
  7  8  1  0
  7 43  1  0
  7 44  1  0
  8  9  1  0
  8 10  1  0
  8 45  1  6
  9 46  1  0
 10 12  1  0
 10 11  1  0
 10 47  1  6
 12 11  1  1
 12 30  1  0
 12 13  1  0
 13 25  1  0
 13 14  1  6
 13 15  1  0
 14 48  1  0
 14 49  1  0
 14 50  1  0
 15 16  1  0
 15 51  1  0
 15 52  1  0
 16 17  1  0
 16 53  1  0
 16 54  1  0
 17 23  1  0
 17 18  1  0
 17 55  1  6
 18 19  1  0
 18 20  1  0
 18 21  1  0
 19 56  1  0
 19 57  1  0
 19 58  1  0
 20 59  1  0
 20 60  1  0
 20 61  1  0
 21 22  1  0
 21 62  1  0
 21 63  1  0
 22 23  1  0
 22 64  1  0
 22 65  1  0
 23 24  1  6
 23 25  1  0
 24 66  1  0
 24 67  1  0
 24 68  1  0
 25 26  1  0
 25 69  1  6
 26 27  1  0
 26 70  1  0
 26 71  1  0
 27 29  1  0
 27 28  1  0
 27 72  1  1
 28 29  1  0
 29 30  1  0
 29 73  1  1
 30 31  1  1
 31 74  1  0
 31 75  1  0
 31 76  1  0
 32 33  2  0
 32 77  1  0
 33 34  1  0
 33 78  1  0
 34 35  1  0
 35 79  1  0
M  END
>  <i_m_ct_stereo_status>  (292) 
1

>  <s_m_source_file>  (292) 
/var/tmp/pbs.5076255.sched01/tmp7zsp0c9b/86_oh4d05k.sdf

>  <i_m_source_file_index>  (292) 
32

>  <i_lp_mmshare_version>  (292) 
48012

>  <i_f3d_flags>  (292) 
0

>  <s_epik_input>  (292) 
W09IXWMxW2NIXVtjSF1jKFtjSF1jMVtDSDNdKVtDSDJdW0NASF0oW0NIMl1bQ0BASF0oW09IXSlbQ0BIXShPMilbQ0BAXTIzNClbQ0BAXTQoW0NIM10pW0NASF01W0NASF0oTzUpW0NIMl1bQ0BIXTZbQ0BdMyhbQ0gzXSlbQ0gyXVtDSDJdW0NAQEhdN1tDQEBdNihbQ0gzXSlbQ0gyXVtDSDJdQzcoW0NIM10pW0NIM10=

>  <s_epik_cmdline>  (292) 
J2VwaWtfcHl0aG9uJywgJy1waHQnLCAnMi4wJywgJy1waCcsICc3LjAnLCAnLXRuJywgJzgnLCAnLW1hJywgJzIwMCcsICctaW1hZScsICc8aW5maWxlLm1hZT4nLCAnLW9tYWUnLCAnPG91dGZpbGUubWFlPic=

>  <r_lp_tautomer_probability>  (292) 
1

>  <r_epik_Ionization_Penalty>  (292) 
0.00010961

>  <r_epik_Ionization_Penalty_Charging>  (292) 
0

>  <r_epik_Ionization_Penalty_Neutral>  (292) 
0.00010961

>  <r_epik_State_Penalty>  (292) 
-0

>  <r_epik_Charging_Adjusted_Penalty>  (292) 
0

>  <i_epik_Tot_Q>  (292) 
0

>  <i_epik_Tot_abs_Q>  (292) 
0

>  <s_lp_Force_Field>  (292) 
OPLS3e

>  <r_lp_Energy>  (292) 
109.447

>  <b_lp_Chiralities_Consistent>  (292) 
1

>  <s_lp_Variant>  (292) 
80:0-1

>  <s_i_glide_gridfile>  (292) 
pfpi4k_grid

>  <i_i_glide_lignum>  (292) 
32

>  <i_i_glide_rotatable_bonds>  (292) 
4

>  <r_i_docking_score>  (292) 
-2.30193

>  <r_i_glide_ligand_efficiency>  (292) 
-0.0657695

>  <r_i_glide_ligand_efficiency_sa>  (292) 
-0.215137

>  <r_i_glide_ligand_efficiency_ln>  (292) 
-0.505326

>  <r_i_glide_gscore>  (292) 
-2.30193

>  <r_i_glide_lipo>  (292) 
-0.100647

>  <r_i_glide_hbond>  (292) 
-0.16

>  <r_i_glide_metal>  (292) 
-0

>  <r_i_glide_rewards>  (292) 
-0.131736

>  <r_i_glide_evdw>  (292) 
-24.4296

>  <r_i_glide_ecoul>  (292) 
-5.75748

>  <r_i_glide_erotb>  (292) 
0.175552

>  <r_i_glide_esite>  (292) 
0

>  <r_i_glide_emodel>  (292) 
-31.4178

>  <r_i_glide_energy>  (292) 
-30.1871

>  <r_i_glide_einternal>  (292) 
5.99704

>  <r_i_glide_intrahb_reward>  (292) 
-0

>  <i_i_glide_confnum>  (292) 
5

>  <i_i_glide_posenum>  (292) 
7

>  <r_i_glide_eff_state_penalty>  (292) 
0

>  <ligand_id>  (292) 
80

>  <original_smiles>  (292) 
Cc1cc(CC2CC(O)C3OC34C3(C)CCC5C(C)(C)CCC5(C)C3CC3OC3C24C)ccc1O

>  <smiles>  (292) 
[H]Oc1c([H])c([H])c(C([H])([H])C2([H])C([H])([H])C([H])(O[H])C3([H])OC34C3(C([H])([H])[H])C([H])([H])C([H])([H])C5([H])C(C([H])([H])[H])(C([H])([H])[H])C([H])([H])C([H])([H])C5(C([H])([H])[H])C3([H])C([H])([H])C3([H])OC3([H])C24C([H])([H])[H])c([H])c1C([H])([H])[H]

$$$$
81:0:0
     RDKit          3D

 56 62  0  0  1  0  0  0  0  0999 V2000
    4.3984  -12.1825    4.2175 C   0  0  0  0  0  0  0  0  0  0  0  0
    3.2839  -11.1994    4.2130 N   0  0  2  0  0  0  0  0  0  0  0  0
    2.5219  -11.2285    2.9458 C   0  0  0  0  0  0  0  0  0  0  0  0
    1.3069  -10.3010    3.0423 C   0  0  0  0  0  0  0  0  0  0  0  0
    1.6356   -8.8457    3.5119 C   0  0  1  0  0  0  0  0  0  0  0  0
    2.5499   -8.1318    2.5417 C   0  0  0  0  0  0  0  0  0  0  0  0
    3.9392   -8.3318    2.4198 C   0  0  0  0  0  0  0  0  0  0  0  0
    4.6044   -7.5691    1.4404 C   0  0  0  0  0  0  0  0  0  0  0  0
    3.8794   -6.6306    0.6676 C   0  0  0  0  0  0  0  0  0  0  0  0
    2.5031   -6.4006    0.9013 C   0  0  0  0  0  0  0  0  0  0  0  0
    1.8223   -5.4688    0.1685 O   0  0  0  0  0  0  0  0  0  0  0  0
    1.8159   -7.1548    1.8780 C   0  0  0  0  0  0  0  0  0  0  0  0
    0.5284   -6.9967    2.3003 O   0  0  0  0  0  0  0  0  0  0  0  0
    0.3092   -7.9833    3.3112 C   0  0  2  0  0  0  0  0  0  0  0  0
   -0.2174   -7.4970    4.6429 C   0  0  0  0  0  0  0  0  0  0  0  0
   -0.5176   -8.5344    5.4149 C   0  0  0  0  0  0  0  0  0  0  0  0
    0.2859   -8.7431    6.6492 C   0  0  2  0  0  0  0  0  0  0  0  0
    0.3795   -7.4576    7.5009 C   0  0  2  0  0  0  0  0  0  0  0  0
    0.6562   -6.1599    6.6988 C   0  0  0  0  0  0  0  0  0  0  0  0
    0.1189   -6.1262    5.2439 C   0  0  1  0  0  0  0  0  0  0  0  0
    0.9852   -5.3431    4.4581 O   0  0  0  0  0  0  0  0  0  0  0  0
    1.3675   -7.6410    8.6569 C   0  0  0  0  0  0  0  0  0  0  0  0
    1.2422   -6.9169    9.6407 O   0  0  0  0  0  0  0  0  0  0  0  0
    2.4216   -8.6661    8.5562 C   0  0  0  0  0  0  0  0  0  0  0  0
    2.5470   -9.4558    7.4713 C   0  0  0  0  0  0  0  0  0  0  0  0
    1.6391   -9.4236    6.2384 C   0  0  2  0  0  0  0  0  0  0  0  0
    2.4026   -8.9300    4.9159 C   0  0  2  0  0  0  0  0  0  0  0  0
    2.9003   -7.6441    5.2527 O   0  0  0  0  0  0  0  0  0  0  0  0
    3.6752   -9.8079    4.5999 C   0  0  2  0  0  0  0  0  0  0  0  0
    4.5959   -9.1707    3.5159 C   0  0  0  0  0  0  0  0  0  0  0  0
    5.0836  -12.0411    3.3802 H   0  0  0  0  0  0  0  0  0  0  0  0
    4.0020  -13.1945    4.1342 H   0  0  0  0  0  0  0  0  0  0  0  0
    4.9700  -12.1302    5.1444 H   0  0  0  0  0  0  0  0  0  0  0  0
    3.1481  -10.9496    2.0967 H   0  0  0  0  0  0  0  0  0  0  0  0
    2.1945  -12.2490    2.7535 H   0  0  0  0  0  0  0  0  0  0  0  0
    0.8058  -10.2958    2.0740 H   0  0  0  0  0  0  0  0  0  0  0  0
    0.5967  -10.7593    3.7344 H   0  0  0  0  0  0  0  0  0  0  0  0
    5.6743   -7.6689    1.3144 H   0  0  0  0  0  0  0  0  0  0  0  0
    4.4022   -6.0636   -0.0852 H   0  0  0  0  0  0  0  0  0  0  0  0
    2.3454   -5.1267   -0.5437 H   0  0  0  0  0  0  0  0  0  0  0  0
   -0.4767   -8.6110    2.8825 H   0  0  0  0  0  0  0  0  0  0  0  0
   -0.7419   -9.4632    4.9303 H   0  0  0  0  0  0  0  0  0  0  0  0
   -0.2699   -9.4674    7.2463 H   0  0  0  0  0  0  0  0  0  0  0  0
   -0.5874   -7.3267    7.9908 H   0  0  0  0  0  0  0  0  0  0  0  0
    0.2054   -5.3272    7.2415 H   0  0  0  0  0  0  0  0  0  0  0  0
    1.7237   -5.9393    6.7141 H   0  0  0  0  0  0  0  0  0  0  0  0
   -0.8341   -5.5987    5.2563 H   0  0  0  0  0  0  0  0  0  0  0  0
    1.8434   -5.7449    4.4822 H   0  0  0  0  0  0  0  0  0  0  0  0
    3.0882   -8.7779    9.3976 H   0  0  0  0  0  0  0  0  0  0  0  0
    3.3172  -10.2140    7.4778 H   0  0  0  0  0  0  0  0  0  0  0  0
    1.3747  -10.4690    6.0735 H   0  0  0  0  0  0  0  0  0  0  0  0
    3.4030   -7.7184    6.0492 H   0  0  0  0  0  0  0  0  0  0  0  0
    4.2827   -9.9100    5.4984 H   0  0  0  0  0  0  0  0  0  0  0  0
    5.2483   -9.9022    3.0407 H   0  0  0  0  0  0  0  0  0  0  0  0
    5.2767   -8.4922    4.0277 H   0  0  0  0  0  0  0  0  0  0  0  0
    2.6524  -11.5254    4.9345 H   0  0  0  0  0  0  0  0  0  0  0  0
  1  2  1  0
  1 31  1  0
  1 32  1  0
  1 33  1  0
  2 29  1  0
  2  3  1  0
  2 56  1  1
  3  4  1  0
  3 34  1  0
  3 35  1  0
  5  4  1  6
  4 36  1  0
  4 37  1  0
  5 14  1  0
  5 27  1  0
  5  6  1  0
  6 12  2  0
  6  7  1  0
  7 30  1  0
  7  8  2  0
  8  9  1  0
  8 38  1  0
  9 10  2  0
  9 39  1  0
 10 11  1  0
 10 12  1  0
 11 40  1  0
 12 13  1  0
 13 14  1  0
 14 15  1  0
 14 41  1  6
 15 20  1  0
 15 16  2  0
 16 17  1  0
 16 42  1  0
 17 26  1  0
 17 18  1  0
 17 43  1  1
 18 19  1  0
 18 22  1  0
 18 44  1  1
 19 20  1  0
 19 45  1  0
 19 46  1  0
 20 21  1  0
 20 47  1  1
 21 48  1  0
 22 23  2  0
 22 24  1  0
 24 25  2  0
 24 49  1  0
 25 26  1  0
 25 50  1  0
 26 27  1  0
 26 51  1  6
 27 28  1  1
 27 29  1  0
 28 52  1  0
 29 30  1  0
 29 53  1  1
 30 54  1  0
 30 55  1  0
M  CHG  1   2   1
M  END
>  <i_m_ct_stereo_status>  (293) 
1

>  <s_m_source_file>  (293) 
/var/tmp/pbs.5076255.sched01/tmp7zsp0c9b/86_oh4d05k.sdf

>  <i_m_source_file_index>  (293) 
33

>  <i_lp_mmshare_version>  (293) 
48012

>  <i_f3d_flags>  (293) 
0

>  <s_epik_input>  (293) 
W0NIMl0xW0NIMl1OKFtDSDNdKVtDQEBIXShbQ0gyXTIpW0NAXTMoW09IXSlbQ0BIXTRbQ0hdPVtDSF1DKD1PKVtDQEBIXShbQ0gyXVtDQEhdNVtPSF0pW0NASF00W0NIXT1DNVtDQEhdNk9jN2MoW09IXSlbY0hdW2NIXWMyYzdbQ0BAXTEzNg==

>  <s_epik_cmdline>  (293) 
J2VwaWtfcHl0aG9uJywgJy1waHQnLCAnMi4wJywgJy1waCcsICc3LjAnLCAnLXRuJywgJzgnLCAnLW1hJywgJzIwMCcsICctaW1hZScsICc8aW5maWxlLm1hZT4nLCAnLW9tYWUnLCAnPG91dGZpbGUubWFlPic=

>  <r_lp_tautomer_probability>  (293) 
1

>  <r_epik_Ionization_Penalty>  (293) 
0.126753

>  <r_epik_Ionization_Penalty_Charging>  (293) 
0.110082

>  <r_epik_Ionization_Penalty_Neutral>  (293) 
0.0166709

>  <r_epik_State_Penalty>  (293) 
0.110983

>  <r_epik_Charging_Adjusted_Penalty>  (293) 
0.221065

>  <i_epik_Tot_Q>  (293) 
1

>  <i_epik_Tot_abs_Q>  (293) 
1

>  <s_lp_Force_Field>  (293) 
OPLS3e

>  <r_lp_Energy>  (293) 
114.171

>  <b_lp_Chiralities_Consistent>  (293) 
1

>  <s_lp_Variant>  (293) 
81:0-1

>  <s_i_glide_gridfile>  (293) 
pfpi4k_grid

>  <i_i_glide_lignum>  (293) 
33

>  <i_i_glide_rotatable_bonds>  (293) 
3

>  <r_i_docking_score>  (293) 
-3.86133

>  <r_i_glide_ligand_efficiency>  (293) 
-0.128711

>  <r_i_glide_ligand_efficiency_sa>  (293) 
-0.399935

>  <r_i_glide_ligand_efficiency_ln>  (293) 
-0.877337

>  <r_i_glide_gscore>  (293) 
-3.86133

>  <r_i_glide_lipo>  (293) 
-0.304333

>  <r_i_glide_hbond>  (293) 
0

>  <r_i_glide_metal>  (293) 
-0

>  <r_i_glide_rewards>  (293) 
-1.12409

>  <r_i_glide_evdw>  (293) 
-20.7298

>  <r_i_glide_ecoul>  (293) 
-9.1116

>  <r_i_glide_erotb>  (293) 
0

>  <r_i_glide_esite>  (293) 
-0.0296788

>  <r_i_glide_emodel>  (293) 
-45.8034

>  <r_i_glide_energy>  (293) 
-29.8414

>  <r_i_glide_einternal>  (293) 
0.146768

>  <r_i_glide_intrahb_reward>  (293) 
-0.5

>  <i_i_glide_confnum>  (293) 
2

>  <i_i_glide_posenum>  (293) 
23

>  <r_i_glide_eff_state_penalty>  (293) 
0

>  <ligand_id>  (293) 
81

>  <original_smiles>  (293) 
CN1CCC23c4c5ccc(O)c4OC2C2=CC4C(CC2O)C(=O)C=CC4C3(O)C1C5

>  <smiles>  (293) 
[H]Oc1c([H])c([H])c2c3c1OC1([H])C4=C([H])C5([H])C([H])(C(=O)C([H])=C([H])C5([H])C5(O[H])C31C([H])([H])C([H])([H])[N+]([H])(C([H])([H])[H])C5([H])C2([H])[H])C([H])([H])C4([H])O[H]

$$$$
81:0:1
     RDKit          3D

 56 62  0  0  1  0  0  0  0  0999 V2000
    4.2757  -12.2543    7.2135 C   0  0  0  0  0  0  0  0  0  0  0  0
    3.4194  -11.4502    6.3088 N   0  0  2  0  0  0  0  0  0  0  0  0
    3.2852  -12.0593    4.9694 C   0  0  0  0  0  0  0  0  0  0  0  0
    2.2848  -11.2676    4.1272 C   0  0  0  0  0  0  0  0  0  0  0  0
    2.5702   -9.7352    4.0629 C   0  0  1  0  0  0  0  0  0  0  0  0
    3.9057   -9.4510    3.4150 C   0  0  0  0  0  0  0  0  0  0  0  0
    5.1750   -9.5863    4.0204 C   0  0  0  0  0  0  0  0  0  0  0  0
    6.2962   -9.2773    3.2233 C   0  0  0  0  0  0  0  0  0  0  0  0
    6.1071   -8.8201    1.8985 C   0  0  0  0  0  0  0  0  0  0  0  0
    4.8065   -8.6001    1.3845 C   0  0  0  0  0  0  0  0  0  0  0  0
    4.6182   -8.0535    0.1551 O   0  0  0  0  0  0  0  0  0  0  0  0
    3.6705   -8.9061    2.1654 C   0  0  0  0  0  0  0  0  0  0  0  0
    2.3729   -8.6317    1.8702 O   0  0  0  0  0  0  0  0  0  0  0  0
    1.5921   -9.1311    2.9594 C   0  0  2  0  0  0  0  0  0  0  0  0
    0.6037   -8.1706    3.5775 C   0  0  0  0  0  0  0  0  0  0  0  0
   -0.1487   -8.7943    4.4808 C   0  0  0  0  0  0  0  0  0  0  0  0
    0.0367   -8.3985    5.8959 C   0  0  2  0  0  0  0  0  0  0  0  0
   -0.0632   -6.8645    6.0863 C   0  0  2  0  0  0  0  0  0  0  0  0
    0.7109   -6.0195    5.0511 C   0  0  0  0  0  0  0  0  0  0  0  0
    0.8479   -6.6537    3.6429 C   0  0  1  0  0  0  0  0  0  0  0  0
    2.0950   -6.2603    3.1212 O   0  0  0  0  0  0  0  0  0  0  0  0
    0.2813   -6.4762    7.5316 C   0  0  0  0  0  0  0  0  0  0  0  0
   -0.1528   -5.4164    7.9731 O   0  0  0  0  0  0  0  0  0  0  0  0
    1.1166   -7.3820    8.3471 C   0  0  0  0  0  0  0  0  0  0  0  0
    1.5833   -8.5507    7.8632 C   0  0  0  0  0  0  0  0  0  0  0  0
    1.3177   -9.1015    6.4601 C   0  0  2  0  0  0  0  0  0  0  0  0
    2.6347   -9.1688    5.5565 C   0  0  2  0  0  0  0  0  0  0  0  0
    3.0998   -7.8335    5.5464 O   0  0  0  0  0  0  0  0  0  0  0  0
    3.7858  -10.0026    6.2311 C   0  0  2  0  0  0  0  0  0  0  0  0
    5.1655   -9.8240    5.5261 C   0  0  0  0  0  0  0  0  0  0  0  0
    5.2717  -12.4414    6.8046 H   0  0  0  0  0  0  0  0  0  0  0  0
    3.8134  -13.2257    7.3869 H   0  0  0  0  0  0  0  0  0  0  0  0
    4.3844  -11.7769    8.1898 H   0  0  0  0  0  0  0  0  0  0  0  0
    4.2481  -12.1313    4.4628 H   0  0  0  0  0  0  0  0  0  0  0  0
    2.9383  -13.0822    5.0875 H   0  0  0  0  0  0  0  0  0  0  0  0
    2.2624  -11.7114    3.1309 H   0  0  0  0  0  0  0  0  0  0  0  0
    1.2933  -11.4370    4.5483 H   0  0  0  0  0  0  0  0  0  0  0  0
    7.2960   -9.3325    3.6429 H   0  0  0  0  0  0  0  0  0  0  0  0
    6.9673   -8.5662    1.2997 H   0  0  0  0  0  0  0  0  0  0  0  0
    3.7040   -7.9757   -0.0620 H   0  0  0  0  0  0  0  0  0  0  0  0
    1.0010   -9.9293    2.5046 H   0  0  0  0  0  0  0  0  0  0  0  0
   -0.2718   -9.8655    4.4080 H   0  0  0  0  0  0  0  0  0  0  0  0
   -0.7988   -8.8636    6.4132 H   0  0  0  0  0  0  0  0  0  0  0  0
   -1.1012   -6.5819    5.9319 H   0  0  0  0  0  0  0  0  0  0  0  0
    0.1883   -5.0669    4.9411 H   0  0  0  0  0  0  0  0  0  0  0  0
    1.6834   -5.7323    5.4542 H   0  0  0  0  0  0  0  0  0  0  0  0
    0.0818   -6.2260    2.9945 H   0  0  0  0  0  0  0  0  0  0  0  0
    2.2899   -6.8057    2.3716 H   0  0  0  0  0  0  0  0  0  0  0  0
    1.3423   -7.0785    9.3600 H   0  0  0  0  0  0  0  0  0  0  0  0
    2.1752   -9.1782    8.5148 H   0  0  0  0  0  0  0  0  0  0  0  0
    1.0117  -10.1348    6.6261 H   0  0  0  0  0  0  0  0  0  0  0  0
    2.4863   -7.3126    5.0465 H   0  0  0  0  0  0  0  0  0  0  0  0
    3.9249   -9.6687    7.2572 H   0  0  0  0  0  0  0  0  0  0  0  0
    5.8519  -10.6436    5.7417 H   0  0  0  0  0  0  0  0  0  0  0  0
    5.6463   -8.9477    5.9636 H   0  0  0  0  0  0  0  0  0  0  0  0
    2.4945  -11.5391    6.7506 H   0  0  0  0  0  0  0  0  0  0  0  0
  1  2  1  0
  1 31  1  0
  1 32  1  0
  1 33  1  0
  2 29  1  0
  2  3  1  0
  2 56  1  1
  3  4  1  0
  3 34  1  0
  3 35  1  0
  5  4  1  1
  4 36  1  0
  4 37  1  0
  5 14  1  0
  5 27  1  0
  5  6  1  0
  6 12  2  0
  6  7  1  0
  7 30  1  0
  7  8  2  0
  8  9  1  0
  8 38  1  0
  9 10  2  0
  9 39  1  0
 10 11  1  0
 10 12  1  0
 11 40  1  0
 12 13  1  0
 13 14  1  0
 14 15  1  0
 14 41  1  6
 15 20  1  0
 15 16  2  0
 16 17  1  0
 16 42  1  0
 17 26  1  0
 17 18  1  0
 17 43  1  1
 18 19  1  0
 18 22  1  0
 18 44  1  6
 19 20  1  0
 19 45  1  0
 19 46  1  0
 20 21  1  0
 20 47  1  6
 21 48  1  0
 22 23  2  0
 22 24  1  0
 24 25  2  0
 24 49  1  0
 25 26  1  0
 25 50  1  0
 26 27  1  0
 26 51  1  1
 27 28  1  6
 27 29  1  0
 28 52  1  0
 29 30  1  0
 29 53  1  1
 30 54  1  0
 30 55  1  0
M  CHG  1   2   1
M  END
>  <i_m_ct_stereo_status>  (294) 
1

>  <s_m_source_file>  (294) 
/var/tmp/pbs.5076255.sched01/tmp7zsp0c9b/86_oh4d05k.sdf

>  <i_m_source_file_index>  (294) 
33

>  <i_lp_mmshare_version>  (294) 
48012

>  <i_f3d_flags>  (294) 
0

>  <s_epik_input>  (294) 
W0NIMl0xW0NIMl1OKFtDSDNdKVtDQEBIXShbQ0gyXTIpW0NAXTMoW09IXSlbQ0BIXTRbQ0hdPVtDSF1DKD1PKVtDQEBIXShbQ0gyXVtDQEhdNVtPSF0pW0NASF00W0NIXT1DNVtDQEhdNk9jN2MoW09IXSlbY0hdW2NIXWMyYzdbQ0BAXTEzNg==

>  <s_epik_cmdline>  (294) 
J2VwaWtfcHl0aG9uJywgJy1waHQnLCAnMi4wJywgJy1waCcsICc3LjAnLCAnLXRuJywgJzgnLCAnLW1hJywgJzIwMCcsICctaW1hZScsICc8aW5maWxlLm1hZT4nLCAnLW9tYWUnLCAnPG91dGZpbGUubWFlPic=

>  <r_lp_tautomer_probability>  (294) 
1

>  <r_epik_Ionization_Penalty>  (294) 
0.126753

>  <r_epik_Ionization_Penalty_Charging>  (294) 
0.110082

>  <r_epik_Ionization_Penalty_Neutral>  (294) 
0.0166709

>  <r_epik_State_Penalty>  (294) 
0.110983

>  <r_epik_Charging_Adjusted_Penalty>  (294) 
0.221065

>  <i_epik_Tot_Q>  (294) 
1

>  <i_epik_Tot_abs_Q>  (294) 
1

>  <s_lp_Force_Field>  (294) 
OPLS3e

>  <r_lp_Energy>  (294) 
114.171

>  <b_lp_Chiralities_Consistent>  (294) 
1

>  <s_lp_Variant>  (294) 
81:0-1

>  <s_i_glide_gridfile>  (294) 
pfpi4k_grid

>  <i_i_glide_lignum>  (294) 
33

>  <i_i_glide_rotatable_bonds>  (294) 
3

>  <r_i_docking_score>  (294) 
-3.51411

>  <r_i_glide_ligand_efficiency>  (294) 
-0.117137

>  <r_i_glide_ligand_efficiency_sa>  (294) 
-0.363972

>  <r_i_glide_ligand_efficiency_ln>  (294) 
-0.798443

>  <r_i_glide_gscore>  (294) 
-3.51411

>  <r_i_glide_lipo>  (294) 
-0.0697321

>  <r_i_glide_hbond>  (294) 
-0.2

>  <r_i_glide_metal>  (294) 
-0

>  <r_i_glide_rewards>  (294) 
-1.12409

>  <r_i_glide_evdw>  (294) 
-19.0433

>  <r_i_glide_ecoul>  (294) 
-7.06424

>  <r_i_glide_erotb>  (294) 
0

>  <r_i_glide_esite>  (294) 
-0.108484

>  <r_i_glide_emodel>  (294) 
-40.7375

>  <r_i_glide_energy>  (294) 
-26.1076

>  <r_i_glide_einternal>  (294) 
0.695019

>  <r_i_glide_intrahb_reward>  (294) 
-0.5

>  <i_i_glide_confnum>  (294) 
2

>  <i_i_glide_posenum>  (294) 
1

>  <r_i_glide_eff_state_penalty>  (294) 
0

>  <ligand_id>  (294) 
81

>  <original_smiles>  (294) 
CN1CCC23c4c5ccc(O)c4OC2C2=CC4C(CC2O)C(=O)C=CC4C3(O)C1C5

>  <smiles>  (294) 
[H]Oc1c([H])c([H])c2c3c1OC1([H])C4=C([H])C5([H])C([H])(C(=O)C([H])=C([H])C5([H])C5(O[H])C31C([H])([H])C([H])([H])[N+]([H])(C([H])([H])[H])C5([H])C2([H])[H])C([H])([H])C4([H])O[H]

$$$$
81:0:2
     RDKit          3D

 56 62  0  0  1  0  0  0  0  0999 V2000
    4.3228  -12.4657    6.9959 C   0  0  0  0  0  0  0  0  0  0  0  0
    3.4642  -11.5928    6.1540 N   0  0  2  0  0  0  0  0  0  0  0  0
    3.2590  -12.1439    4.7990 C   0  0  0  0  0  0  0  0  0  0  0  0
    2.2608  -11.2811    4.0275 C   0  0  0  0  0  0  0  0  0  0  0  0
    2.6021   -9.7528    4.0158 C   0  0  1  0  0  0  0  0  0  0  0  0
    3.9251   -9.4862    3.3308 C   0  0  0  0  0  0  0  0  0  0  0  0
    5.2010   -9.6928    3.8865 C   0  0  0  0  0  0  0  0  0  0  0  0
    6.3079   -9.3925    3.0651 C   0  0  0  0  0  0  0  0  0  0  0  0
    6.0961   -8.8766    1.7666 C   0  0  0  0  0  0  0  0  0  0  0  0
    4.7948   -8.5851    1.3096 C   0  0  0  0  0  0  0  0  0  0  0  0
    4.6149   -7.9689    0.1130 O   0  0  0  0  0  0  0  0  0  0  0  0
    3.6655   -8.8827    2.1100 C   0  0  0  0  0  0  0  0  0  0  0  0
    2.3667   -8.5480    1.8754 O   0  0  0  0  0  0  0  0  0  0  0  0
    1.6069   -9.0684    2.9736 C   0  0  2  0  0  0  0  0  0  0  0  0
    0.6748   -8.1035    3.6709 C   0  0  0  0  0  0  0  0  0  0  0  0
   -0.0689   -8.7412    4.5744 C   0  0  0  0  0  0  0  0  0  0  0  0
    0.1811   -8.4108    5.9992 C   0  0  2  0  0  0  0  0  0  0  0  0
    0.1339   -6.8865    6.2563 C   0  0  2  0  0  0  0  0  0  0  0  0
    0.9009   -6.0243    5.2271 C   0  0  0  0  0  0  0  0  0  0  0  0
    0.9730   -6.6003    3.7882 C   0  0  1  0  0  0  0  0  0  0  0  0
    2.1909   -6.2017    3.1967 O   0  0  0  0  0  0  0  0  0  0  0  0
    0.5503   -6.5747    7.7002 C   0  0  0  0  0  0  0  0  0  0  0  0
    0.1714   -5.5177    8.2016 O   0  0  0  0  0  0  0  0  0  0  0  0
    1.3805   -7.5407    8.4450 C   0  0  0  0  0  0  0  0  0  0  0  0
    1.7913   -8.7038    7.8964 C   0  0  0  0  0  0  0  0  0  0  0  0
    1.4582   -9.1809    6.4824 C   0  0  2  0  0  0  0  0  0  0  0  0
    2.7422   -9.2526    5.5328 C   0  0  2  0  0  0  0  0  0  0  0  0
    3.2711   -7.9409    5.5758 O   0  0  0  0  0  0  0  0  0  0  0  0
    3.8805  -10.1599    6.1268 C   0  0  2  0  0  0  0  0  0  0  0  0
    5.2412   -9.9993    5.3831 C   0  0  0  0  0  0  0  0  0  0  0  0
    5.2929  -12.6682    6.5416 H   0  0  0  0  0  0  0  0  0  0  0  0
    3.8405  -13.4282    7.1460 H   0  0  0  0  0  0  0  0  0  0  0  0
    4.4825  -12.0332    7.9823 H   0  0  0  0  0  0  0  0  0  0  0  0
    4.1983  -12.2257    4.2545 H   0  0  0  0  0  0  0  0  0  0  0  0
    2.8803  -13.1555    4.8890 H   0  0  0  0  0  0  0  0  0  0  0  0
    2.1822  -11.6785    3.0138 H   0  0  0  0  0  0  0  0  0  0  0  0
    1.2763  -11.4325    4.4798 H   0  0  0  0  0  0  0  0  0  0  0  0
    7.3161   -9.5014    3.4445 H   0  0  0  0  0  0  0  0  0  0  0  0
    6.9445   -8.6262    1.1491 H   0  0  0  0  0  0  0  0  0  0  0  0
    3.7149   -7.7607   -0.0543 H   0  0  0  0  0  0  0  0  0  0  0  0
    0.9701   -9.8268    2.5123 H   0  0  0  0  0  0  0  0  0  0  0  0
   -0.2348   -9.8039    4.4620 H   0  0  0  0  0  0  0  0  0  0  0  0
   -0.6452   -8.8599    6.5431 H   0  0  0  0  0  0  0  0  0  0  0  0
   -0.9098   -6.5840    6.1620 H   0  0  0  0  0  0  0  0  0  0  0  0
    0.4150   -5.0486    5.1781 H   0  0  0  0  0  0  0  0  0  0  0  0
    1.9017   -5.8045    5.6007 H   0  0  0  0  0  0  0  0  0  0  0  0
    0.1926   -6.1233    3.1964 H   0  0  0  0  0  0  0  0  0  0  0  0
    2.3591   -6.7673    2.4554 H   0  0  0  0  0  0  0  0  0  0  0  0
    1.6510   -7.2893    9.4615 H   0  0  0  0  0  0  0  0  0  0  0  0
    2.3794   -9.3767    8.5037 H   0  0  0  0  0  0  0  0  0  0  0  0
    1.1223  -10.2082    6.6158 H   0  0  0  0  0  0  0  0  0  0  0  0
    4.0105   -7.8968    4.9895 H   0  0  0  0  0  0  0  0  0  0  0  0
    4.0675   -9.8791    7.1593 H   0  0  0  0  0  0  0  0  0  0  0  0
    5.9030  -10.8509    5.5295 H   0  0  0  0  0  0  0  0  0  0  0  0
    5.7711   -9.1641    5.8362 H   0  0  0  0  0  0  0  0  0  0  0  0
    2.5562  -11.6549    6.6266 H   0  0  0  0  0  0  0  0  0  0  0  0
  1  2  1  0
  1 31  1  0
  1 32  1  0
  1 33  1  0
  2 29  1  0
  2  3  1  0
  2 56  1  1
  3  4  1  0
  3 34  1  0
  3 35  1  0
  5  4  1  1
  4 36  1  0
  4 37  1  0
  5 14  1  0
  5 27  1  0
  5  6  1  0
  6 12  2  0
  6  7  1  0
  7 30  1  0
  7  8  2  0
  8  9  1  0
  8 38  1  0
  9 10  2  0
  9 39  1  0
 10 11  1  0
 10 12  1  0
 11 40  1  0
 12 13  1  0
 13 14  1  0
 14 15  1  0
 14 41  1  6
 15 20  1  0
 15 16  2  0
 16 17  1  0
 16 42  1  0
 17 26  1  0
 17 18  1  0
 17 43  1  1
 18 19  1  0
 18 22  1  0
 18 44  1  1
 19 20  1  0
 19 45  1  0
 19 46  1  0
 20 21  1  0
 20 47  1  6
 21 48  1  0
 22 23  2  0
 22 24  1  0
 24 25  2  0
 24 49  1  0
 25 26  1  0
 25 50  1  0
 26 27  1  0
 26 51  1  1
 27 28  1  6
 27 29  1  0
 28 52  1  0
 29 30  1  0
 29 53  1  1
 30 54  1  0
 30 55  1  0
M  CHG  1   2   1
M  END
>  <i_m_ct_stereo_status>  (295) 
1

>  <s_m_source_file>  (295) 
/var/tmp/pbs.5076255.sched01/tmp7zsp0c9b/86_oh4d05k.sdf

>  <i_m_source_file_index>  (295) 
33

>  <i_lp_mmshare_version>  (295) 
48012

>  <i_f3d_flags>  (295) 
0

>  <s_epik_input>  (295) 
W0NIMl0xW0NIMl1OKFtDSDNdKVtDQEBIXShbQ0gyXTIpW0NAXTMoW09IXSlbQ0BIXTRbQ0hdPVtDSF1DKD1PKVtDQEBIXShbQ0gyXVtDQEhdNVtPSF0pW0NASF00W0NIXT1DNVtDQEhdNk9jN2MoW09IXSlbY0hdW2NIXWMyYzdbQ0BAXTEzNg==

>  <s_epik_cmdline>  (295) 
J2VwaWtfcHl0aG9uJywgJy1waHQnLCAnMi4wJywgJy1waCcsICc3LjAnLCAnLXRuJywgJzgnLCAnLW1hJywgJzIwMCcsICctaW1hZScsICc8aW5maWxlLm1hZT4nLCAnLW9tYWUnLCAnPG91dGZpbGUubWFlPic=

>  <r_lp_tautomer_probability>  (295) 
1

>  <r_epik_Ionization_Penalty>  (295) 
0.126753

>  <r_epik_Ionization_Penalty_Charging>  (295) 
0.110082

>  <r_epik_Ionization_Penalty_Neutral>  (295) 
0.0166709

>  <r_epik_State_Penalty>  (295) 
0.110983

>  <r_epik_Charging_Adjusted_Penalty>  (295) 
0.221065

>  <i_epik_Tot_Q>  (295) 
1

>  <i_epik_Tot_abs_Q>  (295) 
1

>  <s_lp_Force_Field>  (295) 
OPLS3e

>  <r_lp_Energy>  (295) 
114.171

>  <b_lp_Chiralities_Consistent>  (295) 
1

>  <s_lp_Variant>  (295) 
81:0-1

>  <s_i_glide_gridfile>  (295) 
pfpi4k_grid

>  <i_i_glide_lignum>  (295) 
33

>  <i_i_glide_rotatable_bonds>  (295) 
3

>  <r_i_docking_score>  (295) 
-3.51298

>  <r_i_glide_ligand_efficiency>  (295) 
-0.117099

>  <r_i_glide_ligand_efficiency_sa>  (295) 
-0.363855

>  <r_i_glide_ligand_efficiency_ln>  (295) 
-0.798187

>  <r_i_glide_gscore>  (295) 
-3.51298

>  <r_i_glide_lipo>  (295) 
-0.0792153

>  <r_i_glide_hbond>  (295) 
-0.2

>  <r_i_glide_metal>  (295) 
-0

>  <r_i_glide_rewards>  (295) 
-1.12409

>  <r_i_glide_evdw>  (295) 
-19.2262

>  <r_i_glide_ecoul>  (295) 
-6.93311

>  <r_i_glide_erotb>  (295) 
0

>  <r_i_glide_esite>  (295) 
-0.108399

>  <r_i_glide_emodel>  (295) 
-40.7547

>  <r_i_glide_energy>  (295) 
-26.1593

>  <r_i_glide_einternal>  (295) 
0.773734

>  <r_i_glide_intrahb_reward>  (295) 
-0.5

>  <i_i_glide_confnum>  (295) 
1

>  <i_i_glide_posenum>  (295) 
13

>  <r_i_glide_eff_state_penalty>  (295) 
0

>  <ligand_id>  (295) 
81

>  <original_smiles>  (295) 
CN1CCC23c4c5ccc(O)c4OC2C2=CC4C(CC2O)C(=O)C=CC4C3(O)C1C5

>  <smiles>  (295) 
[H]Oc1c([H])c([H])c2c3c1OC1([H])C4=C([H])C5([H])C([H])(C(=O)C([H])=C([H])C5([H])C5(O[H])C31C([H])([H])C([H])([H])[N+]([H])(C([H])([H])[H])C5([H])C2([H])[H])C([H])([H])C4([H])O[H]

$$$$
81:1:0
     RDKit          3D

 55 61  0  0  1  0  0  0  0  0999 V2000
    3.8113    0.4703    1.3335 C   0  0  0  0  0  0  0  0  0  0  0  0
    3.9523   -0.9683    1.2350 N   0  0  0  0  0  0  0  0  0  0  0  0
    5.1867   -1.5201    1.7729 C   0  0  0  0  0  0  0  0  0  0  0  0
    5.0440   -1.9774    3.2255 C   0  0  0  0  0  0  0  0  0  0  0  0
    3.8259   -2.9171    3.4771 C   0  0  1  0  0  0  0  0  0  0  0  0
    3.8859   -4.1734    2.6341 C   0  0  0  0  0  0  0  0  0  0  0  0
    3.5404   -4.2791    1.2704 C   0  0  0  0  0  0  0  0  0  0  0  0
    3.6569   -5.5524    0.6851 C   0  0  0  0  0  0  0  0  0  0  0  0
    4.0792   -6.6586    1.4587 C   0  0  0  0  0  0  0  0  0  0  0  0
    4.3129   -6.5136    2.8451 C   0  0  0  0  0  0  0  0  0  0  0  0
    4.6347   -7.6021    3.6007 O   0  0  0  0  0  0  0  0  0  0  0  0
    4.1929   -5.2483    3.4588 C   0  0  0  0  0  0  0  0  0  0  0  0
    4.2376   -4.9631    4.7938 O   0  0  0  0  0  0  0  0  0  0  0  0
    4.0163   -3.5534    4.9239 C   0  0  2  0  0  0  0  0  0  0  0  0
    2.9114   -3.1120    5.8608 C   0  0  0  0  0  0  0  0  0  0  0  0
    2.9330   -1.7875    6.0246 C   0  0  0  0  0  0  0  0  0  0  0  0
    1.7861   -1.0250    5.4657 C   0  0  2  0  0  0  0  0  0  0  0  0
    0.4266   -1.5931    5.9279 C   0  0  2  0  0  0  0  0  0  0  0  0
    0.3077   -3.1389    5.8802 C   0  0  0  0  0  0  0  0  0  0  0  0
    1.6273   -3.9304    6.0839 C   0  0  1  0  0  0  0  0  0  0  0  0
    1.5500   -5.1322    5.3436 O   0  0  0  0  0  0  0  0  0  0  0  0
   -0.7274   -0.9006    5.1893 C   0  0  0  0  0  0  0  0  0  0  0  0
   -1.8537   -0.9529    5.6824 O   0  0  0  0  0  0  0  0  0  0  0  0
   -0.4644   -0.2241    3.9022 C   0  0  0  0  0  0  0  0  0  0  0  0
    0.7549   -0.2226    3.3236 C   0  0  0  0  0  0  0  0  0  0  0  0
    2.0034   -0.8688    3.9180 C   0  0  2  0  0  0  0  0  0  0  0  0
    2.5187   -2.1152    3.0511 C   0  0  2  0  0  0  0  0  0  0  0  0
    1.4092   -2.9882    3.0663 O   0  0  0  0  0  0  0  0  0  0  0  0
    2.7644   -1.7833    1.5215 C   0  0  2  0  0  0  0  0  0  0  0  0
    2.8694   -3.0558    0.6489 C   0  0  0  0  0  0  0  0  0  0  0  0
    4.6015    0.9425    0.7521 H   0  0  0  0  0  0  0  0  0  0  0  0
    3.8902    0.8329    2.3549 H   0  0  0  0  0  0  0  0  0  0  0  0
    2.8635    0.8031    0.9105 H   0  0  0  0  0  0  0  0  0  0  0  0
    5.4981   -2.3755    1.1725 H   0  0  0  0  0  0  0  0  0  0  0  0
    5.9960   -0.7937    1.6831 H   0  0  0  0  0  0  0  0  0  0  0  0
    5.9665   -2.4758    3.5121 H   0  0  0  0  0  0  0  0  0  0  0  0
    4.9708   -1.0912    3.8570 H   0  0  0  0  0  0  0  0  0  0  0  0
    3.3797   -5.6993   -0.3437 H   0  0  0  0  0  0  0  0  0  0  0  0
    4.1589   -7.6266    0.9927 H   0  0  0  0  0  0  0  0  0  0  0  0
    4.6426   -8.4048    3.1034 H   0  0  0  0  0  0  0  0  0  0  0  0
    4.9443   -3.1867    5.3714 H   0  0  0  0  0  0  0  0  0  0  0  0
    3.8548   -1.2571    5.8312 H   0  0  0  0  0  0  0  0  0  0  0  0
    1.8618   -0.0277    5.9018 H   0  0  0  0  0  0  0  0  0  0  0  0
    0.3229   -1.3065    6.9747 H   0  0  0  0  0  0  0  0  0  0  0  0
   -0.3888   -3.4518    6.6572 H   0  0  0  0  0  0  0  0  0  0  0  0
   -0.1811   -3.4480    4.9552 H   0  0  0  0  0  0  0  0  0  0  0  0
    1.6740   -4.2370    7.1286 H   0  0  0  0  0  0  0  0  0  0  0  0
    2.3364   -5.6370    5.4988 H   0  0  0  0  0  0  0  0  0  0  0  0
   -1.2939    0.2669    3.4133 H   0  0  0  0  0  0  0  0  0  0  0  0
    0.8894    0.2888    2.3787 H   0  0  0  0  0  0  0  0  0  0  0  0
    2.7711   -0.1072    3.8474 H   0  0  0  0  0  0  0  0  0  0  0  0
    0.6729   -2.5249    2.6973 H   0  0  0  0  0  0  0  0  0  0  0  0
    1.9047   -1.2407    1.1354 H   0  0  0  0  0  0  0  0  0  0  0  0
    3.3578   -2.8297   -0.3006 H   0  0  0  0  0  0  0  0  0  0  0  0
    1.8631   -3.3606    0.3843 H   0  0  0  0  0  0  0  0  0  0  0  0
  1  2  1  0
  1 31  1  0
  1 32  1  0
  1 33  1  0
  2 29  1  0
  2  3  1  0
  3  4  1  0
  3 34  1  0
  3 35  1  0
  5  4  1  6
  4 36  1  0
  4 37  1  0
  5 14  1  0
  5 27  1  0
  5  6  1  0
  6 12  2  0
  6  7  1  0
  7 30  1  0
  7  8  2  0
  8  9  1  0
  8 38  1  0
  9 10  2  0
  9 39  1  0
 10 11  1  0
 10 12  1  0
 11 40  1  0
 12 13  1  0
 13 14  1  0
 14 15  1  0
 14 41  1  1
 15 20  1  0
 15 16  2  0
 16 17  1  0
 16 42  1  0
 17 26  1  0
 17 18  1  0
 17 43  1  1
 18 19  1  0
 18 22  1  0
 18 44  1  1
 19 20  1  0
 19 45  1  0
 19 46  1  0
 20 21  1  0
 20 47  1  1
 21 48  1  0
 22 23  2  0
 22 24  1  0
 24 25  2  0
 24 49  1  0
 25 26  1  0
 25 50  1  0
 26 27  1  0
 26 51  1  1
 27 28  1  6
 27 29  1  0
 28 52  1  0
 29 30  1  0
 29 53  1  6
 30 54  1  0
 30 55  1  0
M  END
>  <i_m_ct_stereo_status>  (296) 
1

>  <s_m_source_file>  (296) 
/var/tmp/pbs.5076255.sched01/tmp7zsp0c9b/86_oh4d05k.sdf

>  <i_m_source_file_index>  (296) 
34

>  <i_lp_mmshare_version>  (296) 
48012

>  <i_f3d_flags>  (296) 
0

>  <s_epik_input>  (296) 
W0NIMl0xW0NIMl1OKFtDSDNdKVtDQEBIXShbQ0gyXTIpW0NAXTMoW09IXSlbQ0BIXTRbQ0hdPVtDSF1DKD1PKVtDQEBIXShbQ0gyXVtDQEhdNVtPSF0pW0NASF00W0NIXT1DNVtDQEhdNk9jN2MoW09IXSlbY0hdW2NIXWMyYzdbQ0BAXTEzNg==

>  <s_epik_cmdline>  (296) 
J2VwaWtfcHl0aG9uJywgJy1waHQnLCAnMi4wJywgJy1waCcsICc3LjAnLCAnLXRuJywgJzgnLCAnLW1hJywgJzIwMCcsICctaW1hZScsICc8aW5maWxlLm1hZT4nLCAnLW9tYWUnLCAnPG91dGZpbGUubWFlPic=

>  <r_lp_tautomer_probability>  (296) 
1

>  <r_epik_Ionization_Penalty>  (296) 
1.05237

>  <r_epik_Ionization_Penalty_Charging>  (296) 
0

>  <r_epik_Ionization_Penalty_Neutral>  (296) 
1.05237

>  <r_epik_State_Penalty>  (296) 
1.11545

>  <r_epik_Charging_Adjusted_Penalty>  (296) 
1.11545

>  <i_epik_Tot_Q>  (296) 
0

>  <i_epik_Tot_abs_Q>  (296) 
0

>  <s_lp_Force_Field>  (296) 
OPLS3e

>  <r_lp_Energy>  (296) 
111.607

>  <b_lp_Chiralities_Consistent>  (296) 
1

>  <s_lp_Variant>  (296) 
81:0-2

>  <s_i_glide_gridfile>  (296) 
pfpi4k_grid

>  <i_i_glide_lignum>  (296) 
34

>  <i_i_glide_rotatable_bonds>  (296) 
3

>  <r_i_docking_score>  (296) 
-3.18001

>  <r_i_glide_ligand_efficiency>  (296) 
-0.106

>  <r_i_glide_ligand_efficiency_sa>  (296) 
-0.329368

>  <r_i_glide_ligand_efficiency_ln>  (296) 
-0.722534

>  <r_i_glide_gscore>  (296) 
-3.18001

>  <r_i_glide_lipo>  (296) 
-0.270767

>  <r_i_glide_hbond>  (296) 
-0.0359651

>  <r_i_glide_metal>  (296) 
-0

>  <r_i_glide_rewards>  (296) 
-1.13096

>  <r_i_glide_evdw>  (296) 
-18.8416

>  <r_i_glide_ecoul>  (296) 
-5.13818

>  <r_i_glide_erotb>  (296) 
0

>  <r_i_glide_esite>  (296) 
-0.0295155

>  <r_i_glide_emodel>  (296) 
-34.8929

>  <r_i_glide_energy>  (296) 
-23.9798

>  <r_i_glide_einternal>  (296) 
0.412197

>  <r_i_glide_intrahb_reward>  (296) 
-0.5

>  <i_i_glide_confnum>  (296) 
1

>  <i_i_glide_posenum>  (296) 
3

>  <r_i_glide_eff_state_penalty>  (296) 
0

>  <ligand_id>  (296) 
81

>  <original_smiles>  (296) 
CN1CCC23c4c5ccc(O)c4OC2C2=CC4C(CC2O)C(=O)C=CC4C3(O)C1C5

>  <smiles>  (296) 
[H]Oc1c([H])c([H])c2c3c1OC1([H])C4=C([H])C5([H])C([H])(C(=O)C([H])=C([H])C5([H])C5(O[H])C([H])(N(C([H])([H])[H])C([H])([H])C([H])([H])C315)C2([H])[H])C([H])([H])C4([H])O[H]

$$$$
81:1:1
     RDKit          3D

 55 61  0  0  1  0  0  0  0  0999 V2000
    4.8619   -3.9057    2.3735 C   0  0  0  0  0  0  0  0  0  0  0  0
    4.4329   -5.2956    2.3655 N   0  0  0  0  0  0  0  0  0  0  0  0
    5.3074   -6.2281    3.0633 C   0  0  0  0  0  0  0  0  0  0  0  0
    4.8835   -6.4686    4.5146 C   0  0  0  0  0  0  0  0  0  0  0  0
    3.3738   -6.8380    4.6754 C   0  0  1  0  0  0  0  0  0  0  0  0
    3.0041   -8.0904    3.9088 C   0  0  0  0  0  0  0  0  0  0  0  0
    2.7622   -8.1792    2.5213 C   0  0  0  0  0  0  0  0  0  0  0  0
    2.4327   -9.4491    2.0130 C   0  0  0  0  0  0  0  0  0  0  0  0
    2.3347  -10.5534    2.8922 C   0  0  0  0  0  0  0  0  0  0  0  0
    2.4826  -10.3873    4.2851 C   0  0  0  0  0  0  0  0  0  0  0  0
    2.2980  -11.4604    5.1053 O   0  0  0  0  0  0  0  0  0  0  0  0
    2.8051   -9.1224    4.8178 C   0  0  0  0  0  0  0  0  0  0  0  0
    2.8476   -8.7587    6.1337 O   0  0  0  0  0  0  0  0  0  0  0  0
    3.1852   -7.3668    6.1662 C   0  0  2  0  0  0  0  0  0  0  0  0
    2.2647   -6.4569    6.9515 C   0  0  0  0  0  0  0  0  0  0  0  0
    2.7823   -5.2308    7.0484 C   0  0  0  0  0  0  0  0  0  0  0  0
    2.0668   -4.1470    6.3262 C   0  0  2  0  0  0  0  0  0  0  0  0
    0.5598   -4.1106    6.6613 C   0  0  2  0  0  0  0  0  0  0  0  0
   -0.1399   -5.4948    6.6801 C   0  0  0  0  0  0  0  0  0  0  0  0
    0.7512   -6.7064    7.0651 C   0  0  1  0  0  0  0  0  0  0  0  0
    0.2918   -7.8416    6.3581 O   0  0  0  0  0  0  0  0  0  0  0  0
   -0.1704   -3.0951    5.7631 C   0  0  0  0  0  0  0  0  0  0  0  0
   -1.2571   -2.6495    6.1309 O   0  0  0  0  0  0  0  0  0  0  0  0
    0.4420   -2.6963    4.4803 C   0  0  0  0  0  0  0  0  0  0  0  0
    1.6135   -3.2060    4.0465 C   0  0  0  0  0  0  0  0  0  0  0  0
    2.4553   -4.2234    4.8068 C   0  0  2  0  0  0  0  0  0  0  0  0
    2.5133   -5.6394    4.0618 C   0  0  2  0  0  0  0  0  0  0  0  0
    1.1499   -6.0194    3.9657 O   0  0  0  0  0  0  0  0  0  0  0  0
    3.0002   -5.5673    2.5570 C   0  0  2  0  0  0  0  0  0  0  0  0
    2.6702   -6.8569    1.7663 C   0  0  0  0  0  0  0  0  0  0  0  0
    5.8207   -3.8084    1.8639 H   0  0  0  0  0  0  0  0  0  0  0  0
    4.9899   -3.5139    3.3799 H   0  0  0  0  0  0  0  0  0  0  0  0
    4.1544   -3.2771    1.8323 H   0  0  0  0  0  0  0  0  0  0  0  0
    5.3110   -7.1858    2.5414 H   0  0  0  0  0  0  0  0  0  0  0  0
    6.3371   -5.8723    3.0253 H   0  0  0  0  0  0  0  0  0  0  0  0
    5.5322   -7.2425    4.9320 H   0  0  0  0  0  0  0  0  0  0  0  0
    5.1027   -5.5660    5.0856 H   0  0  0  0  0  0  0  0  0  0  0  0
    2.2128   -9.5860    0.9641 H   0  0  0  0  0  0  0  0  0  0  0  0
    2.0850  -11.5250    2.5038 H   0  0  0  0  0  0  0  0  0  0  0  0
    2.2244  -11.2766    6.0350 H   0  0  0  0  0  0  0  0  0  0  0  0
    4.1420   -7.3476    6.6951 H   0  0  0  0  0  0  0  0  0  0  0  0
    3.8508   -5.1136    6.9313 H   0  0  0  0  0  0  0  0  0  0  0  0
    2.4878   -3.2195    6.7171 H   0  0  0  0  0  0  0  0  0  0  0  0
    0.4892   -3.7153    7.6756 H   0  0  0  0  0  0  0  0  0  0  0  0
   -0.9660   -5.4509    7.3906 H   0  0  0  0  0  0  0  0  0  0  0  0
   -0.6315   -5.6756    5.7231 H   0  0  0  0  0  0  0  0  0  0  0  0
    0.5849   -6.9226    8.1190 H   0  0  0  0  0  0  0  0  0  0  0  0
    0.8314   -8.5853    6.5945 H   0  0  0  0  0  0  0  0  0  0  0  0
   -0.0886   -1.9757    3.8764 H   0  0  0  0  0  0  0  0  0  0  0  0
    2.0117   -2.8751    3.0970 H   0  0  0  0  0  0  0  0  0  0  0  0
    3.4626   -3.8268    4.7833 H   0  0  0  0  0  0  0  0  0  0  0  0
    1.1295   -6.9480    3.7770 H   0  0  0  0  0  0  0  0  0  0  0  0
    2.4511   -4.7796    2.0468 H   0  0  0  0  0  0  0  0  0  0  0  0
    3.2904   -6.9243    0.8710 H   0  0  0  0  0  0  0  0  0  0  0  0
    1.6467   -6.7847    1.4135 H   0  0  0  0  0  0  0  0  0  0  0  0
  1  2  1  0
  1 31  1  0
  1 32  1  0
  1 33  1  0
  2 29  1  0
  2  3  1  0
  3  4  1  0
  3 34  1  0
  3 35  1  0
  5  4  1  1
  4 36  1  0
  4 37  1  0
  5 14  1  0
  5 27  1  0
  5  6  1  0
  6 12  2  0
  6  7  1  0
  7 30  1  0
  7  8  2  0
  8  9  1  0
  8 38  1  0
  9 10  2  0
  9 39  1  0
 10 11  1  0
 10 12  1  0
 11 40  1  0
 12 13  1  0
 13 14  1  0
 14 15  1  0
 14 41  1  1
 15 20  1  0
 15 16  2  0
 16 17  1  0
 16 42  1  0
 17 26  1  0
 17 18  1  0
 17 43  1  1
 18 19  1  0
 18 22  1  0
 18 44  1  1
 19 20  1  0
 19 45  1  0
 19 46  1  0
 20 21  1  0
 20 47  1  1
 21 48  1  0
 22 23  2  0
 22 24  1  0
 24 25  2  0
 24 49  1  0
 25 26  1  0
 25 50  1  0
 26 27  1  0
 26 51  1  1
 27 28  1  6
 27 29  1  0
 28 52  1  0
 29 30  1  0
 29 53  1  6
 30 54  1  0
 30 55  1  0
M  END
>  <i_m_ct_stereo_status>  (297) 
1

>  <s_m_source_file>  (297) 
/var/tmp/pbs.5076255.sched01/tmp7zsp0c9b/86_oh4d05k.sdf

>  <i_m_source_file_index>  (297) 
34

>  <i_lp_mmshare_version>  (297) 
48012

>  <i_f3d_flags>  (297) 
0

>  <s_epik_input>  (297) 
W0NIMl0xW0NIMl1OKFtDSDNdKVtDQEBIXShbQ0gyXTIpW0NAXTMoW09IXSlbQ0BIXTRbQ0hdPVtDSF1DKD1PKVtDQEBIXShbQ0gyXVtDQEhdNVtPSF0pW0NASF00W0NIXT1DNVtDQEhdNk9jN2MoW09IXSlbY0hdW2NIXWMyYzdbQ0BAXTEzNg==

>  <s_epik_cmdline>  (297) 
J2VwaWtfcHl0aG9uJywgJy1waHQnLCAnMi4wJywgJy1waCcsICc3LjAnLCAnLXRuJywgJzgnLCAnLW1hJywgJzIwMCcsICctaW1hZScsICc8aW5maWxlLm1hZT4nLCAnLW9tYWUnLCAnPG91dGZpbGUubWFlPic=

>  <r_lp_tautomer_probability>  (297) 
1

>  <r_epik_Ionization_Penalty>  (297) 
1.05237

>  <r_epik_Ionization_Penalty_Charging>  (297) 
0

>  <r_epik_Ionization_Penalty_Neutral>  (297) 
1.05237

>  <r_epik_State_Penalty>  (297) 
1.11545

>  <r_epik_Charging_Adjusted_Penalty>  (297) 
1.11545

>  <i_epik_Tot_Q>  (297) 
0

>  <i_epik_Tot_abs_Q>  (297) 
0

>  <s_lp_Force_Field>  (297) 
OPLS3e

>  <r_lp_Energy>  (297) 
111.607

>  <b_lp_Chiralities_Consistent>  (297) 
1

>  <s_lp_Variant>  (297) 
81:0-2

>  <s_i_glide_gridfile>  (297) 
pfpi4k_grid

>  <i_i_glide_lignum>  (297) 
34

>  <i_i_glide_rotatable_bonds>  (297) 
3

>  <r_i_docking_score>  (297) 
-2.76161

>  <r_i_glide_ligand_efficiency>  (297) 
-0.0920537

>  <r_i_glide_ligand_efficiency_sa>  (297) 
-0.286032

>  <r_i_glide_ligand_efficiency_ln>  (297) 
-0.627468

>  <r_i_glide_gscore>  (297) 
-2.76161

>  <r_i_glide_lipo>  (297) 
-0.141935

>  <r_i_glide_hbond>  (297) 
0

>  <r_i_glide_metal>  (297) 
-0

>  <r_i_glide_rewards>  (297) 
-1.13096

>  <r_i_glide_evdw>  (297) 
-18.1686

>  <r_i_glide_ecoul>  (297) 
-3.7801

>  <r_i_glide_erotb>  (297) 
0

>  <r_i_glide_esite>  (297) 
-0.0132686

>  <r_i_glide_emodel>  (297) 
-31.7974

>  <r_i_glide_energy>  (297) 
-21.9487

>  <r_i_glide_einternal>  (297) 
0.696872

>  <r_i_glide_intrahb_reward>  (297) 
-0.5

>  <i_i_glide_confnum>  (297) 
2

>  <i_i_glide_posenum>  (297) 
38

>  <r_i_glide_eff_state_penalty>  (297) 
0

>  <ligand_id>  (297) 
81

>  <original_smiles>  (297) 
CN1CCC23c4c5ccc(O)c4OC2C2=CC4C(CC2O)C(=O)C=CC4C3(O)C1C5

>  <smiles>  (297) 
[H]Oc1c([H])c([H])c2c3c1OC1([H])C4=C([H])C5([H])C([H])(C(=O)C([H])=C([H])C5([H])C5(O[H])C([H])(N(C([H])([H])[H])C([H])([H])C([H])([H])C315)C2([H])[H])C([H])([H])C4([H])O[H]

$$$$
81:1:2
     RDKit          3D

 55 61  0  0  1  0  0  0  0  0999 V2000
    4.5148    0.1464    1.3829 C   0  0  0  0  0  0  0  0  0  0  0  0
    4.3654   -1.2910    1.2919 N   0  0  0  0  0  0  0  0  0  0  0  0
    5.3999   -2.0687    1.9577 C   0  0  0  0  0  0  0  0  0  0  0  0
    5.0297   -2.4610    3.3915 C   0  0  0  0  0  0  0  0  0  0  0  0
    3.6231   -3.1234    3.5136 C   0  0  1  0  0  0  0  0  0  0  0  0
    3.5046   -4.3789    2.6753 C   0  0  0  0  0  0  0  0  0  0  0  0
    3.2791   -4.4368    1.2848 C   0  0  0  0  0  0  0  0  0  0  0  0
    3.1950   -5.7173    0.7120 C   0  0  0  0  0  0  0  0  0  0  0  0
    3.3089   -6.8720    1.5192 C   0  0  0  0  0  0  0  0  0  0  0  0
    3.4256   -6.7530    2.9200 C   0  0  0  0  0  0  0  0  0  0  0  0
    3.4444   -7.8734    3.6963 O   0  0  0  0  0  0  0  0  0  0  0  0
    3.5021   -5.4810    3.5228 C   0  0  0  0  0  0  0  0  0  0  0  0
    3.4652   -5.1926    4.8575 O   0  0  0  0  0  0  0  0  0  0  0  0
    3.5241   -3.7639    4.9678 C   0  0  2  0  0  0  0  0  0  0  0  0
    2.4418   -3.0926    5.7851 C   0  0  0  0  0  0  0  0  0  0  0  0
    2.7157   -1.7972    5.9552 C   0  0  0  0  0  0  0  0  0  0  0  0
    1.8115   -0.8275    5.2847 C   0  0  2  0  0  0  0  0  0  0  0  0
    0.3252   -1.1028    5.6008 C   0  0  2  0  0  0  0  0  0  0  0  0
   -0.1014   -2.5933    5.5385 C   0  0  0  0  0  0  0  0  0  0  0  0
    1.0018   -3.6319    5.8713 C   0  0  1  0  0  0  0  0  0  0  0  0
    0.7556   -4.8058    5.1217 O   0  0  0  0  0  0  0  0  0  0  0  0
   -0.5902   -0.2111    4.7475 C   0  0  0  0  0  0  0  0  0  0  0  0
   -1.7468   -0.0378    5.1324 O   0  0  0  0  0  0  0  0  0  0  0  0
   -0.0688    0.3760    3.4924 C   0  0  0  0  0  0  0  0  0  0  0  0
    1.1828    0.1300    3.0493 C   0  0  0  0  0  0  0  0  0  0  0  0
    2.2139   -0.7395    3.7689 C   0  0  2  0  0  0  0  0  0  0  0  0
    2.5575   -2.0768    2.9572 C   0  0  2  0  0  0  0  0  0  0  0  0
    1.3026   -2.7061    2.8792 O   0  0  0  0  0  0  0  0  0  0  0  0
    3.0106   -1.8341    1.4569 C   0  0  2  0  0  0  0  0  0  0  0  0
    2.9356   -3.1176    0.5987 C   0  0  0  0  0  0  0  0  0  0  0  0
    5.4346    0.4571    0.8842 H   0  0  0  0  0  0  0  0  0  0  0  0
    4.5602    0.4961    2.4115 H   0  0  0  0  0  0  0  0  0  0  0  0
    3.6972    0.6585    0.8760 H   0  0  0  0  0  0  0  0  0  0  0  0
    5.5917   -2.9788    1.3889 H   0  0  0  0  0  0  0  0  0  0  0  0
    6.3401   -1.5166    1.9538 H   0  0  0  0  0  0  0  0  0  0  0  0
    5.8102   -3.1199    3.7765 H   0  0  0  0  0  0  0  0  0  0  0  0
    5.0648   -1.5656    4.0113 H   0  0  0  0  0  0  0  0  0  0  0  0
    2.9986   -5.8263   -0.3366 H   0  0  0  0  0  0  0  0  0  0  0  0
    3.2402   -7.8489    1.0709 H   0  0  0  0  0  0  0  0  0  0  0  0
    3.5348   -7.6710    4.6146 H   0  0  0  0  0  0  0  0  0  0  0  0
    4.4569   -3.5884    5.5089 H   0  0  0  0  0  0  0  0  0  0  0  0
    3.7407   -1.4703    5.8622 H   0  0  0  0  0  0  0  0  0  0  0  0
    2.0415    0.1406    5.7323 H   0  0  0  0  0  0  0  0  0  0  0  0
    0.1752   -0.7800    6.6318 H   0  0  0  0  0  0  0  0  0  0  0  0
   -0.9228   -2.7452    6.2386 H   0  0  0  0  0  0  0  0  0  0  0  0
   -0.5470   -2.8116    4.5668 H   0  0  0  0  0  0  0  0  0  0  0  0
    0.8809   -3.9265    6.9130 H   0  0  0  0  0  0  0  0  0  0  0  0
    1.4237   -5.4426    5.3341 H   0  0  0  0  0  0  0  0  0  0  0  0
   -0.7272    1.0175    2.9240 H   0  0  0  0  0  0  0  0  0  0  0  0
    1.5112    0.5911    2.1266 H   0  0  0  0  0  0  0  0  0  0  0  0
    3.1217   -0.1470    3.7822 H   0  0  0  0  0  0  0  0  0  0  0  0
    0.7254   -2.1331    2.4031 H   0  0  0  0  0  0  0  0  0  0  0  0
    2.3220   -1.1384    0.9784 H   0  0  0  0  0  0  0  0  0  0  0  0
    3.5541   -3.0155   -0.2943 H   0  0  0  0  0  0  0  0  0  0  0  0
    1.9204   -3.2144    0.2281 H   0  0  0  0  0  0  0  0  0  0  0  0
  1  2  1  0
  1 31  1  0
  1 32  1  0
  1 33  1  0
  2 29  1  0
  2  3  1  0
  3  4  1  0
  3 34  1  0
  3 35  1  0
  5  4  1  1
  4 36  1  0
  4 37  1  0
  5 14  1  0
  5 27  1  0
  5  6  1  0
  6 12  2  0
  6  7  1  0
  7 30  1  0
  7  8  2  0
  8  9  1  0
  8 38  1  0
  9 10  2  0
  9 39  1  0
 10 11  1  0
 10 12  1  0
 11 40  1  0
 12 13  1  0
 13 14  1  0
 14 15  1  0
 14 41  1  1
 15 20  1  0
 15 16  2  0
 16 17  1  0
 16 42  1  0
 17 26  1  0
 17 18  1  0
 17 43  1  1
 18 19  1  0
 18 22  1  0
 18 44  1  1
 19 20  1  0
 19 45  1  0
 19 46  1  0
 20 21  1  0
 20 47  1  1
 21 48  1  0
 22 23  2  0
 22 24  1  0
 24 25  2  0
 24 49  1  0
 25 26  1  0
 25 50  1  0
 26 27  1  0
 26 51  1  1
 27 28  1  6
 27 29  1  0
 28 52  1  0
 29 30  1  0
 29 53  1  6
 30 54  1  0
 30 55  1  0
M  END
>  <i_m_ct_stereo_status>  (298) 
1

>  <s_m_source_file>  (298) 
/var/tmp/pbs.5076255.sched01/tmp7zsp0c9b/86_oh4d05k.sdf

>  <i_m_source_file_index>  (298) 
34

>  <i_lp_mmshare_version>  (298) 
48012

>  <i_f3d_flags>  (298) 
0

>  <s_epik_input>  (298) 
W0NIMl0xW0NIMl1OKFtDSDNdKVtDQEBIXShbQ0gyXTIpW0NAXTMoW09IXSlbQ0BIXTRbQ0hdPVtDSF1DKD1PKVtDQEBIXShbQ0gyXVtDQEhdNVtPSF0pW0NASF00W0NIXT1DNVtDQEhdNk9jN2MoW09IXSlbY0hdW2NIXWMyYzdbQ0BAXTEzNg==

>  <s_epik_cmdline>  (298) 
J2VwaWtfcHl0aG9uJywgJy1waHQnLCAnMi4wJywgJy1waCcsICc3LjAnLCAnLXRuJywgJzgnLCAnLW1hJywgJzIwMCcsICctaW1hZScsICc8aW5maWxlLm1hZT4nLCAnLW9tYWUnLCAnPG91dGZpbGUubWFlPic=

>  <r_lp_tautomer_probability>  (298) 
1

>  <r_epik_Ionization_Penalty>  (298) 
1.05237

>  <r_epik_Ionization_Penalty_Charging>  (298) 
0

>  <r_epik_Ionization_Penalty_Neutral>  (298) 
1.05237

>  <r_epik_State_Penalty>  (298) 
1.11545

>  <r_epik_Charging_Adjusted_Penalty>  (298) 
1.11545

>  <i_epik_Tot_Q>  (298) 
0

>  <i_epik_Tot_abs_Q>  (298) 
0

>  <s_lp_Force_Field>  (298) 
OPLS3e

>  <r_lp_Energy>  (298) 
111.607

>  <b_lp_Chiralities_Consistent>  (298) 
1

>  <s_lp_Variant>  (298) 
81:0-2

>  <s_i_glide_gridfile>  (298) 
pfpi4k_grid

>  <i_i_glide_lignum>  (298) 
34

>  <i_i_glide_rotatable_bonds>  (298) 
3

>  <r_i_docking_score>  (298) 
-2.73276

>  <r_i_glide_ligand_efficiency>  (298) 
-0.091092

>  <r_i_glide_ligand_efficiency_sa>  (298) 
-0.283044

>  <r_i_glide_ligand_efficiency_ln>  (298) 
-0.620913

>  <r_i_glide_gscore>  (298) 
-2.73276

>  <r_i_glide_lipo>  (298) 
-0.236912

>  <r_i_glide_hbond>  (298) 
0

>  <r_i_glide_metal>  (298) 
-0

>  <r_i_glide_rewards>  (298) 
-1.13096

>  <r_i_glide_evdw>  (298) 
-20.2139

>  <r_i_glide_ecoul>  (298) 
-2.20985

>  <r_i_glide_erotb>  (298) 
0

>  <r_i_glide_esite>  (298) 
-0.0227138

>  <r_i_glide_emodel>  (298) 
-32.4032

>  <r_i_glide_energy>  (298) 
-22.4237

>  <r_i_glide_einternal>  (298) 
0.418917

>  <r_i_glide_intrahb_reward>  (298) 
-0.5

>  <i_i_glide_confnum>  (298) 
2

>  <i_i_glide_posenum>  (298) 
9

>  <r_i_glide_eff_state_penalty>  (298) 
0

>  <ligand_id>  (298) 
81

>  <original_smiles>  (298) 
CN1CCC23c4c5ccc(O)c4OC2C2=CC4C(CC2O)C(=O)C=CC4C3(O)C1C5

>  <smiles>  (298) 
[H]Oc1c([H])c([H])c2c3c1OC1([H])C4=C([H])C5([H])C([H])(C(=O)C([H])=C([H])C5([H])C5(O[H])C([H])(N(C([H])([H])[H])C([H])([H])C([H])([H])C315)C2([H])[H])C([H])([H])C4([H])O[H]

$$$$
81:2:0
     RDKit          3D

 55 61  0  0  1  0  0  0  0  0999 V2000
    3.7411  -12.6985    4.5104 C   0  0  0  0  0  0  0  0  0  0  0  0
    3.9234  -11.2524    4.7828 N   0  0  2  0  0  0  0  0  0  0  0  0
    3.2683  -10.8407    6.0421 C   0  0  0  0  0  0  0  0  0  0  0  0
    3.6154   -9.3815    6.3519 C   0  0  0  0  0  0  0  0  0  0  0  0
    3.3464   -8.3925    5.1724 C   0  0  1  0  0  0  0  0  0  0  0  0
    1.8796   -8.3577    4.8031 C   0  0  0  0  0  0  0  0  0  0  0  0
    1.1871   -9.3199    4.0442 C   0  0  0  0  0  0  0  0  0  0  0  0
   -0.1875   -9.0911    3.8242 C   0  0  0  0  0  0  0  0  0  0  0  0
   -0.7858   -7.9183    4.3345 C   0  0  0  0  0  0  0  0  0  0  0  0
   -0.0144   -6.9387    5.0033 C   0  0  0  0  0  0  0  0  0  0  0  0
   -0.5877   -5.7781    5.4350 O   0  0  0  0  0  0  0  0  0  0  0  0
    1.3646   -7.1480    5.2263 C   0  0  0  0  0  0  0  0  0  0  0  0
    2.2627   -6.2595    5.7372 O   0  0  0  0  0  0  0  0  0  0  0  0
    3.5238   -6.9240    5.7596 C   0  0  2  0  0  0  0  0  0  0  0  0
    4.6927   -6.2139    5.1138 C   0  0  0  0  0  0  0  0  0  0  0  0
    5.8282   -6.8723    5.3545 C   0  0  0  0  0  0  0  0  0  0  0  0
    6.4964   -7.5034    4.1874 C   0  0  2  0  0  0  0  0  0  0  0  0
    6.7061   -6.5010    3.0297 C   0  0  2  0  0  0  0  0  0  0  0  0
    5.4770   -5.6179    2.7022 C   0  0  0  0  0  0  0  0  0  0  0  0
    4.5479   -5.2810    3.8963 C   0  0  1  0  0  0  0  0  0  0  0  0
    3.2333   -5.1417    3.4001 O   0  0  0  0  0  0  0  0  0  0  0  0
    7.2273   -7.2199    1.7792 C   0  0  0  0  0  0  0  0  0  0  0  0
    7.8015   -6.5585    0.9167 O   0  0  0  0  0  0  0  0  0  0  0  0
    6.9920   -8.6678    1.6261 C   0  0  0  0  0  0  0  0  0  0  0  0
    6.3259   -9.3952    2.5461 C   0  0  0  0  0  0  0  0  0  0  0  0
    5.7462   -8.8456    3.8497 C   0  0  2  0  0  0  0  0  0  0  0  0
    4.1425   -8.8966    3.8819 C   0  0  2  0  0  0  0  0  0  0  0  0
    3.7401   -8.1316    2.7555 O   0  0  0  0  0  0  0  0  0  0  0  0
    3.5785  -10.3542    3.6393 C   0  0  2  0  0  0  0  0  0  0  0  0
    2.0452  -10.3766    3.3604 C   0  0  0  0  0  0  0  0  0  0  0  0
    2.6838  -12.9650    4.5022 H   0  0  0  0  0  0  0  0  0  0  0  0
    4.2042  -13.2967    5.2990 H   0  0  0  0  0  0  0  0  0  0  0  0
    4.1878  -12.9910    3.5554 H   0  0  0  0  0  0  0  0  0  0  0  0
    2.1865  -10.9761    5.9935 H   0  0  0  0  0  0  0  0  0  0  0  0
    3.6073  -11.4811    6.8590 H   0  0  0  0  0  0  0  0  0  0  0  0
    3.0616   -9.0873    7.2460 H   0  0  0  0  0  0  0  0  0  0  0  0
    4.6692   -9.3404    6.6328 H   0  0  0  0  0  0  0  0  0  0  0  0
   -0.7627   -9.7966    3.2439 H   0  0  0  0  0  0  0  0  0  0  0  0
   -1.8384   -7.7548    4.1662 H   0  0  0  0  0  0  0  0  0  0  0  0
    3.7558   -6.9710    6.8254 H   0  0  0  0  0  0  0  0  0  0  0  0
    5.8761   -7.5267    6.2123 H   0  0  0  0  0  0  0  0  0  0  0  0
    7.4946   -7.7719    4.5333 H   0  0  0  0  0  0  0  0  0  0  0  0
    7.5056   -5.8287    3.3442 H   0  0  0  0  0  0  0  0  0  0  0  0
    5.8353   -4.6766    2.2822 H   0  0  0  0  0  0  0  0  0  0  0  0
    4.9012   -6.0631    1.8890 H   0  0  0  0  0  0  0  0  0  0  0  0
    4.8257   -4.2945    4.2716 H   0  0  0  0  0  0  0  0  0  0  0  0
    2.9433   -5.9846    3.0794 H   0  0  0  0  0  0  0  0  0  0  0  0
    7.3867   -9.1410    0.7397 H   0  0  0  0  0  0  0  0  0  0  0  0
    6.2104  -10.4582    2.3788 H   0  0  0  0  0  0  0  0  0  0  0  0
    6.0889   -9.5431    4.6151 H   0  0  0  0  0  0  0  0  0  0  0  0
    4.0738   -8.5487    1.9768 H   0  0  0  0  0  0  0  0  0  0  0  0
    4.0529  -10.7895    2.7564 H   0  0  0  0  0  0  0  0  0  0  0  0
    1.6028  -11.3542    3.5527 H   0  0  0  0  0  0  0  0  0  0  0  0
    1.9082  -10.2132    2.2911 H   0  0  0  0  0  0  0  0  0  0  0  0
    4.9154  -11.1427    4.9333 H   0  0  0  0  0  0  0  0  0  0  0  0
  1  2  1  0
  1 31  1  0
  1 32  1  0
  1 33  1  0
  2 29  1  0
  2  3  1  0
  2 55  1  1
  3  4  1  0
  3 34  1  0
  3 35  1  0
  5  4  1  1
  4 36  1  0
  4 37  1  0
  5 14  1  0
  5 27  1  0
  5  6  1  0
  6 12  2  0
  6  7  1  0
  7 30  1  0
  7  8  2  0
  8  9  1  0
  8 38  1  0
  9 10  2  0
  9 39  1  0
 10 11  1  0
 10 12  1  0
 12 13  1  0
 13 14  1  0
 14 15  1  0
 14 40  1  1
 15 20  1  0
 15 16  2  0
 16 17  1  0
 16 41  1  0
 17 26  1  0
 17 18  1  0
 17 42  1  1
 18 19  1  0
 18 22  1  0
 18 43  1  1
 19 20  1  0
 19 44  1  0
 19 45  1  0
 20 21  1  0
 20 46  1  1
 21 47  1  0
 22 23  2  0
 22 24  1  0
 24 25  2  0
 24 48  1  0
 25 26  1  0
 25 49  1  0
 26 27  1  0
 26 50  1  1
 27 28  1  6
 27 29  1  0
 28 51  1  0
 29 30  1  0
 29 52  1  6
 30 53  1  0
 30 54  1  0
M  CHG  2   2   1  11  -1
M  END
>  <i_m_ct_stereo_status>  (299) 
1

>  <s_m_source_file>  (299) 
/var/tmp/pbs.5076255.sched01/tmp7zsp0c9b/86_oh4d05k.sdf

>  <i_m_source_file_index>  (299) 
35

>  <i_lp_mmshare_version>  (299) 
48012

>  <i_f3d_flags>  (299) 
0

>  <s_epik_input>  (299) 
W0NIMl0xW0NIMl1OKFtDSDNdKVtDQEBIXShbQ0gyXTIpW0NAXTMoW09IXSlbQ0BIXTRbQ0hdPVtDSF1DKD1PKVtDQEBIXShbQ0gyXVtDQEhdNVtPSF0pW0NASF00W0NIXT1DNVtDQEhdNk9jN2MoW09IXSlbY0hdW2NIXWMyYzdbQ0BAXTEzNg==

>  <s_epik_cmdline>  (299) 
J2VwaWtfcHl0aG9uJywgJy1waHQnLCAnMi4wJywgJy1waCcsICc3LjAnLCAnLXRuJywgJzgnLCAnLW1hJywgJzIwMCcsICctaW1hZScsICc8aW5maWxlLm1hZT4nLCAnLW9tYWUnLCAnPG91dGZpbGUubWFlPic=

>  <r_epik_Ionization_Penalty>  (299) 
2.22508

>  <r_epik_Ionization_Penalty_Charging>  (299) 
2.22507

>  <r_epik_Ionization_Penalty_Neutral>  (299) 
4.55732e-06

>  <r_epik_State_Penalty>  (299) 
2.35973

>  <r_epik_Charging_Adjusted_Penalty>  (299) 
4.5848

>  <i_epik_Tot_Q>  (299) 
0

>  <i_epik_Tot_abs_Q>  (299) 
2

>  <s_lp_Force_Field>  (299) 
OPLS3e

>  <r_lp_Energy>  (299) 
111.244

>  <b_lp_Chiralities_Consistent>  (299) 
1

>  <s_lp_Variant>  (299) 
81:0-3

>  <s_i_glide_gridfile>  (299) 
pfpi4k_grid

>  <i_i_glide_lignum>  (299) 
35

>  <i_i_glide_rotatable_bonds>  (299) 
2

>  <r_i_docking_score>  (299) 
-2.80498

>  <r_i_glide_ligand_efficiency>  (299) 
-0.0934993

>  <r_i_glide_ligand_efficiency_sa>  (299) 
-0.290524

>  <r_i_glide_ligand_efficiency_ln>  (299) 
-0.637322

>  <r_i_glide_gscore>  (299) 
-2.80498

>  <r_i_glide_lipo>  (299) 
-0.188452

>  <r_i_glide_hbond>  (299) 
0

>  <r_i_glide_metal>  (299) 
-0

>  <r_i_glide_rewards>  (299) 
-1.17605

>  <r_i_glide_evdw>  (299) 
-19.0692

>  <r_i_glide_ecoul>  (299) 
-3.09998

>  <r_i_glide_erotb>  (299) 
0

>  <r_i_glide_esite>  (299) 
-0.0220228

>  <r_i_glide_emodel>  (299) 
-34.4265

>  <r_i_glide_energy>  (299) 
-22.1692

>  <r_i_glide_einternal>  (299) 
0.0630903

>  <r_i_glide_intrahb_reward>  (299) 
-0.5

>  <i_i_glide_confnum>  (299) 
1

>  <i_i_glide_posenum>  (299) 
17

>  <r_i_glide_eff_state_penalty>  (299) 
0

>  <ligand_id>  (299) 
81

>  <original_smiles>  (299) 
CN1CCC23c4c5ccc(O)c4OC2C2=CC4C(CC2O)C(=O)C=CC4C3(O)C1C5

>  <smiles>  (299) 
[H]OC1([H])C2=C([H])C3([H])C([H])(C(=O)C([H])=C([H])C3([H])C3(O[H])C45c6c(c([O-])c([H])c([H])c6C([H])([H])C3([H])[N+]([H])(C([H])([H])[H])C([H])([H])C4([H])[H])OC25[H])C1([H])[H]

$$$$
81:2:1
     RDKit          3D

 55 61  0  0  1  0  0  0  0  0999 V2000
    2.7884  -12.1817    4.8572 C   0  0  0  0  0  0  0  0  0  0  0  0
    3.2387  -10.7924    5.1286 N   0  0  2  0  0  0  0  0  0  0  0  0
    2.7507  -10.2889    6.4301 C   0  0  0  0  0  0  0  0  0  0  0  0
    3.3627   -8.9175    6.7258 C   0  0  0  0  0  0  0  0  0  0  0  0
    3.1968   -7.8758    5.5723 C   0  0  1  0  0  0  0  0  0  0  0  0
    1.7382   -7.5751    5.2966 C   0  0  0  0  0  0  0  0  0  0  0  0
    0.8478   -8.3980    4.5781 C   0  0  0  0  0  0  0  0  0  0  0  0
   -0.4730   -7.9343    4.4405 C   0  0  0  0  0  0  0  0  0  0  0  0
   -0.8282   -6.6746    4.9737 C   0  0  0  0  0  0  0  0  0  0  0  0
    0.1264   -5.8505    5.6105 C   0  0  0  0  0  0  0  0  0  0  0  0
   -0.2450   -4.6225    6.0829 O   0  0  0  0  0  0  0  0  0  0  0  0
    1.4620   -6.2979    5.7540 C   0  0  0  0  0  0  0  0  0  0  0  0
    2.5354   -5.5924    6.2190 O   0  0  0  0  0  0  0  0  0  0  0  0
    3.6622   -6.4702    6.1553 C   0  0  2  0  0  0  0  0  0  0  0  0
    4.8986   -5.9692    5.4410 C   0  0  0  0  0  0  0  0  0  0  0  0
    5.9134   -6.8188    5.6080 C   0  0  0  0  0  0  0  0  0  0  0  0
    6.3929   -7.5404    4.3986 C   0  0  2  0  0  0  0  0  0  0  0  0
    6.7033   -6.5731    3.2348 C   0  0  2  0  0  0  0  0  0  0  0  0
    5.6310   -5.4832    2.9884 C   0  0  0  0  0  0  0  0  0  0  0  0
    4.8461   -5.0072    4.2392 C   0  0  1  0  0  0  0  0  0  0  0  0
    3.5490   -4.6341    3.8290 O   0  0  0  0  0  0  0  0  0  0  0  0
    7.0220   -7.3561    1.9531 C   0  0  0  0  0  0  0  0  0  0  0  0
    7.6563   -6.7896    1.0667 O   0  0  0  0  0  0  0  0  0  0  0  0
    6.5283   -8.7405    1.8032 C   0  0  0  0  0  0  0  0  0  0  0  0
    5.7977   -9.3495    2.7600 C   0  0  0  0  0  0  0  0  0  0  0  0
    5.4005   -8.7259    4.1007 C   0  0  2  0  0  0  0  0  0  0  0  0
    3.8176   -8.4943    4.2333 C   0  0  2  0  0  0  0  0  0  0  0  0
    3.4893   -7.6562    3.1367 O   0  0  0  0  0  0  0  0  0  0  0  0
    2.9924   -9.8261    4.0165 C   0  0  2  0  0  0  0  0  0  0  0  0
    1.4671   -9.5771    3.8347 C   0  0  0  0  0  0  0  0  0  0  0  0
    1.7009  -12.2844    4.8925 H   0  0  0  0  0  0  0  0  0  0  0  0
    3.2044  -12.8512    5.6098 H   0  0  0  0  0  0  0  0  0  0  0  0
    3.1349  -12.5268    3.8814 H   0  0  0  0  0  0  0  0  0  0  0  0
    1.6612  -10.2470    6.4601 H   0  0  0  0  0  0  0  0  0  0  0  0
    3.0383  -10.9890    7.2154 H   0  0  0  0  0  0  0  0  0  0  0  0
    2.9256   -8.5461    7.6545 H   0  0  0  0  0  0  0  0  0  0  0  0
    4.4226   -9.0664    6.9408 H   0  0  0  0  0  0  0  0  0  0  0  0
   -1.1948   -8.5245    3.8972 H   0  0  0  0  0  0  0  0  0  0  0  0
   -1.8443   -6.3344    4.8773 H   0  0  0  0  0  0  0  0  0  0  0  0
    3.9469   -6.5776    7.2039 H   0  0  0  0  0  0  0  0  0  0  0  0
    5.8996   -7.4831    6.4590 H   0  0  0  0  0  0  0  0  0  0  0  0
    7.3479   -7.9835    4.6830 H   0  0  0  0  0  0  0  0  0  0  0  0
    7.6233   -6.0530    3.5049 H   0  0  0  0  0  0  0  0  0  0  0  0
    6.1219   -4.6124    2.5503 H   0  0  0  0  0  0  0  0  0  0  0  0
    4.9389   -5.8093    2.2112 H   0  0  0  0  0  0  0  0  0  0  0  0
    5.3142   -4.0903    4.5999 H   0  0  0  0  0  0  0  0  0  0  0  0
    3.0922   -5.4068    3.5272 H   0  0  0  0  0  0  0  0  0  0  0  0
    6.7778   -9.2648    0.8928 H   0  0  0  0  0  0  0  0  0  0  0  0
    5.4872  -10.3728    2.5922 H   0  0  0  0  0  0  0  0  0  0  0  0
    5.6609   -9.4843    4.8406 H   0  0  0  0  0  0  0  0  0  0  0  0
    3.7707   -8.0805    2.3415 H   0  0  0  0  0  0  0  0  0  0  0  0
    3.3349  -10.3241    3.1055 H   0  0  0  0  0  0  0  0  0  0  0  0
    0.8711  -10.4649    4.0476 H   0  0  0  0  0  0  0  0  0  0  0  0
    1.2952   -9.3763    2.7778 H   0  0  0  0  0  0  0  0  0  0  0  0
    4.2426  -10.8646    5.2203 H   0  0  0  0  0  0  0  0  0  0  0  0
  1  2  1  0
  1 31  1  0
  1 32  1  0
  1 33  1  0
  2 29  1  0
  2  3  1  0
  2 55  1  1
  3  4  1  0
  3 34  1  0
  3 35  1  0
  5  4  1  1
  4 36  1  0
  4 37  1  0
  5 14  1  0
  5 27  1  0
  5  6  1  0
  6 12  2  0
  6  7  1  0
  7 30  1  0
  7  8  2  0
  8  9  1  0
  8 38  1  0
  9 10  2  0
  9 39  1  0
 10 11  1  0
 10 12  1  0
 12 13  1  0
 13 14  1  0
 14 15  1  0
 14 40  1  1
 15 20  1  0
 15 16  2  0
 16 17  1  0
 16 41  1  0
 17 26  1  0
 17 18  1  0
 17 42  1  1
 18 19  1  0
 18 22  1  0
 18 43  1  1
 19 20  1  0
 19 44  1  0
 19 45  1  0
 20 21  1  0
 20 46  1  1
 21 47  1  0
 22 23  2  0
 22 24  1  0
 24 25  2  0
 24 48  1  0
 25 26  1  0
 25 49  1  0
 26 27  1  0
 26 50  1  1
 27 28  1  6
 27 29  1  0
 28 51  1  0
 29 30  1  0
 29 52  1  6
 30 53  1  0
 30 54  1  0
M  CHG  2   2   1  11  -1
M  END
>  <i_m_ct_stereo_status>  (300) 
1

>  <s_m_source_file>  (300) 
/var/tmp/pbs.5076255.sched01/tmp7zsp0c9b/86_oh4d05k.sdf

>  <i_m_source_file_index>  (300) 
35

>  <i_lp_mmshare_version>  (300) 
48012

>  <i_f3d_flags>  (300) 
0

>  <s_epik_input>  (300) 
W0NIMl0xW0NIMl1OKFtDSDNdKVtDQEBIXShbQ0gyXTIpW0NAXTMoW09IXSlbQ0BIXTRbQ0hdPVtDSF1DKD1PKVtDQEBIXShbQ0gyXVtDQEhdNVtPSF0pW0NASF00W0NIXT1DNVtDQEhdNk9jN2MoW09IXSlbY0hdW2NIXWMyYzdbQ0BAXTEzNg==

>  <s_epik_cmdline>  (300) 
J2VwaWtfcHl0aG9uJywgJy1waHQnLCAnMi4wJywgJy1waCcsICc3LjAnLCAnLXRuJywgJzgnLCAnLW1hJywgJzIwMCcsICctaW1hZScsICc8aW5maWxlLm1hZT4nLCAnLW9tYWUnLCAnPG91dGZpbGUubWFlPic=

>  <r_epik_Ionization_Penalty>  (300) 
2.22508

>  <r_epik_Ionization_Penalty_Charging>  (300) 
2.22507

>  <r_epik_Ionization_Penalty_Neutral>  (300) 
4.55732e-06

>  <r_epik_State_Penalty>  (300) 
2.35973

>  <r_epik_Charging_Adjusted_Penalty>  (300) 
4.5848

>  <i_epik_Tot_Q>  (300) 
0

>  <i_epik_Tot_abs_Q>  (300) 
2

>  <s_lp_Force_Field>  (300) 
OPLS3e

>  <r_lp_Energy>  (300) 
111.244

>  <b_lp_Chiralities_Consistent>  (300) 
1

>  <s_lp_Variant>  (300) 
81:0-3

>  <s_i_glide_gridfile>  (300) 
pfpi4k_grid

>  <i_i_glide_lignum>  (300) 
35

>  <i_i_glide_rotatable_bonds>  (300) 
2

>  <r_i_docking_score>  (300) 
-2.75227

>  <r_i_glide_ligand_efficiency>  (300) 
-0.0917422

>  <r_i_glide_ligand_efficiency_sa>  (300) 
-0.285064

>  <r_i_glide_ligand_efficiency_ln>  (300) 
-0.625345

>  <r_i_glide_gscore>  (300) 
-2.75227

>  <r_i_glide_lipo>  (300) 
-0.102704

>  <r_i_glide_hbond>  (300) 
0

>  <r_i_glide_metal>  (300) 
-0

>  <r_i_glide_rewards>  (300) 
-1.20381

>  <r_i_glide_evdw>  (300) 
-17.5251

>  <r_i_glide_ecoul>  (300) 
-3.53604

>  <r_i_glide_erotb>  (300) 
0

>  <r_i_glide_esite>  (300) 
-0.0390909

>  <r_i_glide_emodel>  (300) 
-33.2343

>  <r_i_glide_energy>  (300) 
-21.0612

>  <r_i_glide_einternal>  (300) 
0.0193757

>  <r_i_glide_intrahb_reward>  (300) 
-0.5

>  <i_i_glide_confnum>  (300) 
2

>  <i_i_glide_posenum>  (300) 
35

>  <r_i_glide_eff_state_penalty>  (300) 
0

>  <ligand_id>  (300) 
81

>  <original_smiles>  (300) 
CN1CCC23c4c5ccc(O)c4OC2C2=CC4C(CC2O)C(=O)C=CC4C3(O)C1C5

>  <smiles>  (300) 
[H]OC1([H])C2=C([H])C3([H])C([H])(C(=O)C([H])=C([H])C3([H])C3(O[H])C45c6c(c([O-])c([H])c([H])c6C([H])([H])C3([H])[N+]([H])(C([H])([H])[H])C([H])([H])C4([H])[H])OC25[H])C1([H])[H]

$$$$
81:2:2
     RDKit          3D

 55 61  0  0  1  0  0  0  0  0999 V2000
    4.0618  -12.4911    3.4226 C   0  0  0  0  0  0  0  0  0  0  0  0
    4.0620  -11.1295    4.0142 N   0  0  2  0  0  0  0  0  0  0  0  0
    3.1903  -11.0307    5.2083 C   0  0  0  0  0  0  0  0  0  0  0  0
    3.3524   -9.6483    5.8483 C   0  0  0  0  0  0  0  0  0  0  0  0
    3.1758   -8.4520    4.8554 C   0  0  1  0  0  0  0  0  0  0  0  0
    1.7868   -8.4309    4.2626 C   0  0  0  0  0  0  0  0  0  0  0  0
    1.3036   -9.2606    3.2311 C   0  0  0  0  0  0  0  0  0  0  0  0
   -0.0393   -9.0988    2.8439 C   0  0  0  0  0  0  0  0  0  0  0  0
   -0.8211   -8.0977    3.4689 C   0  0  0  0  0  0  0  0  0  0  0  0
   -0.2578   -7.2368    4.4397 C   0  0  0  0  0  0  0  0  0  0  0  0
   -1.0010   -6.2535    5.0098 O   0  0  0  0  0  0  0  0  0  0  0  0
    1.0905   -7.3817    4.8258 C   0  0  0  0  0  0  0  0  0  0  0  0
    1.8133   -6.5658    5.6508 O   0  0  0  0  0  0  0  0  0  0  0  0
    3.1198   -7.1316    5.7425 C   0  0  2  0  0  0  0  0  0  0  0  0
    4.2988   -6.2291    5.4504 C   0  0  0  0  0  0  0  0  0  0  0  0
    5.4419   -6.8532    5.7358 C   0  0  0  0  0  0  0  0  0  0  0  0
    6.3300   -7.1882    4.5914 C   0  0  2  0  0  0  0  0  0  0  0  0
    6.6119   -5.9595    3.7010 C   0  0  2  0  0  0  0  0  0  0  0  0
    5.3683   -5.1005    3.3606 C   0  0  0  0  0  0  0  0  0  0  0  0
    4.2458   -5.0750    4.4316 C   0  0  1  0  0  0  0  0  0  0  0  0
    3.0080   -4.9341    3.7665 O   0  0  0  0  0  0  0  0  0  0  0  0
    7.3812   -6.3714    2.4363 C   0  0  0  0  0  0  0  0  0  0  0  0
    8.0175   -5.5117    1.8306 O   0  0  0  0  0  0  0  0  0  0  0  0
    7.3168   -7.7687    1.9674 C   0  0  0  0  0  0  0  0  0  0  0  0
    6.5908   -8.7070    2.6093 C   0  0  0  0  0  0  0  0  0  0  0  0
    5.7749   -8.4761    3.8822 C   0  0  2  0  0  0  0  0  0  0  0  0
    4.2014   -8.6334    3.6406 C   0  0  2  0  0  0  0  0  0  0  0  0
    3.9290   -7.7164    2.5971 O   0  0  0  0  0  0  0  0  0  0  0  0
    3.8120  -10.0344    3.0315 C   0  0  2  0  0  0  0  0  0  0  0  0
    2.3485  -10.0925    2.5101 C   0  0  0  0  0  0  0  0  0  0  0  0
    3.0549  -12.7982    3.1467 H   0  0  0  0  0  0  0  0  0  0  0  0
    4.4457  -13.2148    4.1445 H   0  0  0  0  0  0  0  0  0  0  0  0
    4.6835  -12.5464    2.5259 H   0  0  0  0  0  0  0  0  0  0  0  0
    2.1443  -11.2233    4.9636 H   0  0  0  0  0  0  0  0  0  0  0  0
    3.4645  -11.8039    5.9281 H   0  0  0  0  0  0  0  0  0  0  0  0
    2.6489   -9.5836    6.6809 H   0  0  0  0  0  0  0  0  0  0  0  0
    4.3434   -9.6039    6.3003 H   0  0  0  0  0  0  0  0  0  0  0  0
   -0.4609   -9.6959    2.0478 H   0  0  0  0  0  0  0  0  0  0  0  0
   -1.8464   -7.9617    3.1686 H   0  0  0  0  0  0  0  0  0  0  0  0
    3.1953   -7.3843    6.8026 H   0  0  0  0  0  0  0  0  0  0  0  0
    5.4237   -7.6673    6.4449 H   0  0  0  0  0  0  0  0  0  0  0  0
    7.2861   -7.4584    5.0382 H   0  0  0  0  0  0  0  0  0  0  0  0
    7.2896   -5.3272    4.2755 H   0  0  0  0  0  0  0  0  0  0  0  0
    5.6970   -4.0731    3.1932 H   0  0  0  0  0  0  0  0  0  0  0  0
    4.9591   -5.4084    2.3967 H   0  0  0  0  0  0  0  0  0  0  0  0
    4.3745   -4.1736    5.0354 H   0  0  0  0  0  0  0  0  0  0  0  0
    2.9671   -4.0754    3.3705 H   0  0  0  0  0  0  0  0  0  0  0  0
    7.8830   -8.0236    1.0831 H   0  0  0  0  0  0  0  0  0  0  0  0
    6.5935   -9.7152    2.2214 H   0  0  0  0  0  0  0  0  0  0  0  0
    6.0601   -9.2924    4.5448 H   0  0  0  0  0  0  0  0  0  0  0  0
    3.0022   -7.7557    2.4047 H   0  0  0  0  0  0  0  0  0  0  0  0
    4.4474  -10.2441    2.1696 H   0  0  0  0  0  0  0  0  0  0  0  0
    1.9644  -11.1085    2.4842 H   0  0  0  0  0  0  0  0  0  0  0  0
    2.3444   -9.7389    1.4787 H   0  0  0  0  0  0  0  0  0  0  0  0
    5.0045  -10.9909    4.3430 H   0  0  0  0  0  0  0  0  0  0  0  0
  1  2  1  0
  1 31  1  0
  1 32  1  0
  1 33  1  0
  2 29  1  0
  2  3  1  0
  2 55  1  1
  3  4  1  0
  3 34  1  0
  3 35  1  0
  5  4  1  1
  4 36  1  0
  4 37  1  0
  5 14  1  0
  5 27  1  0
  5  6  1  0
  6 12  2  0
  6  7  1  0
  7 30  1  0
  7  8  2  0
  8  9  1  0
  8 38  1  0
  9 10  2  0
  9 39  1  0
 10 11  1  0
 10 12  1  0
 12 13  1  0
 13 14  1  0
 14 15  1  0
 14 40  1  1
 15 20  1  0
 15 16  2  0
 16 17  1  0
 16 41  1  0
 17 26  1  0
 17 18  1  0
 17 42  1  1
 18 19  1  0
 18 22  1  0
 18 43  1  1
 19 20  1  0
 19 44  1  0
 19 45  1  0
 20 21  1  0
 20 46  1  1
 21 47  1  0
 22 23  2  0
 22 24  1  0
 24 25  2  0
 24 48  1  0
 25 26  1  0
 25 49  1  0
 26 27  1  0
 26 50  1  1
 27 28  1  6
 27 29  1  0
 28 51  1  0
 29 30  1  0
 29 52  1  6
 30 53  1  0
 30 54  1  0
M  CHG  2   2   1  11  -1
M  END
>  <i_m_ct_stereo_status>  (301) 
1

>  <s_m_source_file>  (301) 
/var/tmp/pbs.5076255.sched01/tmp7zsp0c9b/86_oh4d05k.sdf

>  <i_m_source_file_index>  (301) 
35

>  <i_lp_mmshare_version>  (301) 
48012

>  <i_f3d_flags>  (301) 
0

>  <s_epik_input>  (301) 
W0NIMl0xW0NIMl1OKFtDSDNdKVtDQEBIXShbQ0gyXTIpW0NAXTMoW09IXSlbQ0BIXTRbQ0hdPVtDSF1DKD1PKVtDQEBIXShbQ0gyXVtDQEhdNVtPSF0pW0NASF00W0NIXT1DNVtDQEhdNk9jN2MoW09IXSlbY0hdW2NIXWMyYzdbQ0BAXTEzNg==

>  <s_epik_cmdline>  (301) 
J2VwaWtfcHl0aG9uJywgJy1waHQnLCAnMi4wJywgJy1waCcsICc3LjAnLCAnLXRuJywgJzgnLCAnLW1hJywgJzIwMCcsICctaW1hZScsICc8aW5maWxlLm1hZT4nLCAnLW9tYWUnLCAnPG91dGZpbGUubWFlPic=

>  <r_epik_Ionization_Penalty>  (301) 
2.22508

>  <r_epik_Ionization_Penalty_Charging>  (301) 
2.22507

>  <r_epik_Ionization_Penalty_Neutral>  (301) 
4.55732e-06

>  <r_epik_State_Penalty>  (301) 
2.35973

>  <r_epik_Charging_Adjusted_Penalty>  (301) 
4.5848

>  <i_epik_Tot_Q>  (301) 
0

>  <i_epik_Tot_abs_Q>  (301) 
2

>  <s_lp_Force_Field>  (301) 
OPLS3e

>  <r_lp_Energy>  (301) 
111.244

>  <b_lp_Chiralities_Consistent>  (301) 
1

>  <s_lp_Variant>  (301) 
81:0-3

>  <s_i_glide_gridfile>  (301) 
pfpi4k_grid

>  <i_i_glide_lignum>  (301) 
35

>  <i_i_glide_rotatable_bonds>  (301) 
2

>  <r_i_docking_score>  (301) 
-2.35579

>  <r_i_glide_ligand_efficiency>  (301) 
-0.0785262

>  <r_i_glide_ligand_efficiency_sa>  (301) 
-0.243999

>  <r_i_glide_ligand_efficiency_ln>  (301) 
-0.53526

>  <r_i_glide_gscore>  (301) 
-2.35579

>  <r_i_glide_lipo>  (301) 
-0.0935215

>  <r_i_glide_hbond>  (301) 
0

>  <r_i_glide_metal>  (301) 
-0

>  <r_i_glide_rewards>  (301) 
-0.630961

>  <r_i_glide_evdw>  (301) 
-20.2258

>  <r_i_glide_ecoul>  (301) 
-3.99508

>  <r_i_glide_erotb>  (301) 
0

>  <r_i_glide_esite>  (301) 
-0.0207526

>  <r_i_glide_emodel>  (301) 
-30.0106

>  <r_i_glide_energy>  (301) 
-24.2209

>  <r_i_glide_einternal>  (301) 
0.535308

>  <r_i_glide_intrahb_reward>  (301) 
-0

>  <i_i_glide_confnum>  (301) 
2

>  <i_i_glide_posenum>  (301) 
19

>  <r_i_glide_eff_state_penalty>  (301) 
0

>  <ligand_id>  (301) 
81

>  <original_smiles>  (301) 
CN1CCC23c4c5ccc(O)c4OC2C2=CC4C(CC2O)C(=O)C=CC4C3(O)C1C5

>  <smiles>  (301) 
[H]OC1([H])C2=C([H])C3([H])C([H])(C(=O)C([H])=C([H])C3([H])C3(O[H])C45c6c(c([O-])c([H])c([H])c6C([H])([H])C3([H])[N+]([H])(C([H])([H])[H])C([H])([H])C4([H])[H])OC25[H])C1([H])[H]

$$$$
82:0:0
     RDKit          3D

 39 42  0  0  1  0  0  0  0  0999 V2000
    0.5489    0.2145    2.7871 O   0  0  0  0  0  0  0  0  0  0  0  0
    1.5806   -0.4156    2.5923 C   0  0  0  0  0  0  0  0  0  0  0  0
    2.6216    0.0746    1.6015 C   0  0  0  0  0  0  0  0  0  0  0  0
    3.5472   -1.1283    1.4348 C   0  0  1  0  0  0  0  0  0  0  0  0
    3.1653   -2.1351    2.5276 C   0  0  2  0  0  0  0  0  0  0  0  0
    3.0032   -3.4962    1.8068 C   0  0  0  0  0  0  0  0  0  0  0  0
    3.6578   -3.2831    0.4630 C   0  0  0  0  0  0  0  0  0  0  0  0
    3.3795   -1.8637    0.1656 N   0  0  2  0  0  0  0  0  0  0  0  0
    4.1512   -1.3245   -0.9553 C   0  0  0  0  0  0  0  0  0  0  0  0
    3.5940   -1.8064   -2.2786 C   0  0  0  0  0  0  0  0  0  0  0  0
    4.3971   -2.8012   -3.1086 C   0  0  0  0  0  0  0  0  0  0  0  0
    4.1460   -2.0597   -4.3187 O   0  0  0  0  0  0  0  0  0  0  0  0
    3.7544   -0.9337   -3.5151 C   0  0  0  0  0  0  0  0  0  0  0  0
    1.9534   -1.5917    3.1524 N   0  0  0  0  0  0  0  0  0  0  0  0
    1.1994   -2.3330    4.1357 C   0  0  0  0  0  0  0  0  0  0  0  0
    0.4548   -1.6553    5.1316 C   0  0  0  0  0  0  0  0  0  0  0  0
   -0.2607   -2.3047    6.0854 N   0  0  0  0  0  0  0  0  0  0  0  0
   -0.2144   -3.6537    6.0618 C   0  0  0  0  0  0  0  0  0  0  0  0
    0.5259   -4.3455    5.0862 C   0  0  0  0  0  0  0  0  0  0  0  0
    1.2252   -3.6934    4.1401 N   0  0  0  0  0  0  0  0  0  0  0  0
    2.1412    0.3928    0.6804 H   0  0  0  0  0  0  0  0  0  0  0  0
    3.1452    0.9293    2.0295 H   0  0  0  0  0  0  0  0  0  0  0  0
    4.5906   -0.8308    1.5491 H   0  0  0  0  0  0  0  0  0  0  0  0
    3.9662   -2.1844    3.2724 H   0  0  0  0  0  0  0  0  0  0  0  0
    3.4467   -4.3272    2.3550 H   0  0  0  0  0  0  0  0  0  0  0  0
    1.9572   -3.7284    1.6187 H   0  0  0  0  0  0  0  0  0  0  0  0
    4.7353   -3.4283    0.5545 H   0  0  0  0  0  0  0  0  0  0  0  0
    3.2911   -3.9667   -0.3044 H   0  0  0  0  0  0  0  0  0  0  0  0
    4.1010   -0.2546   -0.9301 H   0  0  0  0  0  0  0  0  0  0  0  0
    5.2114   -1.5438   -0.8484 H   0  0  0  0  0  0  0  0  0  0  0  0
    2.5446   -2.1152   -2.2314 H   0  0  0  0  0  0  0  0  0  0  0  0
    5.4674   -2.8001   -2.8496 H   0  0  0  0  0  0  0  0  0  0  0  0
    3.9630   -3.8081   -3.1072 H   0  0  0  0  0  0  0  0  0  0  0  0
    2.8145   -0.4735   -3.8363 H   0  0  0  0  0  0  0  0  0  0  0  0
    4.5680   -0.2052   -3.4030 H   0  0  0  0  0  0  0  0  0  0  0  0
    0.4627   -0.5706    5.1992 H   0  0  0  0  0  0  0  0  0  0  0  0
   -0.7888   -4.1703    6.8143 H   0  0  0  0  0  0  0  0  0  0  0  0
    0.5350   -5.4245    5.0406 H   0  0  0  0  0  0  0  0  0  0  0  0
    2.3856   -1.7800   -0.0534 H   0  0  0  0  0  0  0  0  0  0  0  0
  1  2  2  0
  2 14  1  0
  2  3  1  0
  3  4  1  0
  3 21  1  0
  3 22  1  0
  4  8  1  0
  4  5  1  0
  4 23  1  1
  5  6  1  0
  5 14  1  0
  5 24  1  1
  6  7  1  0
  6 25  1  0
  6 26  1  0
  7  8  1  0
  7 27  1  0
  7 28  1  0
  8  9  1  0
  8 39  1  6
  9 10  1  0
  9 29  1  0
  9 30  1  0
 10 13  1  0
 10 11  1  0
 10 31  1  0
 11 12  1  0
 11 32  1  0
 11 33  1  0
 12 13  1  0
 13 34  1  0
 13 35  1  0
 14 15  1  0
 15 20  1  0
 15 16  2  0
 16 17  1  0
 16 36  1  0
 17 18  2  0
 18 19  1  0
 18 37  1  0
 19 20  2  0
 19 38  1  0
M  CHG  1   8   1
M  END
>  <i_m_ct_stereo_status>  (302) 
1

>  <s_m_source_file>  (302) 
/var/tmp/pbs.5076255.sched01/tmp7zsp0c9b/86_oh4d05k.sdf

>  <i_m_source_file_index>  (302) 
36

>  <i_lp_mmshare_version>  (302) 
48012

>  <i_f3d_flags>  (302) 
0

>  <s_epik_input>  (302) 
bjFbY0hdW2NIXW5bY0hdYzFOKEMoPU8pW0NIMl0yKVtDQEhdKFtDQEhdMjMpW0NIMl1bQ0gyXU4zW0NIMl1bQ0hdNFtDSDJdT1tDSDJdNA==

>  <s_epik_cmdline>  (302) 
J2VwaWtfcHl0aG9uJywgJy1waHQnLCAnMi4wJywgJy1waCcsICc3LjAnLCAnLXRuJywgJzgnLCAnLW1hJywgJzIwMCcsICctaW1hZScsICc8aW5maWxlLm1hZT4nLCAnLW9tYWUnLCAnPG91dGZpbGUubWFlPic=

>  <r_lp_tautomer_probability>  (302) 
1

>  <r_epik_Ionization_Penalty>  (302) 
0.0319129

>  <r_epik_Ionization_Penalty_Charging>  (302) 
0.0319129

>  <r_epik_Ionization_Penalty_Neutral>  (302) 
1.64645e-08

>  <r_epik_State_Penalty>  (302) 
0.0264049

>  <r_epik_Charging_Adjusted_Penalty>  (302) 
0.0583177

>  <i_epik_Tot_Q>  (302) 
1

>  <i_epik_Tot_abs_Q>  (302) 
1

>  <s_lp_Force_Field>  (302) 
OPLS3e

>  <r_lp_Energy>  (302) 
19.8906

>  <b_lp_Chiralities_Consistent>  (302) 
1

>  <s_lp_Variant>  (302) 
82:0-1

>  <s_i_glide_gridfile>  (302) 
pfpi4k_grid

>  <i_i_glide_lignum>  (302) 
36

>  <i_i_glide_rotatable_bonds>  (302) 
3

>  <r_i_docking_score>  (302) 
-4.21877

>  <r_i_glide_ligand_efficiency>  (302) 
-0.210939

>  <r_i_glide_ligand_efficiency_sa>  (302) 
-0.572576

>  <r_i_glide_ligand_efficiency_ln>  (302) 
-1.05582

>  <r_i_glide_gscore>  (302) 
-4.21877

>  <r_i_glide_lipo>  (302) 
-0.346607

>  <r_i_glide_hbond>  (302) 
-0.52

>  <r_i_glide_metal>  (302) 
-0

>  <r_i_glide_rewards>  (302) 
-1.53187

>  <r_i_glide_evdw>  (302) 
-24.86

>  <r_i_glide_ecoul>  (302) 
-7.9072

>  <r_i_glide_erotb>  (302) 
0.711264

>  <r_i_glide_esite>  (302) 
-0.102484

>  <r_i_glide_emodel>  (302) 
-40.496

>  <r_i_glide_energy>  (302) 
-32.7672

>  <r_i_glide_einternal>  (302) 
3.61157

>  <r_i_glide_intrahb_reward>  (302) 
-0

>  <i_i_glide_confnum>  (302) 
2

>  <i_i_glide_posenum>  (302) 
1

>  <r_i_glide_eff_state_penalty>  (302) 
0

>  <ligand_id>  (302) 
82

>  <original_smiles>  (302) 
O=C1CC2C(CCN2CC2COC2)N1c1cnccn1

>  <smiles>  (302) 
[H]c1nc([H])c(N2C(=O)C([H])([H])C3([H])C2([H])C([H])([H])C([H])([H])[N+]3([H])C([H])([H])C2([H])C([H])([H])OC2([H])[H])nc1[H]

$$$$
82:0:1
     RDKit          3D

 39 42  0  0  1  0  0  0  0  0999 V2000
    1.3355   -5.3916    2.4202 O   0  0  0  0  0  0  0  0  0  0  0  0
    2.4160   -5.0096    1.9710 C   0  0  0  0  0  0  0  0  0  0  0  0
    2.6287   -3.5534    1.5869 C   0  0  0  0  0  0  0  0  0  0  0  0
    3.9796   -3.5705    0.8791 C   0  0  1  0  0  0  0  0  0  0  0  0
    4.5937   -4.9520    1.1313 C   0  0  2  0  0  0  0  0  0  0  0  0
    5.0142   -5.4841   -0.2410 C   0  0  0  0  0  0  0  0  0  0  0  0
    5.0146   -4.2532   -1.1117 C   0  0  0  0  0  0  0  0  0  0  0  0
    3.8902   -3.4457   -0.5884 N   0  0  2  0  0  0  0  0  0  0  0  0
    3.8192   -2.0438   -1.0647 C   0  0  0  0  0  0  0  0  0  0  0  0
    3.4864   -1.9894   -2.5432 C   0  0  0  0  0  0  0  0  0  0  0  0
    4.5245   -2.3984   -3.5790 C   0  0  0  0  0  0  0  0  0  0  0  0
    4.2109   -1.2669   -4.3999 O   0  0  0  0  0  0  0  0  0  0  0  0
    3.5760   -0.6541   -3.2756 C   0  0  0  0  0  0  0  0  0  0  0  0
    3.5301   -5.7455    1.7550 N   0  0  0  0  0  0  0  0  0  0  0  0
    3.6374   -7.1539    1.9465 C   0  0  0  0  0  0  0  0  0  0  0  0
    4.9119   -7.7046    2.2227 C   0  0  0  0  0  0  0  0  0  0  0  0
    5.1138   -9.0175    2.4444 N   0  0  0  0  0  0  0  0  0  0  0  0
    4.0204   -9.8172    2.3852 C   0  0  0  0  0  0  0  0  0  0  0  0
    2.7544   -9.2897    2.0756 C   0  0  0  0  0  0  0  0  0  0  0  0
    2.5575   -7.9801    1.8469 N   0  0  0  0  0  0  0  0  0  0  0  0
    1.8141   -3.1617    0.9705 H   0  0  0  0  0  0  0  0  0  0  0  0
    2.6823   -2.9600    2.5084 H   0  0  0  0  0  0  0  0  0  0  0  0
    4.6406   -2.7971    1.2741 H   0  0  0  0  0  0  0  0  0  0  0  0
    5.4533   -4.8544    1.7931 H   0  0  0  0  0  0  0  0  0  0  0  0
    5.9929   -5.9577   -0.2410 H   0  0  0  0  0  0  0  0  0  0  0  0
    4.2963   -6.1938   -0.6575 H   0  0  0  0  0  0  0  0  0  0  0  0
    5.9483   -3.6986   -0.9879 H   0  0  0  0  0  0  0  0  0  0  0  0
    4.9216   -4.5630   -2.1507 H   0  0  0  0  0  0  0  0  0  0  0  0
    3.0623   -1.4889   -0.5056 H   0  0  0  0  0  0  0  0  0  0  0  0
    4.7574   -1.5310   -0.8582 H   0  0  0  0  0  0  0  0  0  0  0  0
    2.5319   -2.4711   -2.7709 H   0  0  0  0  0  0  0  0  0  0  0  0
    5.5570   -2.3473   -3.1986 H   0  0  0  0  0  0  0  0  0  0  0  0
    4.3121   -3.3542   -4.0758 H   0  0  0  0  0  0  0  0  0  0  0  0
    2.6016   -0.2250   -3.5078 H   0  0  0  0  0  0  0  0  0  0  0  0
    4.2410    0.0553   -2.7683 H   0  0  0  0  0  0  0  0  0  0  0  0
    5.7996   -7.0773    2.2968 H   0  0  0  0  0  0  0  0  0  0  0  0
    4.1668  -10.8692    2.5735 H   0  0  0  0  0  0  0  0  0  0  0  0
    1.8742   -9.9155    2.0266 H   0  0  0  0  0  0  0  0  0  0  0  0
    3.0596   -3.9411   -0.8816 H   0  0  0  0  0  0  0  0  0  0  0  0
  1  2  2  0
  2 14  1  0
  2  3  1  0
  3  4  1  0
  3 21  1  0
  3 22  1  0
  4  8  1  0
  4  5  1  0
  4 23  1  1
  5  6  1  0
  5 14  1  0
  5 24  1  1
  6  7  1  0
  6 25  1  0
  6 26  1  0
  7  8  1  0
  7 27  1  0
  7 28  1  0
  8  9  1  0
  8 39  1  6
  9 10  1  0
  9 29  1  0
  9 30  1  0
 10 13  1  0
 10 11  1  0
 10 31  1  0
 11 12  1  0
 11 32  1  0
 11 33  1  0
 12 13  1  0
 13 34  1  0
 13 35  1  0
 14 15  1  0
 15 20  1  0
 15 16  2  0
 16 17  1  0
 16 36  1  0
 17 18  2  0
 18 19  1  0
 18 37  1  0
 19 20  2  0
 19 38  1  0
M  CHG  1   8   1
M  END
>  <i_m_ct_stereo_status>  (303) 
1

>  <s_m_source_file>  (303) 
/var/tmp/pbs.5076255.sched01/tmp7zsp0c9b/86_oh4d05k.sdf

>  <i_m_source_file_index>  (303) 
36

>  <i_lp_mmshare_version>  (303) 
48012

>  <i_f3d_flags>  (303) 
0

>  <s_epik_input>  (303) 
bjFbY0hdW2NIXW5bY0hdYzFOKEMoPU8pW0NIMl0yKVtDQEhdKFtDQEhdMjMpW0NIMl1bQ0gyXU4zW0NIMl1bQ0hdNFtDSDJdT1tDSDJdNA==

>  <s_epik_cmdline>  (303) 
J2VwaWtfcHl0aG9uJywgJy1waHQnLCAnMi4wJywgJy1waCcsICc3LjAnLCAnLXRuJywgJzgnLCAnLW1hJywgJzIwMCcsICctaW1hZScsICc8aW5maWxlLm1hZT4nLCAnLW9tYWUnLCAnPG91dGZpbGUubWFlPic=

>  <r_lp_tautomer_probability>  (303) 
1

>  <r_epik_Ionization_Penalty>  (303) 
0.0319129

>  <r_epik_Ionization_Penalty_Charging>  (303) 
0.0319129

>  <r_epik_Ionization_Penalty_Neutral>  (303) 
1.64645e-08

>  <r_epik_State_Penalty>  (303) 
0.0264049

>  <r_epik_Charging_Adjusted_Penalty>  (303) 
0.0583177

>  <i_epik_Tot_Q>  (303) 
1

>  <i_epik_Tot_abs_Q>  (303) 
1

>  <s_lp_Force_Field>  (303) 
OPLS3e

>  <r_lp_Energy>  (303) 
19.8906

>  <b_lp_Chiralities_Consistent>  (303) 
1

>  <s_lp_Variant>  (303) 
82:0-1

>  <s_i_glide_gridfile>  (303) 
pfpi4k_grid

>  <i_i_glide_lignum>  (303) 
36

>  <i_i_glide_rotatable_bonds>  (303) 
3

>  <r_i_docking_score>  (303) 
-3.87155

>  <r_i_glide_ligand_efficiency>  (303) 
-0.193577

>  <r_i_glide_ligand_efficiency_sa>  (303) 
-0.52545

>  <r_i_glide_ligand_efficiency_ln>  (303) 
-0.968921

>  <r_i_glide_gscore>  (303) 
-3.87155

>  <r_i_glide_lipo>  (303) 
-0.333455

>  <r_i_glide_hbond>  (303) 
-0.299002

>  <r_i_glide_metal>  (303) 
-0

>  <r_i_glide_rewards>  (303) 
-1.55775

>  <r_i_glide_evdw>  (303) 
-24.2902

>  <r_i_glide_ecoul>  (303) 
-7.7397

>  <r_i_glide_erotb>  (303) 
0.711264

>  <r_i_glide_esite>  (303) 
-0.0171415

>  <r_i_glide_emodel>  (303) 
-40.2355

>  <r_i_glide_energy>  (303) 
-32.0299

>  <r_i_glide_einternal>  (303) 
0.794238

>  <r_i_glide_intrahb_reward>  (303) 
-0

>  <i_i_glide_confnum>  (303) 
6

>  <i_i_glide_posenum>  (303) 
7

>  <r_i_glide_eff_state_penalty>  (303) 
0

>  <ligand_id>  (303) 
82

>  <original_smiles>  (303) 
O=C1CC2C(CCN2CC2COC2)N1c1cnccn1

>  <smiles>  (303) 
[H]c1nc([H])c(N2C(=O)C([H])([H])C3([H])C2([H])C([H])([H])C([H])([H])[N+]3([H])C([H])([H])C2([H])C([H])([H])OC2([H])[H])nc1[H]

$$$$
82:0:2
     RDKit          3D

 39 42  0  0  1  0  0  0  0  0999 V2000
    1.2159   -2.7958    3.3095 O   0  0  0  0  0  0  0  0  0  0  0  0
    2.2152   -2.9714    2.6151 C   0  0  0  0  0  0  0  0  0  0  0  0
    2.8269   -1.8278    1.8325 C   0  0  0  0  0  0  0  0  0  0  0  0
    3.8959   -2.5143    0.9886 C   0  0  1  0  0  0  0  0  0  0  0  0
    4.0271   -3.9538    1.5084 C   0  0  2  0  0  0  0  0  0  0  0  0
    3.9339   -4.8713    0.2722 C   0  0  0  0  0  0  0  0  0  0  0  0
    4.1815   -3.9062   -0.8767 C   0  0  0  0  0  0  0  0  0  0  0  0
    3.5459   -2.6549   -0.4354 N   0  0  2  0  0  0  0  0  0  0  0  0
    3.8772   -1.4796   -1.2565 C   0  0  0  0  0  0  0  0  0  0  0  0
    3.3553   -1.6335   -2.6805 C   0  0  0  0  0  0  0  0  0  0  0  0
    4.1898   -2.4110   -3.7033 C   0  0  0  0  0  0  0  0  0  0  0  0
    3.9608   -1.4018   -4.7074 O   0  0  0  0  0  0  0  0  0  0  0  0
    3.5545   -0.4868   -3.6651 C   0  0  0  0  0  0  0  0  0  0  0  0
    2.9162   -4.1118    2.4519 N   0  0  0  0  0  0  0  0  0  0  0  0
    2.5648   -5.3795    3.0004 C   0  0  0  0  0  0  0  0  0  0  0  0
    3.6097   -6.2929    3.3114 C   0  0  0  0  0  0  0  0  0  0  0  0
    3.3768   -7.5046    3.8533 N   0  0  0  0  0  0  0  0  0  0  0  0
    2.0883   -7.8370    4.0872 C   0  0  0  0  0  0  0  0  0  0  0  0
    1.0410   -6.9529    3.7496 C   0  0  0  0  0  0  0  0  0  0  0  0
    1.2712   -5.7472    3.1996 N   0  0  0  0  0  0  0  0  0  0  0  0
    2.0752   -1.2923    1.2552 H   0  0  0  0  0  0  0  0  0  0  0  0
    3.2783   -1.1329    2.5383 H   0  0  0  0  0  0  0  0  0  0  0  0
    4.8545   -2.0011    1.0784 H   0  0  0  0  0  0  0  0  0  0  0  0
    4.9915   -4.0672    2.0070 H   0  0  0  0  0  0  0  0  0  0  0  0
    4.6525   -5.6929    0.2717 H   0  0  0  0  0  0  0  0  0  0  0  0
    2.9397   -5.3058    0.1565 H   0  0  0  0  0  0  0  0  0  0  0  0
    5.2570   -3.7519   -1.0168 H   0  0  0  0  0  0  0  0  0  0  0  0
    3.7564   -4.2587   -1.8133 H   0  0  0  0  0  0  0  0  0  0  0  0
    3.4019   -0.6384   -0.7761 H   0  0  0  0  0  0  0  0  0  0  0  0
    4.9450   -1.2832   -1.2462 H   0  0  0  0  0  0  0  0  0  0  0  0
    2.3095   -1.9548   -2.7097 H   0  0  0  0  0  0  0  0  0  0  0  0
    5.2520   -2.4787   -3.4212 H   0  0  0  0  0  0  0  0  0  0  0  0
    3.7572   -3.3871   -3.9685 H   0  0  0  0  0  0  0  0  0  0  0  0
    2.6203    0.0454   -3.8897 H   0  0  0  0  0  0  0  0  0  0  0  0
    4.3704    0.1834   -3.3615 H   0  0  0  0  0  0  0  0  0  0  0  0
    4.6518   -6.0408    3.1514 H   0  0  0  0  0  0  0  0  0  0  0  0
    1.8982   -8.7991    4.5369 H   0  0  0  0  0  0  0  0  0  0  0  0
    0.0124   -7.2057    3.9420 H   0  0  0  0  0  0  0  0  0  0  0  0
    2.5456   -2.8002   -0.4845 H   0  0  0  0  0  0  0  0  0  0  0  0
  1  2  2  0
  2 14  1  0
  2  3  1  0
  3  4  1  0
  3 21  1  0
  3 22  1  0
  4  8  1  0
  4  5  1  0
  4 23  1  6
  5  6  1  0
  5 14  1  0
  5 24  1  1
  6  7  1  0
  6 25  1  0
  6 26  1  0
  7  8  1  0
  7 27  1  0
  7 28  1  0
  8  9  1  0
  8 39  1  1
  9 10  1  0
  9 29  1  0
  9 30  1  0
 10 13  1  0
 10 11  1  0
 10 31  1  0
 11 12  1  0
 11 32  1  0
 11 33  1  0
 12 13  1  0
 13 34  1  0
 13 35  1  0
 14 15  1  0
 15 20  1  0
 15 16  2  0
 16 17  1  0
 16 36  1  0
 17 18  2  0
 18 19  1  0
 18 37  1  0
 19 20  2  0
 19 38  1  0
M  CHG  1   8   1
M  END
>  <i_m_ct_stereo_status>  (304) 
1

>  <s_m_source_file>  (304) 
/var/tmp/pbs.5076255.sched01/tmp7zsp0c9b/86_oh4d05k.sdf

>  <i_m_source_file_index>  (304) 
36

>  <i_lp_mmshare_version>  (304) 
48012

>  <i_f3d_flags>  (304) 
0

>  <s_epik_input>  (304) 
bjFbY0hdW2NIXW5bY0hdYzFOKEMoPU8pW0NIMl0yKVtDQEhdKFtDQEhdMjMpW0NIMl1bQ0gyXU4zW0NIMl1bQ0hdNFtDSDJdT1tDSDJdNA==

>  <s_epik_cmdline>  (304) 
J2VwaWtfcHl0aG9uJywgJy1waHQnLCAnMi4wJywgJy1waCcsICc3LjAnLCAnLXRuJywgJzgnLCAnLW1hJywgJzIwMCcsICctaW1hZScsICc8aW5maWxlLm1hZT4nLCAnLW9tYWUnLCAnPG91dGZpbGUubWFlPic=

>  <r_lp_tautomer_probability>  (304) 
1

>  <r_epik_Ionization_Penalty>  (304) 
0.0319129

>  <r_epik_Ionization_Penalty_Charging>  (304) 
0.0319129

>  <r_epik_Ionization_Penalty_Neutral>  (304) 
1.64645e-08

>  <r_epik_State_Penalty>  (304) 
0.0264049

>  <r_epik_Charging_Adjusted_Penalty>  (304) 
0.0583177

>  <i_epik_Tot_Q>  (304) 
1

>  <i_epik_Tot_abs_Q>  (304) 
1

>  <s_lp_Force_Field>  (304) 
OPLS3e

>  <r_lp_Energy>  (304) 
19.8906

>  <b_lp_Chiralities_Consistent>  (304) 
1

>  <s_lp_Variant>  (304) 
82:0-1

>  <s_i_glide_gridfile>  (304) 
pfpi4k_grid

>  <i_i_glide_lignum>  (304) 
36

>  <i_i_glide_rotatable_bonds>  (304) 
3

>  <r_i_docking_score>  (304) 
-3.5838

>  <r_i_glide_ligand_efficiency>  (304) 
-0.17919

>  <r_i_glide_ligand_efficiency_sa>  (304) 
-0.486397

>  <r_i_glide_ligand_efficiency_ln>  (304) 
-0.896907

>  <r_i_glide_gscore>  (304) 
-3.5838

>  <r_i_glide_lipo>  (304) 
-0.410801

>  <r_i_glide_hbond>  (304) 
-0.32

>  <r_i_glide_metal>  (304) 
-0

>  <r_i_glide_rewards>  (304) 
-1.53187

>  <r_i_glide_evdw>  (304) 
-22.1036

>  <r_i_glide_ecoul>  (304) 
-5.92713

>  <r_i_glide_erotb>  (304) 
0.711264

>  <r_i_glide_esite>  (304) 
-0.0381475

>  <r_i_glide_emodel>  (304) 
-35.8903

>  <r_i_glide_energy>  (304) 
-28.0308

>  <r_i_glide_einternal>  (304) 
0.373366

>  <r_i_glide_intrahb_reward>  (304) 
-0

>  <i_i_glide_confnum>  (304) 
6

>  <i_i_glide_posenum>  (304) 
23

>  <r_i_glide_eff_state_penalty>  (304) 
0

>  <ligand_id>  (304) 
82

>  <original_smiles>  (304) 
O=C1CC2C(CCN2CC2COC2)N1c1cnccn1

>  <smiles>  (304) 
[H]c1nc([H])c(N2C(=O)C([H])([H])C3([H])C2([H])C([H])([H])C([H])([H])[N+]3([H])C([H])([H])C2([H])C([H])([H])OC2([H])[H])nc1[H]

$$$$
82:1:0
     RDKit          3D

 38 41  0  0  1  0  0  0  0  0999 V2000
    1.2085   -5.8641    0.0834 O   0  0  0  0  0  0  0  0  0  0  0  0
    2.2097   -5.8183    0.7944 C   0  0  0  0  0  0  0  0  0  0  0  0
    3.2622   -4.7348    0.6549 C   0  0  0  0  0  0  0  0  0  0  0  0
    4.4130   -5.1925    1.5738 C   0  0  1  0  0  0  0  0  0  0  0  0
    3.8050   -6.3445    2.3945 C   0  0  2  0  0  0  0  0  0  0  0  0
    4.8517   -7.4553    2.3145 C   0  0  0  0  0  0  0  0  0  0  0  0
    6.1061   -6.7713    1.8499 C   0  0  0  0  0  0  0  0  0  0  0  0
    5.5499   -5.8264    0.8915 N   0  0  0  0  0  0  0  0  0  0  0  0
    6.6137   -4.9105    0.5026 C   0  0  0  0  0  0  0  0  0  0  0  0
    6.1724   -3.8913   -0.5415 C   0  0  0  0  0  0  0  0  0  0  0  0
    7.2252   -3.0948   -1.2926 C   0  0  0  0  0  0  0  0  0  0  0  0
    6.4961   -1.8641   -1.1192 O   0  0  0  0  0  0  0  0  0  0  0  0
    5.7059   -2.5010   -0.0989 C   0  0  0  0  0  0  0  0  0  0  0  0
    2.5253   -6.6822    1.7685 N   0  0  0  0  0  0  0  0  0  0  0  0
    1.6621   -7.7269    2.1937 C   0  0  0  0  0  0  0  0  0  0  0  0
    2.1053   -9.0731    2.1576 C   0  0  0  0  0  0  0  0  0  0  0  0
    1.3431  -10.1138    2.5346 N   0  0  0  0  0  0  0  0  0  0  0  0
    0.0850   -9.8238    2.9217 C   0  0  0  0  0  0  0  0  0  0  0  0
   -0.3955   -8.5054    2.9484 C   0  0  0  0  0  0  0  0  0  0  0  0
    0.3823   -7.4591    2.6005 N   0  0  0  0  0  0  0  0  0  0  0  0
    3.5238   -4.6678   -0.4010 H   0  0  0  0  0  0  0  0  0  0  0  0
    2.8633   -3.7652    0.9674 H   0  0  0  0  0  0  0  0  0  0  0  0
    4.7685   -4.3923    2.2259 H   0  0  0  0  0  0  0  0  0  0  0  0
    3.6484   -6.0088    3.4209 H   0  0  0  0  0  0  0  0  0  0  0  0
    4.9640   -8.0100    3.2491 H   0  0  0  0  0  0  0  0  0  0  0  0
    4.6604   -8.1483    1.4921 H   0  0  0  0  0  0  0  0  0  0  0  0
    6.6330   -6.2858    2.6700 H   0  0  0  0  0  0  0  0  0  0  0  0
    6.7590   -7.4947    1.3633 H   0  0  0  0  0  0  0  0  0  0  0  0
    6.9891   -4.4164    1.4059 H   0  0  0  0  0  0  0  0  0  0  0  0
    7.4445   -5.5086    0.1102 H   0  0  0  0  0  0  0  0  0  0  0  0
    5.5184   -4.3170   -1.3087 H   0  0  0  0  0  0  0  0  0  0  0  0
    8.1855   -3.0679   -0.7636 H   0  0  0  0  0  0  0  0  0  0  0  0
    7.3135   -3.3954   -2.3381 H   0  0  0  0  0  0  0  0  0  0  0  0
    4.6341   -2.3267   -0.2144 H   0  0  0  0  0  0  0  0  0  0  0  0
    6.0677   -2.2406    0.9057 H   0  0  0  0  0  0  0  0  0  0  0  0
    3.0776   -9.3787    1.7790 H   0  0  0  0  0  0  0  0  0  0  0  0
   -0.5146  -10.6642    3.2067 H   0  0  0  0  0  0  0  0  0  0  0  0
   -1.4157   -8.2963    3.2605 H   0  0  0  0  0  0  0  0  0  0  0  0
  1  2  2  0
  2 14  1  0
  2  3  1  0
  3  4  1  0
  3 21  1  0
  3 22  1  0
  4  8  1  0
  4  5  1  0
  4 23  1  1
  5  6  1  0
  5 14  1  0
  5 24  1  1
  6  7  1  0
  6 25  1  0
  6 26  1  0
  7  8  1  0
  7 27  1  0
  7 28  1  0
  8  9  1  0
  9 10  1  0
  9 29  1  0
  9 30  1  0
 10 13  1  0
 10 11  1  0
 10 31  1  0
 11 12  1  0
 11 32  1  0
 11 33  1  0
 12 13  1  0
 13 34  1  0
 13 35  1  0
 14 15  1  0
 15 20  1  0
 15 16  2  0
 16 17  1  0
 16 36  1  0
 17 18  2  0
 18 19  1  0
 18 37  1  0
 19 20  2  0
 19 38  1  0
M  END
>  <i_m_ct_stereo_status>  (305) 
1

>  <s_m_source_file>  (305) 
/var/tmp/pbs.5076255.sched01/tmp7zsp0c9b/86_oh4d05k.sdf

>  <i_m_source_file_index>  (305) 
37

>  <i_lp_mmshare_version>  (305) 
48012

>  <i_f3d_flags>  (305) 
0

>  <s_epik_input>  (305) 
bjFbY0hdW2NIXW5bY0hdYzFOKEMoPU8pW0NIMl0yKVtDQEhdKFtDQEhdMjMpW0NIMl1bQ0gyXU4zW0NIMl1bQ0hdNFtDSDJdT1tDSDJdNA==

>  <s_epik_cmdline>  (305) 
J2VwaWtfcHl0aG9uJywgJy1waHQnLCAnMi4wJywgJy1waCcsICc3LjAnLCAnLXRuJywgJzgnLCAnLW1hJywgJzIwMCcsICctaW1hZScsICc8aW5maWxlLm1hZT4nLCAnLW9tYWUnLCAnPG91dGZpbGUubWFlPic=

>  <r_lp_tautomer_probability>  (305) 
1

>  <r_epik_Ionization_Penalty>  (305) 
1.74673

>  <r_epik_Ionization_Penalty_Charging>  (305) 
0

>  <r_epik_Ionization_Penalty_Neutral>  (305) 
1.74673

>  <r_epik_State_Penalty>  (305) 
1.85625

>  <r_epik_Charging_Adjusted_Penalty>  (305) 
1.85625

>  <i_epik_Tot_Q>  (305) 
0

>  <i_epik_Tot_abs_Q>  (305) 
0

>  <s_lp_Force_Field>  (305) 
OPLS3e

>  <r_lp_Energy>  (305) 
17.0115

>  <b_lp_Chiralities_Consistent>  (305) 
1

>  <s_lp_Variant>  (305) 
82:0-2

>  <s_i_glide_gridfile>  (305) 
pfpi4k_grid

>  <i_i_glide_lignum>  (305) 
37

>  <i_i_glide_rotatable_bonds>  (305) 
3

>  <r_i_docking_score>  (305) 
-3.74768

>  <r_i_glide_ligand_efficiency>  (305) 
-0.187384

>  <r_i_glide_ligand_efficiency_sa>  (305) 
-0.508638

>  <r_i_glide_ligand_efficiency_ln>  (305) 
-0.937919

>  <r_i_glide_gscore>  (305) 
-3.74768

>  <r_i_glide_lipo>  (305) 
-0.331521

>  <r_i_glide_hbond>  (305) 
-0.482725

>  <r_i_glide_metal>  (305) 
-0

>  <r_i_glide_rewards>  (305) 
-1.53874

>  <r_i_glide_evdw>  (305) 
-22.0208

>  <r_i_glide_ecoul>  (305) 
-6.41798

>  <r_i_glide_erotb>  (305) 
0.7158

>  <r_i_glide_esite>  (305) 
-0.0467546

>  <r_i_glide_emodel>  (305) 
-33.3461

>  <r_i_glide_energy>  (305) 
-28.4387

>  <r_i_glide_einternal>  (305) 
4.03345

>  <r_i_glide_intrahb_reward>  (305) 
-0

>  <i_i_glide_confnum>  (305) 
4

>  <i_i_glide_posenum>  (305) 
6

>  <r_i_glide_eff_state_penalty>  (305) 
0

>  <ligand_id>  (305) 
82

>  <original_smiles>  (305) 
O=C1CC2C(CCN2CC2COC2)N1c1cnccn1

>  <smiles>  (305) 
[H]c1nc([H])c(N2C(=O)C([H])([H])C3([H])N(C([H])([H])C4([H])C([H])([H])OC4([H])[H])C([H])([H])C([H])([H])C23[H])nc1[H]

$$$$
82:1:1
     RDKit          3D

 38 41  0  0  1  0  0  0  0  0999 V2000
    0.9605   -6.1511    0.4539 O   0  0  0  0  0  0  0  0  0  0  0  0
    2.0572   -5.7416    0.8254 C   0  0  0  0  0  0  0  0  0  0  0  0
    2.5951   -4.4425    0.2903 C   0  0  0  0  0  0  0  0  0  0  0  0
    4.0313   -4.3630    0.8165 C   0  0  1  0  0  0  0  0  0  0  0  0
    4.1139   -5.4790    1.8709 C   0  0  2  0  0  0  0  0  0  0  0  0
    5.3848   -6.2614    1.5446 C   0  0  0  0  0  0  0  0  0  0  0  0
    6.1326   -5.3122    0.6289 C   0  0  0  0  0  0  0  0  0  0  0  0
    5.0626   -4.7179   -0.1623 N   0  0  0  0  0  0  0  0  0  0  0  0
    5.5766   -3.5653   -0.8953 C   0  0  0  0  0  0  0  0  0  0  0  0
    4.6058   -3.0502   -1.9725 C   0  0  0  0  0  0  0  0  0  0  0  0
    4.7915   -3.4668   -3.4284 C   0  0  0  0  0  0  0  0  0  0  0  0
    4.5778   -2.1083   -3.8742 O   0  0  0  0  0  0  0  0  0  0  0  0
    4.7937   -1.6504   -2.5154 C   0  0  0  0  0  0  0  0  0  0  0  0
    2.8893   -6.2774    1.7320 N   0  0  0  0  0  0  0  0  0  0  0  0
    2.6667   -7.5067    2.4166 C   0  0  0  0  0  0  0  0  0  0  0  0
    3.3335   -7.7427    3.6437 C   0  0  0  0  0  0  0  0  0  0  0  0
    3.1674   -8.8715    4.3664 N   0  0  0  0  0  0  0  0  0  0  0  0
    2.3204   -9.7986    3.8519 C   0  0  0  0  0  0  0  0  0  0  0  0
    1.6565   -9.5826    2.6323 C   0  0  0  0  0  0  0  0  0  0  0  0
    1.8267   -8.4560    1.9205 N   0  0  0  0  0  0  0  0  0  0  0  0
    2.4832   -4.5483   -0.7882 H   0  0  0  0  0  0  0  0  0  0  0  0
    1.9922   -3.6063    0.6530 H   0  0  0  0  0  0  0  0  0  0  0  0
    4.2443   -3.3993    1.2757 H   0  0  0  0  0  0  0  0  0  0  0  0
    4.1703   -5.0316    2.8636 H   0  0  0  0  0  0  0  0  0  0  0  0
    5.9686   -6.5216    2.4296 H   0  0  0  0  0  0  0  0  0  0  0  0
    5.1619   -7.1843    1.0056 H   0  0  0  0  0  0  0  0  0  0  0  0
    6.6534   -4.5483    1.2095 H   0  0  0  0  0  0  0  0  0  0  0  0
    6.8681   -5.8405    0.0259 H   0  0  0  0  0  0  0  0  0  0  0  0
    5.8294   -2.7736   -0.1956 H   0  0  0  0  0  0  0  0  0  0  0  0
    6.5086   -3.8499   -1.3729 H   0  0  0  0  0  0  0  0  0  0  0  0
    3.5487   -3.0757   -1.7054 H   0  0  0  0  0  0  0  0  0  0  0  0
    5.8001   -3.8001   -3.6552 H   0  0  0  0  0  0  0  0  0  0  0  0
    4.0291   -4.1665   -3.7765 H   0  0  0  0  0  0  0  0  0  0  0  0
    4.0222   -0.9606   -2.1654 H   0  0  0  0  0  0  0  0  0  0  0  0
    5.8001   -1.2820   -2.3382 H   0  0  0  0  0  0  0  0  0  0  0  0
    4.0032   -7.0058    4.0749 H   0  0  0  0  0  0  0  0  0  0  0  0
    2.1785  -10.7040    4.4156 H   0  0  0  0  0  0  0  0  0  0  0  0
    0.9702  -10.3023    2.2078 H   0  0  0  0  0  0  0  0  0  0  0  0
  1  2  2  0
  2 14  1  0
  2  3  1  0
  3  4  1  0
  3 21  1  0
  3 22  1  0
  4  8  1  0
  4  5  1  0
  4 23  1  1
  5  6  1  0
  5 14  1  0
  5 24  1  1
  6  7  1  0
  6 25  1  0
  6 26  1  0
  7  8  1  0
  7 27  1  0
  7 28  1  0
  8  9  1  0
  9 10  1  0
  9 29  1  0
  9 30  1  0
 10 13  1  0
 10 11  1  0
 10 31  1  0
 11 12  1  0
 11 32  1  0
 11 33  1  0
 12 13  1  0
 13 34  1  0
 13 35  1  0
 14 15  1  0
 15 20  1  0
 15 16  2  0
 16 17  1  0
 16 36  1  0
 17 18  2  0
 18 19  1  0
 18 37  1  0
 19 20  2  0
 19 38  1  0
M  END
>  <i_m_ct_stereo_status>  (306) 
1

>  <s_m_source_file>  (306) 
/var/tmp/pbs.5076255.sched01/tmp7zsp0c9b/86_oh4d05k.sdf

>  <i_m_source_file_index>  (306) 
37

>  <i_lp_mmshare_version>  (306) 
48012

>  <i_f3d_flags>  (306) 
0

>  <s_epik_input>  (306) 
bjFbY0hdW2NIXW5bY0hdYzFOKEMoPU8pW0NIMl0yKVtDQEhdKFtDQEhdMjMpW0NIMl1bQ0gyXU4zW0NIMl1bQ0hdNFtDSDJdT1tDSDJdNA==

>  <s_epik_cmdline>  (306) 
J2VwaWtfcHl0aG9uJywgJy1waHQnLCAnMi4wJywgJy1waCcsICc3LjAnLCAnLXRuJywgJzgnLCAnLW1hJywgJzIwMCcsICctaW1hZScsICc8aW5maWxlLm1hZT4nLCAnLW9tYWUnLCAnPG91dGZpbGUubWFlPic=

>  <r_lp_tautomer_probability>  (306) 
1

>  <r_epik_Ionization_Penalty>  (306) 
1.74673

>  <r_epik_Ionization_Penalty_Charging>  (306) 
0

>  <r_epik_Ionization_Penalty_Neutral>  (306) 
1.74673

>  <r_epik_State_Penalty>  (306) 
1.85625

>  <r_epik_Charging_Adjusted_Penalty>  (306) 
1.85625

>  <i_epik_Tot_Q>  (306) 
0

>  <i_epik_Tot_abs_Q>  (306) 
0

>  <s_lp_Force_Field>  (306) 
OPLS3e

>  <r_lp_Energy>  (306) 
17.0115

>  <b_lp_Chiralities_Consistent>  (306) 
1

>  <s_lp_Variant>  (306) 
82:0-2

>  <s_i_glide_gridfile>  (306) 
pfpi4k_grid

>  <i_i_glide_lignum>  (306) 
37

>  <i_i_glide_rotatable_bonds>  (306) 
3

>  <r_i_docking_score>  (306) 
-3.60383

>  <r_i_glide_ligand_efficiency>  (306) 
-0.180192

>  <r_i_glide_ligand_efficiency_sa>  (306) 
-0.489115

>  <r_i_glide_ligand_efficiency_ln>  (306) 
-0.90192

>  <r_i_glide_gscore>  (306) 
-3.60383

>  <r_i_glide_lipo>  (306) 
-0.579413

>  <r_i_glide_hbond>  (306) 
-0.301565

>  <r_i_glide_metal>  (306) 
-0

>  <r_i_glide_rewards>  (306) 
-1.5514

>  <r_i_glide_evdw>  (306) 
-20.7915

>  <r_i_glide_ecoul>  (306) 
-5.31288

>  <r_i_glide_erotb>  (306) 
0.7158

>  <r_i_glide_esite>  (306) 
-0.05074

>  <r_i_glide_emodel>  (306) 
-32.7373

>  <r_i_glide_energy>  (306) 
-26.1044

>  <r_i_glide_einternal>  (306) 
0.310967

>  <r_i_glide_intrahb_reward>  (306) 
-0

>  <i_i_glide_confnum>  (306) 
1

>  <i_i_glide_posenum>  (306) 
40

>  <r_i_glide_eff_state_penalty>  (306) 
0

>  <ligand_id>  (306) 
82

>  <original_smiles>  (306) 
O=C1CC2C(CCN2CC2COC2)N1c1cnccn1

>  <smiles>  (306) 
[H]c1nc([H])c(N2C(=O)C([H])([H])C3([H])N(C([H])([H])C4([H])C([H])([H])OC4([H])[H])C([H])([H])C([H])([H])C23[H])nc1[H]

$$$$
82:1:2
     RDKit          3D

 38 41  0  0  1  0  0  0  0  0999 V2000
    6.6693   -1.6593   -0.1125 O   0  0  0  0  0  0  0  0  0  0  0  0
    5.8685   -2.3926   -0.6967 C   0  0  0  0  0  0  0  0  0  0  0  0
    5.6887   -2.3117   -2.1919 C   0  0  0  0  0  0  0  0  0  0  0  0
    4.4908   -3.2211   -2.4829 C   0  0  1  0  0  0  0  0  0  0  0  0
    4.2556   -3.9901   -1.1731 C   0  0  2  0  0  0  0  0  0  0  0  0
    2.7594   -3.8552   -0.8768 C   0  0  0  0  0  0  0  0  0  0  0  0
    2.1902   -3.3807   -2.2023 C   0  0  0  0  0  0  0  0  0  0  0  0
    3.2371   -2.4929   -2.6858 N   0  0  0  0  0  0  0  0  0  0  0  0
    2.9777   -2.1492   -4.0769 C   0  0  0  0  0  0  0  0  0  0  0  0
    3.8237   -0.9587   -4.5352 C   0  0  0  0  0  0  0  0  0  0  0  0
    3.7467    0.3675   -3.7898 C   0  0  0  0  0  0  0  0  0  0  0  0
    3.6824    1.1002   -5.0254 O   0  0  0  0  0  0  0  0  0  0  0  0
    3.3051   -0.1114   -5.6951 C   0  0  0  0  0  0  0  0  0  0  0  0
    5.0877   -3.3406   -0.1663 N   0  0  0  0  0  0  0  0  0  0  0  0
    5.0694   -3.7438    1.1957 C   0  0  0  0  0  0  0  0  0  0  0  0
    5.0282   -2.7471    2.1974 C   0  0  0  0  0  0  0  0  0  0  0  0
    5.0047   -3.0358    3.5165 N   0  0  0  0  0  0  0  0  0  0  0  0
    5.0275   -4.3461    3.8399 C   0  0  0  0  0  0  0  0  0  0  0  0
    5.0588   -5.3515    2.8547 C   0  0  0  0  0  0  0  0  0  0  0  0
    5.0645   -5.0563    1.5356 N   0  0  0  0  0  0  0  0  0  0  0  0
    5.5172   -1.2697   -2.4359 H   0  0  0  0  0  0  0  0  0  0  0  0
    6.5949   -2.6661   -2.6826 H   0  0  0  0  0  0  0  0  0  0  0  0
    4.6853   -3.9060   -3.3104 H   0  0  0  0  0  0  0  0  0  0  0  0
    4.5594   -5.0309   -1.2956 H   0  0  0  0  0  0  0  0  0  0  0  0
    2.3082   -4.7931   -0.5532 H   0  0  0  0  0  0  0  0  0  0  0  0
    2.5651   -3.1048   -0.1088 H   0  0  0  0  0  0  0  0  0  0  0  0
    2.0451   -4.2090   -2.8957 H   0  0  0  0  0  0  0  0  0  0  0  0
    1.2339   -2.8731   -2.0881 H   0  0  0  0  0  0  0  0  0  0  0  0
    3.1440   -3.0198   -4.7156 H   0  0  0  0  0  0  0  0  0  0  0  0
    1.9221   -1.8965   -4.1797 H   0  0  0  0  0  0  0  0  0  0  0  0
    4.8687   -1.2083   -4.6976 H   0  0  0  0  0  0  0  0  0  0  0  0
    2.8273    0.4318   -3.2102 H   0  0  0  0  0  0  0  0  0  0  0  0
    4.6074    0.6365   -3.1877 H   0  0  0  0  0  0  0  0  0  0  0  0
    3.8030   -0.2574   -6.6495 H   0  0  0  0  0  0  0  0  0  0  0  0
    2.2162   -0.1745   -5.8005 H   0  0  0  0  0  0  0  0  0  0  0  0
    4.9919   -1.6988    1.9389 H   0  0  0  0  0  0  0  0  0  0  0  0
    5.0255   -4.5822    4.8939 H   0  0  0  0  0  0  0  0  0  0  0  0
    5.0856   -6.3991    3.1235 H   0  0  0  0  0  0  0  0  0  0  0  0
  1  2  2  0
  2 14  1  0
  2  3  1  0
  3  4  1  0
  3 21  1  0
  3 22  1  0
  4  8  1  0
  4  5  1  0
  4 23  1  6
  5  6  1  0
  5 14  1  0
  5 24  1  6
  6  7  1  0
  6 25  1  0
  6 26  1  0
  7  8  1  0
  7 27  1  0
  7 28  1  0
  8  9  1  0
  9 10  1  0
  9 29  1  0
  9 30  1  0
 10 13  1  0
 10 11  1  0
 10 31  1  0
 11 12  1  0
 11 32  1  0
 11 33  1  0
 12 13  1  0
 13 34  1  0
 13 35  1  0
 14 15  1  0
 15 20  1  0
 15 16  2  0
 16 17  1  0
 16 36  1  0
 17 18  2  0
 18 19  1  0
 18 37  1  0
 19 20  2  0
 19 38  1  0
M  END
>  <i_m_ct_stereo_status>  (307) 
1

>  <s_m_source_file>  (307) 
/var/tmp/pbs.5076255.sched01/tmp7zsp0c9b/86_oh4d05k.sdf

>  <i_m_source_file_index>  (307) 
37

>  <i_lp_mmshare_version>  (307) 
48012

>  <i_f3d_flags>  (307) 
0

>  <s_epik_input>  (307) 
bjFbY0hdW2NIXW5bY0hdYzFOKEMoPU8pW0NIMl0yKVtDQEhdKFtDQEhdMjMpW0NIMl1bQ0gyXU4zW0NIMl1bQ0hdNFtDSDJdT1tDSDJdNA==

>  <s_epik_cmdline>  (307) 
J2VwaWtfcHl0aG9uJywgJy1waHQnLCAnMi4wJywgJy1waCcsICc3LjAnLCAnLXRuJywgJzgnLCAnLW1hJywgJzIwMCcsICctaW1hZScsICc8aW5maWxlLm1hZT4nLCAnLW9tYWUnLCAnPG91dGZpbGUubWFlPic=

>  <r_lp_tautomer_probability>  (307) 
1

>  <r_epik_Ionization_Penalty>  (307) 
1.74673

>  <r_epik_Ionization_Penalty_Charging>  (307) 
0

>  <r_epik_Ionization_Penalty_Neutral>  (307) 
1.74673

>  <r_epik_State_Penalty>  (307) 
1.85625

>  <r_epik_Charging_Adjusted_Penalty>  (307) 
1.85625

>  <i_epik_Tot_Q>  (307) 
0

>  <i_epik_Tot_abs_Q>  (307) 
0

>  <s_lp_Force_Field>  (307) 
OPLS3e

>  <r_lp_Energy>  (307) 
17.0115

>  <b_lp_Chiralities_Consistent>  (307) 
1

>  <s_lp_Variant>  (307) 
82:0-2

>  <s_i_glide_gridfile>  (307) 
pfpi4k_grid

>  <i_i_glide_lignum>  (307) 
37

>  <i_i_glide_rotatable_bonds>  (307) 
3

>  <r_i_docking_score>  (307) 
-3.03933

>  <r_i_glide_ligand_efficiency>  (307) 
-0.151966

>  <r_i_glide_ligand_efficiency_sa>  (307) 
-0.4125

>  <r_i_glide_ligand_efficiency_ln>  (307) 
-0.760643

>  <r_i_glide_gscore>  (307) 
-3.03933

>  <r_i_glide_lipo>  (307) 
-0.379008

>  <r_i_glide_hbond>  (307) 
-0.0788711

>  <r_i_glide_metal>  (307) 
-0

>  <r_i_glide_rewards>  (307) 
-1.63779

>  <r_i_glide_evdw>  (307) 
-23.9772

>  <r_i_glide_ecoul>  (307) 
-2.92932

>  <r_i_glide_erotb>  (307) 
0.7158

>  <r_i_glide_esite>  (307) 
-0.0211943

>  <r_i_glide_emodel>  (307) 
-31.4962

>  <r_i_glide_energy>  (307) 
-26.9065

>  <r_i_glide_einternal>  (307) 
2.44587

>  <r_i_glide_intrahb_reward>  (307) 
-0

>  <i_i_glide_confnum>  (307) 
3

>  <i_i_glide_posenum>  (307) 
3

>  <r_i_glide_eff_state_penalty>  (307) 
0

>  <ligand_id>  (307) 
82

>  <original_smiles>  (307) 
O=C1CC2C(CCN2CC2COC2)N1c1cnccn1

>  <smiles>  (307) 
[H]c1nc([H])c(N2C(=O)C([H])([H])C3([H])N(C([H])([H])C4([H])C([H])([H])OC4([H])[H])C([H])([H])C([H])([H])C23[H])nc1[H]

$$$$
83:0:0
     RDKit          3D

 79 84  0  0  1  0  0  0  0  0999 V2000
    5.4206   -1.8444    2.7395 C   0  0  0  0  0  0  0  0  0  0  0  0
    4.9263   -2.5453    1.4744 C   0  0  2  0  0  0  0  0  0  0  0  0
    3.9981   -1.5853    0.7218 C   0  0  0  0  0  0  0  0  0  0  0  0
    3.4578   -2.1733   -0.6037 C   0  0  1  0  0  0  0  0  0  0  0  0
    4.4644   -2.2560   -1.7941 C   0  0  2  0  0  0  0  0  0  0  0  0
    5.2467   -1.0734   -1.7653 O   0  0  0  0  0  0  0  0  0  0  0  0
    3.8138   -2.4402   -3.2230 C   0  0  0  0  0  0  0  0  0  0  0  0
    2.3609   -2.9477   -3.2289 C   0  0  0  0  0  0  0  0  0  0  0  0
    3.8915   -1.1869   -4.1189 C   0  0  0  0  0  0  0  0  0  0  0  0
    4.5354   -3.4519   -3.8956 O   0  0  0  0  0  0  0  0  0  0  0  0
    2.8254   -3.4263   -0.3176 O   0  0  0  0  0  0  0  0  0  0  0  0
    3.6631   -4.3655    0.3472 C   0  0  1  0  0  0  0  0  0  0  0  0
    4.1527   -3.8746    1.7023 C   0  0  1  0  0  0  0  0  0  0  0  0
    4.8465   -5.1567    2.2736 C   0  0  1  0  0  0  0  0  0  0  0  0
    6.3069   -5.2051    1.6873 C   0  0  0  0  0  0  0  0  0  0  0  0
    5.1030   -5.1189    3.8175 C   0  0  0  0  0  0  0  0  0  0  0  0
    4.0613   -4.4747    4.7430 C   0  0  0  0  0  0  0  0  0  0  0  0
    2.7921   -5.2648    4.9440 C   0  0  1  0  0  0  0  0  0  0  0  0
    1.5993   -4.4335    5.3824 C   0  0  0  0  0  0  0  0  0  0  0  0
    0.3633   -5.2929    5.0439 C   0  0  0  0  0  0  0  0  0  0  0  0
    0.8103   -6.1804    3.8646 C   0  0  2  0  0  0  0  0  0  0  0  0
    0.1033   -7.5384    3.7072 C   0  0  1  0  0  0  0  0  0  0  0  0
   -1.4282   -7.4653    3.6034 C   0  0  0  0  0  0  0  0  0  0  0  0
    0.7051   -8.2456    2.4839 C   0  0  0  0  0  0  0  0  0  0  0  0
    2.2184   -8.4462    2.6450 C   0  0  1  0  0  0  0  0  0  0  0  0
    2.6415   -9.3255    1.6321 O   0  0  0  0  0  0  0  0  0  0  0  0
    3.0766   -7.1476    2.9117 C   0  0  1  0  0  0  0  0  0  0  0  0
    3.8917   -6.3640    1.7501 C   0  0  2  0  0  0  0  0  0  0  0  0
    4.7669   -7.4147    1.0018 C   0  0  0  0  0  0  0  0  0  0  0  0
    3.0262   -5.7167    0.6125 C   0  0  1  0  0  0  0  0  0  0  0  0
    1.7057   -5.4883    0.9884 O   0  0  0  0  0  0  0  0  0  0  0  0
    2.3288   -6.3506    4.0257 C   0  0  1  0  0  0  0  0  0  0  0  0
    2.8422   -6.6842    5.4244 C   0  0  0  0  0  0  0  0  0  0  0  0
    4.6063   -1.5919    3.4176 H   0  0  0  0  0  0  0  0  0  0  0  0
    5.9374   -0.9166    2.4852 H   0  0  0  0  0  0  0  0  0  0  0  0
    6.1329   -2.4678    3.2666 H   0  0  0  0  0  0  0  0  0  0  0  0
    5.7885   -2.7168    0.8286 H   0  0  0  0  0  0  0  0  0  0  0  0
    3.1485   -1.3463    1.3650 H   0  0  0  0  0  0  0  0  0  0  0  0
    4.4942   -0.6284    0.5606 H   0  0  0  0  0  0  0  0  0  0  0  0
    2.6795   -1.4828   -0.9055 H   0  0  0  0  0  0  0  0  0  0  0  0
    5.1849   -3.0533   -1.6088 H   0  0  0  0  0  0  0  0  0  0  0  0
    4.6490   -0.3372   -1.7657 H   0  0  0  0  0  0  0  0  0  0  0  0
    1.6831   -2.2531   -2.7426 H   0  0  0  0  0  0  0  0  0  0  0  0
    2.2537   -3.8948   -2.7123 H   0  0  0  0  0  0  0  0  0  0  0  0
    1.9815   -3.0954   -4.2425 H   0  0  0  0  0  0  0  0  0  0  0  0
    3.3151   -0.3585   -3.7073 H   0  0  0  0  0  0  0  0  0  0  0  0
    3.4932   -1.3913   -5.1131 H   0  0  0  0  0  0  0  0  0  0  0  0
    4.9196   -0.8568   -4.2594 H   0  0  0  0  0  0  0  0  0  0  0  0
    4.3588   -4.2773   -3.4562 H   0  0  0  0  0  0  0  0  0  0  0  0
    4.5086   -4.5702   -0.3010 H   0  0  0  0  0  0  0  0  0  0  0  0
    3.2728   -3.6447    2.3021 H   0  0  0  0  0  0  0  0  0  0  0  0
    6.8408   -6.1113    1.9851 H   0  0  0  0  0  0  0  0  0  0  0  0
    6.9257   -4.3769    2.0378 H   0  0  0  0  0  0  0  0  0  0  0  0
    6.3601   -5.1389    0.6003 H   0  0  0  0  0  0  0  0  0  0  0  0
    5.3737   -6.1133    4.1726 H   0  0  0  0  0  0  0  0  0  0  0  0
    6.0043   -4.5433    4.0082 H   0  0  0  0  0  0  0  0  0  0  0  0
    4.5058   -4.3466    5.7296 H   0  0  0  0  0  0  0  0  0  0  0  0
    3.8107   -3.4660    4.4197 H   0  0  0  0  0  0  0  0  0  0  0  0
    1.6605   -4.1995    6.4487 H   0  0  0  0  0  0  0  0  0  0  0  0
    1.5814   -3.4933    4.8272 H   0  0  0  0  0  0  0  0  0  0  0  0
    0.0993   -5.9143    5.9014 H   0  0  0  0  0  0  0  0  0  0  0  0
   -0.5033   -4.6754    4.8060 H   0  0  0  0  0  0  0  0  0  0  0  0
    0.5965   -5.5736    2.9969 H   0  0  0  0  0  0  0  0  0  0  0  0
    0.3266   -8.1453    4.5854 H   0  0  0  0  0  0  0  0  0  0  0  0
   -1.7569   -6.9065    2.7266 H   0  0  0  0  0  0  0  0  0  0  0  0
   -1.8719   -7.0109    4.4916 H   0  0  0  0  0  0  0  0  0  0  0  0
   -1.8417   -8.4730    3.5212 H   0  0  0  0  0  0  0  0  0  0  0  0
    0.2270   -9.2176    2.3583 H   0  0  0  0  0  0  0  0  0  0  0  0
    0.4898   -7.6980    1.5711 H   0  0  0  0  0  0  0  0  0  0  0  0
    2.3178   -9.0406    3.5550 H   0  0  0  0  0  0  0  0  0  0  0  0
    3.3127   -9.9023    1.9674 H   0  0  0  0  0  0  0  0  0  0  0  0
    3.9210   -7.5948    3.4305 H   0  0  0  0  0  0  0  0  0  0  0  0
    4.1832   -8.1041    0.4022 H   0  0  0  0  0  0  0  0  0  0  0  0
    5.3953   -7.9935    1.6806 H   0  0  0  0  0  0  0  0  0  0  0  0
    5.3961   -6.9701    0.2358 H   0  0  0  0  0  0  0  0  0  0  0  0
    3.0215   -6.2667   -0.3247 H   0  0  0  0  0  0  0  0  0  0  0  0
    1.7507   -4.9516    1.7652 H   0  0  0  0  0  0  0  0  0  0  0  0
    3.8221   -7.1232    5.5540 H   0  0  0  0  0  0  0  0  0  0  0  0
    2.1194   -7.0029    6.1707 H   0  0  0  0  0  0  0  0  0  0  0  0
  1  2  1  0
  1 34  1  0
  1 35  1  0
  1 36  1  0
  2 13  1  0
  2  3  1  0
  2 37  1  6
  3  4  1  0
  3 38  1  0
  3 39  1  0
  4  5  1  0
  4 11  1  0
  4 40  1  6
  5  6  1  0
  5  7  1  0
  5 41  1  1
  6 42  1  0
  7  8  1  0
  7  9  1  0
  7 10  1  0
  8 43  1  0
  8 44  1  0
  8 45  1  0
  9 46  1  0
  9 47  1  0
  9 48  1  0
 10 49  1  0
 11 12  1  0
 12 30  1  0
 12 13  1  0
 12 50  1  6
 13 14  1  0
 13 51  1  1
 14 28  1  0
 14 15  1  6
 14 16  1  0
 15 52  1  0
 15 53  1  0
 15 54  1  0
 16 17  1  0
 16 55  1  0
 16 56  1  0
 18 17  1  6
 17 57  1  0
 17 58  1  0
 18 32  1  0
 18 33  1  0
 18 19  1  0
 19 20  1  0
 19 59  1  0
 19 60  1  0
 20 21  1  0
 20 61  1  0
 20 62  1  0
 21 32  1  0
 21 22  1  0
 21 63  1  6
 22 23  1  0
 22 24  1  0
 22 64  1  1
 23 65  1  0
 23 66  1  0
 23 67  1  0
 24 25  1  0
 24 68  1  0
 24 69  1  0
 25 26  1  0
 25 27  1  0
 25 70  1  1
 26 71  1  0
 27 28  1  0
 27 32  1  0
 27 72  1  1
 28 29  1  6
 28 30  1  0
 29 73  1  0
 29 74  1  0
 29 75  1  0
 30 31  1  0
 30 76  1  6
 31 77  1  0
 32 33  1  1
 33 78  1  0
 33 79  1  0
M  END
>  <i_m_ct_stereo_status>  (308) 
1

>  <s_m_source_file>  (308) 
/var/tmp/pbs.5076255.sched01/tmp7zsp0c9b/86_oh4d05k.sdf

>  <i_m_source_file_index>  (308) 
38

>  <i_lp_mmshare_version>  (308) 
48012

>  <i_f3d_flags>  (308) 
0

>  <s_epik_input>  (308) 
W0NIM11bQ0BASF0xW0NIMl1bQ0BASF0oW0NASF0oW09IXSlDKFtDSDNdKShbQ0gzXSlbT0hdKU9bQ0BIXShbQ0BASF0yW09IXSlbQ0BIXTFbQ0BAXShbQ0gzXSkoW0NIMl1bQ0gyXTMpW0NAQF0yKFtDSDNdKVtDQEBIXTRbQ0BIXShbT0hdKVtDSDJdW0NASF0oW0NIM10pW0NAQEhdKFtDSDJdW0NIMl01KVtDQEBdNChbQ0BAXTM1NilbQ0gyXTY=

>  <s_epik_cmdline>  (308) 
J2VwaWtfcHl0aG9uJywgJy1waHQnLCAnMi4wJywgJy1waCcsICc3LjAnLCAnLXRuJywgJzgnLCAnLW1hJywgJzIwMCcsICctaW1hZScsICc8aW5maWxlLm1hZT4nLCAnLW9tYWUnLCAnPG91dGZpbGUubWFlPic=

>  <r_lp_tautomer_probability>  (308) 
1

>  <r_epik_Ionization_Penalty>  (308) 
2.16957e-06

>  <r_epik_Ionization_Penalty_Charging>  (308) 
0

>  <r_epik_Ionization_Penalty_Neutral>  (308) 
2.16957e-06

>  <r_epik_State_Penalty>  (308) 
-0

>  <r_epik_Charging_Adjusted_Penalty>  (308) 
0

>  <i_epik_Tot_Q>  (308) 
0

>  <i_epik_Tot_abs_Q>  (308) 
0

>  <s_lp_Force_Field>  (308) 
OPLS3e

>  <r_lp_Energy>  (308) 
107.703

>  <b_lp_Chiralities_Consistent>  (308) 
1

>  <s_lp_Variant>  (308) 
83:0-1

>  <s_i_glide_gridfile>  (308) 
pfpi4k_grid

>  <i_i_glide_lignum>  (308) 
38

>  <i_i_glide_rotatable_bonds>  (308) 
6

>  <r_i_docking_score>  (308) 
-3.81827

>  <r_i_glide_ligand_efficiency>  (308) 
-0.115705

>  <r_i_glide_ligand_efficiency_sa>  (308) 
-0.371128

>  <r_i_glide_ligand_efficiency_ln>  (308) 
-0.849164

>  <r_i_glide_gscore>  (308) 
-3.81827

>  <r_i_glide_lipo>  (308) 
-0.670154

>  <r_i_glide_hbond>  (308) 
0

>  <r_i_glide_metal>  (308) 
-0

>  <r_i_glide_rewards>  (308) 
-0.254578

>  <r_i_glide_evdw>  (308) 
-36.4964

>  <r_i_glide_ecoul>  (308) 
-8.37966

>  <r_i_glide_erotb>  (308) 
0.188228

>  <r_i_glide_esite>  (308) 
0

>  <r_i_glide_emodel>  (308) 
-50.6583

>  <r_i_glide_energy>  (308) 
-44.876

>  <r_i_glide_einternal>  (308) 
9.88762

>  <r_i_glide_intrahb_reward>  (308) 
-0

>  <i_i_glide_confnum>  (308) 
4

>  <i_i_glide_posenum>  (308) 
16

>  <r_i_glide_eff_state_penalty>  (308) 
0

>  <ligand_id>  (308) 
83

>  <original_smiles>  (308) 
CC1CC(C(O)C(C)(C)O)OC2C1C1(C)CCC34CCC5C(C)CC(O)C(C1(C)C2O)C53C4

>  <smiles>  (308) 
[H]OC1([H])C([H])([H])C([H])(C([H])([H])[H])C2([H])C([H])([H])C([H])([H])C34C([H])([H])C([H])([H])C5(C([H])([H])[H])C6([H])C([H])(OC([H])(C([H])(O[H])C(O[H])(C([H])([H])[H])C([H])([H])[H])C([H])([H])C6([H])C([H])([H])[H])C([H])(O[H])C5(C([H])([H])[H])C1([H])C23C4([H])[H]

$$$$
83:0:1
     RDKit          3D

 79 84  0  0  1  0  0  0  0  0999 V2000
    5.3699   -2.0923    3.0604 C   0  0  0  0  0  0  0  0  0  0  0  0
    4.9016   -2.7796    1.7778 C   0  0  2  0  0  0  0  0  0  0  0  0
    3.9710   -1.8238    1.0250 C   0  0  0  0  0  0  0  0  0  0  0  0
    3.4507   -2.3923   -0.3178 C   0  0  1  0  0  0  0  0  0  0  0  0
    4.4794   -2.4406   -1.4986 C   0  0  2  0  0  0  0  0  0  0  0  0
    5.3298   -1.3075   -1.4046 O   0  0  0  0  0  0  0  0  0  0  0  0
    3.8574   -2.5192   -2.9461 C   0  0  0  0  0  0  0  0  0  0  0  0
    2.4080   -3.0379   -3.0033 C   0  0  0  0  0  0  0  0  0  0  0  0
    3.9327   -1.1995   -3.7393 C   0  0  0  0  0  0  0  0  0  0  0  0
    4.6095   -3.4636   -3.6803 O   0  0  0  0  0  0  0  0  0  0  0  0
    2.8414   -3.6640   -0.0729 O   0  0  0  0  0  0  0  0  0  0  0  0
    3.6754   -4.5992    0.6031 C   0  0  1  0  0  0  0  0  0  0  0  0
    4.1388   -4.1206    1.9758 C   0  0  1  0  0  0  0  0  0  0  0  0
    4.8425   -5.4003    2.5439 C   0  0  1  0  0  0  0  0  0  0  0  0
    6.3133   -5.4268    1.9823 C   0  0  0  0  0  0  0  0  0  0  0  0
    5.0748   -5.3817    4.0917 C   0  0  0  0  0  0  0  0  0  0  0  0
    4.0078   -4.7692    5.0078 C   0  0  0  0  0  0  0  0  0  0  0  0
    2.7469   -5.5812    5.1767 C   0  0  1  0  0  0  0  0  0  0  0  0
    1.5336   -4.7751    5.6034 C   0  0  0  0  0  0  0  0  0  0  0  0
    0.3146   -5.6485    5.2301 C   0  0  0  0  0  0  0  0  0  0  0  0
    0.7978   -6.5097    4.0467 C   0  0  2  0  0  0  0  0  0  0  0  0
    0.1127   -7.8752    3.8607 C   0  0  1  0  0  0  0  0  0  0  0  0
   -1.4161   -7.8216    3.7278 C   0  0  0  0  0  0  0  0  0  0  0  0
    0.7435   -8.5645    2.6455 C   0  0  0  0  0  0  0  0  0  0  0  0
    2.2590   -8.7343    2.8263 C   0  0  1  0  0  0  0  0  0  0  0  0
    2.7188   -9.5454    1.7828 O   0  0  0  0  0  0  0  0  0  0  0  0
    3.0899   -7.4275    3.1252 C   0  0  1  0  0  0  0  0  0  0  0  0
    3.9164   -6.6146    1.9933 C   0  0  2  0  0  0  0  0  0  0  0  0
    4.8283   -7.6451    1.2482 C   0  0  0  0  0  0  0  0  0  0  0  0
    3.0540   -5.9637    0.8592 C   0  0  1  0  0  0  0  0  0  0  0  0
    1.6924   -5.8274    1.1589 O   0  0  0  0  0  0  0  0  0  0  0  0
    2.3140   -6.6597    4.2360 C   0  0  1  0  0  0  0  0  0  0  0  0
    2.8123   -7.0075    5.6370 C   0  0  0  0  0  0  0  0  0  0  0  0
    4.5365   -1.8572    3.7183 H   0  0  0  0  0  0  0  0  0  0  0  0
    5.8819   -1.1578    2.8318 H   0  0  0  0  0  0  0  0  0  0  0  0
    6.0634   -2.7169    3.6053 H   0  0  0  0  0  0  0  0  0  0  0  0
    5.7750   -2.9386    1.1466 H   0  0  0  0  0  0  0  0  0  0  0  0
    3.1098   -1.6173    1.6645 H   0  0  0  0  0  0  0  0  0  0  0  0
    4.4536   -0.8548    0.8943 H   0  0  0  0  0  0  0  0  0  0  0  0
    2.6388   -1.7224   -0.5941 H   0  0  0  0  0  0  0  0  0  0  0  0
    5.1620   -3.2738   -1.3461 H   0  0  0  0  0  0  0  0  0  0  0  0
    4.7797   -0.5353   -1.4104 H   0  0  0  0  0  0  0  0  0  0  0  0
    1.7209   -2.3711   -2.4841 H   0  0  0  0  0  0  0  0  0  0  0  0
    2.2937   -4.0181   -2.5508 H   0  0  0  0  0  0  0  0  0  0  0  0
    2.0486   -3.1141   -4.0302 H   0  0  0  0  0  0  0  0  0  0  0  0
    3.3342   -0.4175   -3.2695 H   0  0  0  0  0  0  0  0  0  0  0  0
    3.5600   -1.3243   -4.7555 H   0  0  0  0  0  0  0  0  0  0  0  0
    4.9562   -0.8363   -3.8243 H   0  0  0  0  0  0  0  0  0  0  0  0
    4.4477   -4.3188   -3.2964 H   0  0  0  0  0  0  0  0  0  0  0  0
    4.5410   -4.7956   -0.0267 H   0  0  0  0  0  0  0  0  0  0  0  0
    3.2434   -3.9174    2.5625 H   0  0  0  0  0  0  0  0  0  0  0  0
    6.8532   -6.3314    2.2765 H   0  0  0  0  0  0  0  0  0  0  0  0
    6.9169   -4.5992    2.3533 H   0  0  0  0  0  0  0  0  0  0  0  0
    6.3848   -5.3431    0.8961 H   0  0  0  0  0  0  0  0  0  0  0  0
    5.3550   -6.3776    4.4358 H   0  0  0  0  0  0  0  0  0  0  0  0
    5.9661   -4.7961    4.3051 H   0  0  0  0  0  0  0  0  0  0  0  0
    4.4335   -4.6473    6.0030 H   0  0  0  0  0  0  0  0  0  0  0  0
    3.7467   -3.7625    4.6926 H   0  0  0  0  0  0  0  0  0  0  0  0
    1.5747   -4.5549    6.6733 H   0  0  0  0  0  0  0  0  0  0  0  0
    1.5141   -3.8294    5.0590 H   0  0  0  0  0  0  0  0  0  0  0  0
    0.0491   -6.2874    6.0746 H   0  0  0  0  0  0  0  0  0  0  0  0
   -0.5593   -5.0447    4.9794 H   0  0  0  0  0  0  0  0  0  0  0  0
    0.5972   -5.8875    3.1865 H   0  0  0  0  0  0  0  0  0  0  0  0
    0.3299   -8.4891    4.7341 H   0  0  0  0  0  0  0  0  0  0  0  0
   -1.7333   -7.2454    2.8585 H   0  0  0  0  0  0  0  0  0  0  0  0
   -1.8726   -7.3865    4.6186 H   0  0  0  0  0  0  0  0  0  0  0  0
   -1.8162   -8.8340    3.6226 H   0  0  0  0  0  0  0  0  0  0  0  0
    0.2810   -9.5431    2.5050 H   0  0  0  0  0  0  0  0  0  0  0  0
    0.5195   -8.0230    1.7315 H   0  0  0  0  0  0  0  0  0  0  0  0
    2.3673   -9.3473    3.7224 H   0  0  0  0  0  0  0  0  0  0  0  0
    2.3803  -10.4241    1.8916 H   0  0  0  0  0  0  0  0  0  0  0  0
    3.9317   -7.8729    3.6501 H   0  0  0  0  0  0  0  0  0  0  0  0
    4.2747   -8.3293    0.6152 H   0  0  0  0  0  0  0  0  0  0  0  0
    5.4391   -8.2326    1.9354 H   0  0  0  0  0  0  0  0  0  0  0  0
    5.4732   -7.1953    0.4990 H   0  0  0  0  0  0  0  0  0  0  0  0
    3.0917   -6.5457   -0.0538 H   0  0  0  0  0  0  0  0  0  0  0  0
    1.3904   -6.6841    1.4271 H   0  0  0  0  0  0  0  0  0  0  0  0
    3.7960   -7.4348    5.7732 H   0  0  0  0  0  0  0  0  0  0  0  0
    2.0848   -7.3538    6.3663 H   0  0  0  0  0  0  0  0  0  0  0  0
  1  2  1  0
  1 34  1  0
  1 35  1  0
  1 36  1  0
  2 13  1  0
  2  3  1  0
  2 37  1  6
  3  4  1  0
  3 38  1  0
  3 39  1  0
  4  5  1  0
  4 11  1  0
  4 40  1  6
  5  6  1  0
  5  7  1  0
  5 41  1  1
  6 42  1  0
  7  8  1  0
  7  9  1  0
  7 10  1  0
  8 43  1  0
  8 44  1  0
  8 45  1  0
  9 46  1  0
  9 47  1  0
  9 48  1  0
 10 49  1  0
 11 12  1  0
 12 30  1  0
 12 13  1  0
 12 50  1  6
 13 14  1  0
 13 51  1  1
 14 28  1  0
 14 15  1  6
 14 16  1  0
 15 52  1  0
 15 53  1  0
 15 54  1  0
 16 17  1  0
 16 55  1  0
 16 56  1  0
 18 17  1  6
 17 57  1  0
 17 58  1  0
 18 32  1  0
 18 33  1  0
 18 19  1  0
 19 20  1  0
 19 59  1  0
 19 60  1  0
 20 21  1  0
 20 61  1  0
 20 62  1  0
 21 32  1  0
 21 22  1  0
 21 63  1  6
 22 23  1  0
 22 24  1  0
 22 64  1  1
 23 65  1  0
 23 66  1  0
 23 67  1  0
 24 25  1  0
 24 68  1  0
 24 69  1  0
 25 26  1  0
 25 27  1  0
 25 70  1  1
 26 71  1  0
 27 28  1  0
 27 32  1  0
 27 72  1  1
 28 29  1  6
 28 30  1  0
 29 73  1  0
 29 74  1  0
 29 75  1  0
 30 31  1  0
 30 76  1  6
 31 77  1  0
 32 33  1  1
 33 78  1  0
 33 79  1  0
M  END
>  <i_m_ct_stereo_status>  (309) 
1

>  <s_m_source_file>  (309) 
/var/tmp/pbs.5076255.sched01/tmp7zsp0c9b/86_oh4d05k.sdf

>  <i_m_source_file_index>  (309) 
38

>  <i_lp_mmshare_version>  (309) 
48012

>  <i_f3d_flags>  (309) 
0

>  <s_epik_input>  (309) 
W0NIM11bQ0BASF0xW0NIMl1bQ0BASF0oW0NASF0oW09IXSlDKFtDSDNdKShbQ0gzXSlbT0hdKU9bQ0BIXShbQ0BASF0yW09IXSlbQ0BIXTFbQ0BAXShbQ0gzXSkoW0NIMl1bQ0gyXTMpW0NAQF0yKFtDSDNdKVtDQEBIXTRbQ0BIXShbT0hdKVtDSDJdW0NASF0oW0NIM10pW0NAQEhdKFtDSDJdW0NIMl01KVtDQEBdNChbQ0BAXTM1NilbQ0gyXTY=

>  <s_epik_cmdline>  (309) 
J2VwaWtfcHl0aG9uJywgJy1waHQnLCAnMi4wJywgJy1waCcsICc3LjAnLCAnLXRuJywgJzgnLCAnLW1hJywgJzIwMCcsICctaW1hZScsICc8aW5maWxlLm1hZT4nLCAnLW9tYWUnLCAnPG91dGZpbGUubWFlPic=

>  <r_lp_tautomer_probability>  (309) 
1

>  <r_epik_Ionization_Penalty>  (309) 
2.16957e-06

>  <r_epik_Ionization_Penalty_Charging>  (309) 
0

>  <r_epik_Ionization_Penalty_Neutral>  (309) 
2.16957e-06

>  <r_epik_State_Penalty>  (309) 
-0

>  <r_epik_Charging_Adjusted_Penalty>  (309) 
0

>  <i_epik_Tot_Q>  (309) 
0

>  <i_epik_Tot_abs_Q>  (309) 
0

>  <s_lp_Force_Field>  (309) 
OPLS3e

>  <r_lp_Energy>  (309) 
107.703

>  <b_lp_Chiralities_Consistent>  (309) 
1

>  <s_lp_Variant>  (309) 
83:0-1

>  <s_i_glide_gridfile>  (309) 
pfpi4k_grid

>  <i_i_glide_lignum>  (309) 
38

>  <i_i_glide_rotatable_bonds>  (309) 
6

>  <r_i_docking_score>  (309) 
-3.55879

>  <r_i_glide_ligand_efficiency>  (309) 
-0.107842

>  <r_i_glide_ligand_efficiency_sa>  (309) 
-0.345907

>  <r_i_glide_ligand_efficiency_ln>  (309) 
-0.791456

>  <r_i_glide_gscore>  (309) 
-3.55879

>  <r_i_glide_lipo>  (309) 
-0.658904

>  <r_i_glide_hbond>  (309) 
0

>  <r_i_glide_metal>  (309) 
-0

>  <r_i_glide_rewards>  (309) 
-0.254578

>  <r_i_glide_evdw>  (309) 
-35.8829

>  <r_i_glide_ecoul>  (309) 
-6.92925

>  <r_i_glide_erotb>  (309) 
0.188228

>  <r_i_glide_esite>  (309) 
0

>  <r_i_glide_emodel>  (309) 
-47.9089

>  <r_i_glide_energy>  (309) 
-42.8122

>  <r_i_glide_einternal>  (309) 
9.91948

>  <r_i_glide_intrahb_reward>  (309) 
-0

>  <i_i_glide_confnum>  (309) 
3

>  <i_i_glide_posenum>  (309) 
9

>  <r_i_glide_eff_state_penalty>  (309) 
0

>  <ligand_id>  (309) 
83

>  <original_smiles>  (309) 
CC1CC(C(O)C(C)(C)O)OC2C1C1(C)CCC34CCC5C(C)CC(O)C(C1(C)C2O)C53C4

>  <smiles>  (309) 
[H]OC1([H])C([H])([H])C([H])(C([H])([H])[H])C2([H])C([H])([H])C([H])([H])C34C([H])([H])C([H])([H])C5(C([H])([H])[H])C6([H])C([H])(OC([H])(C([H])(O[H])C(O[H])(C([H])([H])[H])C([H])([H])[H])C([H])([H])C6([H])C([H])([H])[H])C([H])(O[H])C5(C([H])([H])[H])C1([H])C23C4([H])[H]

$$$$
83:0:2
     RDKit          3D

 79 84  0  0  1  0  0  0  0  0999 V2000
    5.2638   -1.8438    2.8831 C   0  0  0  0  0  0  0  0  0  0  0  0
    4.8870   -2.5736    1.5998 C   0  0  2  0  0  0  0  0  0  0  0  0
    3.9412   -1.6853    0.8074 C   0  0  0  0  0  0  0  0  0  0  0  0
    3.4891   -2.3072   -0.5272 C   0  0  1  0  0  0  0  0  0  0  0  0
    4.5250   -2.3075   -1.6939 C   0  0  2  0  0  0  0  0  0  0  0  0
    5.2042   -1.0663   -1.7068 O   0  0  0  0  0  0  0  0  0  0  0  0
    3.9623   -2.6543   -3.1394 C   0  0  0  0  0  0  0  0  0  0  0  0
    4.7460   -3.8233   -3.7389 C   0  0  0  0  0  0  0  0  0  0  0  0
    2.4557   -2.9742   -3.2271 C   0  0  0  0  0  0  0  0  0  0  0  0
    4.1379   -1.5928   -4.0559 O   0  0  0  0  0  0  0  0  0  0  0  0
    2.9332   -3.6033   -0.2930 O   0  0  0  0  0  0  0  0  0  0  0  0
    3.7949   -4.4749    0.4303 C   0  0  1  0  0  0  0  0  0  0  0  0
    4.1822   -3.9499    1.8032 C   0  0  1  0  0  0  0  0  0  0  0  0
    4.9295   -5.1748    2.4211 C   0  0  1  0  0  0  0  0  0  0  0  0
    6.4189   -5.1310    1.8951 C   0  0  0  0  0  0  0  0  0  0  0  0
    5.1031   -5.1243    3.9728 C   0  0  0  0  0  0  0  0  0  0  0  0
    3.9743   -4.5557    4.8385 C   0  0  0  0  0  0  0  0  0  0  0  0
    2.7695   -5.4394    4.9886 C   0  0  1  0  0  0  0  0  0  0  0  0
    1.4967   -4.6888    5.3522 C   0  0  0  0  0  0  0  0  0  0  0  0
    0.3545   -5.6399    4.9457 C   0  0  0  0  0  0  0  0  0  0  0  0
    0.9243   -6.4960    3.7970 C   0  0  2  0  0  0  0  0  0  0  0  0
    0.3148   -7.8996    3.6236 C   0  0  1  0  0  0  0  0  0  0  0  0
   -1.2108   -7.9261    3.4407 C   0  0  0  0  0  0  0  0  0  0  0  0
    1.0148   -8.5754    2.4443 C   0  0  0  0  0  0  0  0  0  0  0  0
    2.5214   -8.6575    2.6821 C   0  0  1  0  0  0  0  0  0  0  0  0
    3.0698   -9.4438    1.6639 O   0  0  0  0  0  0  0  0  0  0  0  0
    3.2668   -7.2928    2.9763 C   0  0  1  0  0  0  0  0  0  0  0  0
    4.0818   -6.4481    1.8673 C   0  0  2  0  0  0  0  0  0  0  0  0
    5.0798   -7.4378    1.1885 C   0  0  0  0  0  0  0  0  0  0  0  0
    3.2446   -5.8706    0.6735 C   0  0  1  0  0  0  0  0  0  0  0  0
    1.8772   -5.7920    0.9266 O   0  0  0  0  0  0  0  0  0  0  0  0
    2.4296   -6.5590    4.0514 C   0  0  1  0  0  0  0  0  0  0  0  0
    2.8974   -6.8468    5.4662 C   0  0  0  0  0  0  0  0  0  0  0  0
    4.3972   -1.6428    3.5210 H   0  0  0  0  0  0  0  0  0  0  0  0
    5.7305   -0.8854    2.6633 H   0  0  0  0  0  0  0  0  0  0  0  0
    5.9736   -2.4196    3.4646 H   0  0  0  0  0  0  0  0  0  0  0  0
    5.7962   -2.6895    0.9964 H   0  0  0  0  0  0  0  0  0  0  0  0
    3.0451   -1.5099    1.4096 H   0  0  0  0  0  0  0  0  0  0  0  0
    4.3771   -0.6980    0.6540 H   0  0  0  0  0  0  0  0  0  0  0  0
    2.6718   -1.6633   -0.8022 H   0  0  0  0  0  0  0  0  0  0  0  0
    5.3388   -2.9959   -1.4599 H   0  0  0  0  0  0  0  0  0  0  0  0
    4.5549   -0.3826   -1.7895 H   0  0  0  0  0  0  0  0  0  0  0  0
    4.6885   -4.7062   -3.1199 H   0  0  0  0  0  0  0  0  0  0  0  0
    5.8061   -3.5743   -3.8545 H   0  0  0  0  0  0  0  0  0  0  0  0
    4.3651   -4.0883   -4.7229 H   0  0  0  0  0  0  0  0  0  0  0  0
    2.1984   -3.8573   -2.6458 H   0  0  0  0  0  0  0  0  0  0  0  0
    2.1464   -3.1817   -4.2537 H   0  0  0  0  0  0  0  0  0  0  0  0
    1.8253   -2.1674   -2.8895 H   0  0  0  0  0  0  0  0  0  0  0  0
    3.6379   -0.8545   -3.7423 H   0  0  0  0  0  0  0  0  0  0  0  0
    4.6827   -4.6294   -0.1643 H   0  0  0  0  0  0  0  0  0  0  0  0
    3.2560   -3.7915    2.3559 H   0  0  0  0  0  0  0  0  0  0  0  0
    7.0076   -5.9874    2.2315 H   0  0  0  0  0  0  0  0  0  0  0  0
    6.9518   -4.2524    2.2436 H   0  0  0  0  0  0  0  0  0  0  0  0
    6.5204   -5.0678    0.8144 H   0  0  0  0  0  0  0  0  0  0  0  0
    5.4372   -6.1001    4.3434 H   0  0  0  0  0  0  0  0  0  0  0  0
    5.9538   -4.4896    4.1937 H   0  0  0  0  0  0  0  0  0  0  0  0
    4.3626   -4.3939    5.8447 H   0  0  0  0  0  0  0  0  0  0  0  0
    3.6693   -3.5658    4.4925 H   0  0  0  0  0  0  0  0  0  0  0  0
    1.4942   -4.4528    6.4201 H   0  0  0  0  0  0  0  0  0  0  0  0
    1.4476   -3.7519    4.7827 H   0  0  0  0  0  0  0  0  0  0  0  0
    0.0875   -6.2743    5.7972 H   0  0  0  0  0  0  0  0  0  0  0  0
   -0.5452   -5.0881    4.6663 H   0  0  0  0  0  0  0  0  0  0  0  0
    0.7109   -5.8950    2.9188 H   0  0  0  0  0  0  0  0  0  0  0  0
    0.5281   -8.4889    4.5212 H   0  0  0  0  0  0  0  0  0  0  0  0
   -1.5391   -7.3901    2.5460 H   0  0  0  0  0  0  0  0  0  0  0  0
   -1.7360   -7.5131    4.3096 H   0  0  0  0  0  0  0  0  0  0  0  0
   -1.5471   -8.9585    3.3393 H   0  0  0  0  0  0  0  0  0  0  0  0
    0.6163   -9.5777    2.3092 H   0  0  0  0  0  0  0  0  0  0  0  0
    0.8017   -8.0518    1.5179 H   0  0  0  0  0  0  0  0  0  0  0  0
    2.6537   -9.2392    3.5949 H   0  0  0  0  0  0  0  0  0  0  0  0
    2.8096  -10.3502    1.7679 H   0  0  0  0  0  0  0  0  0  0  0  0
    4.1172   -7.6781    3.5264 H   0  0  0  0  0  0  0  0  0  0  0  0
    4.6038   -8.1590    0.5273 H   0  0  0  0  0  0  0  0  0  0  0  0
    5.6952   -7.9870    1.9030 H   0  0  0  0  0  0  0  0  0  0  0  0
    5.7434   -6.9648    0.4760 H   0  0  0  0  0  0  0  0  0  0  0  0
    3.3662   -6.4605   -0.2363 H   0  0  0  0  0  0  0  0  0  0  0  0
    1.5999   -6.6665    1.1696 H   0  0  0  0  0  0  0  0  0  0  0  0
    3.9056   -7.2101    5.6392 H   0  0  0  0  0  0  0  0  0  0  0  0
    2.1598   -7.2127    6.1737 H   0  0  0  0  0  0  0  0  0  0  0  0
  1  2  1  0
  1 34  1  0
  1 35  1  0
  1 36  1  0
  2 13  1  0
  2  3  1  0
  2 37  1  6
  3  4  1  0
  3 38  1  0
  3 39  1  0
  4  5  1  0
  4 11  1  0
  4 40  1  6
  5  6  1  0
  5  7  1  0
  5 41  1  1
  6 42  1  0
  7  8  1  0
  7  9  1  0
  7 10  1  0
  8 43  1  0
  8 44  1  0
  8 45  1  0
  9 46  1  0
  9 47  1  0
  9 48  1  0
 10 49  1  0
 11 12  1  0
 12 30  1  0
 12 13  1  0
 12 50  1  6
 13 14  1  0
 13 51  1  1
 14 28  1  0
 14 15  1  6
 14 16  1  0
 15 52  1  0
 15 53  1  0
 15 54  1  0
 16 17  1  0
 16 55  1  0
 16 56  1  0
 18 17  1  6
 17 57  1  0
 17 58  1  0
 18 32  1  0
 18 33  1  0
 18 19  1  0
 19 20  1  0
 19 59  1  0
 19 60  1  0
 20 21  1  0
 20 61  1  0
 20 62  1  0
 21 32  1  0
 21 22  1  0
 21 63  1  6
 22 23  1  0
 22 24  1  0
 22 64  1  1
 23 65  1  0
 23 66  1  0
 23 67  1  0
 24 25  1  0
 24 68  1  0
 24 69  1  0
 25 26  1  0
 25 27  1  0
 25 70  1  1
 26 71  1  0
 27 28  1  0
 27 32  1  0
 27 72  1  1
 28 29  1  6
 28 30  1  0
 29 73  1  0
 29 74  1  0
 29 75  1  0
 30 31  1  0
 30 76  1  6
 31 77  1  0
 32 33  1  1
 33 78  1  0
 33 79  1  0
M  END
>  <i_m_ct_stereo_status>  (310) 
1

>  <s_m_source_file>  (310) 
/var/tmp/pbs.5076255.sched01/tmp7zsp0c9b/86_oh4d05k.sdf

>  <i_m_source_file_index>  (310) 
38

>  <i_lp_mmshare_version>  (310) 
48012

>  <i_f3d_flags>  (310) 
0

>  <s_epik_input>  (310) 
W0NIM11bQ0BASF0xW0NIMl1bQ0BASF0oW0NASF0oW09IXSlDKFtDSDNdKShbQ0gzXSlbT0hdKU9bQ0BIXShbQ0BASF0yW09IXSlbQ0BIXTFbQ0BAXShbQ0gzXSkoW0NIMl1bQ0gyXTMpW0NAQF0yKFtDSDNdKVtDQEBIXTRbQ0BIXShbT0hdKVtDSDJdW0NASF0oW0NIM10pW0NAQEhdKFtDSDJdW0NIMl01KVtDQEBdNChbQ0BAXTM1NilbQ0gyXTY=

>  <s_epik_cmdline>  (310) 
J2VwaWtfcHl0aG9uJywgJy1waHQnLCAnMi4wJywgJy1waCcsICc3LjAnLCAnLXRuJywgJzgnLCAnLW1hJywgJzIwMCcsICctaW1hZScsICc8aW5maWxlLm1hZT4nLCAnLW9tYWUnLCAnPG91dGZpbGUubWFlPic=

>  <r_lp_tautomer_probability>  (310) 
1

>  <r_epik_Ionization_Penalty>  (310) 
2.16957e-06

>  <r_epik_Ionization_Penalty_Charging>  (310) 
0

>  <r_epik_Ionization_Penalty_Neutral>  (310) 
2.16957e-06

>  <r_epik_State_Penalty>  (310) 
-0

>  <r_epik_Charging_Adjusted_Penalty>  (310) 
0

>  <i_epik_Tot_Q>  (310) 
0

>  <i_epik_Tot_abs_Q>  (310) 
0

>  <s_lp_Force_Field>  (310) 
OPLS3e

>  <r_lp_Energy>  (310) 
107.703

>  <b_lp_Chiralities_Consistent>  (310) 
1

>  <s_lp_Variant>  (310) 
83:0-1

>  <s_i_glide_gridfile>  (310) 
pfpi4k_grid

>  <i_i_glide_lignum>  (310) 
38

>  <i_i_glide_rotatable_bonds>  (310) 
6

>  <r_i_docking_score>  (310) 
-3.55544

>  <r_i_glide_ligand_efficiency>  (310) 
-0.107741

>  <r_i_glide_ligand_efficiency_sa>  (310) 
-0.345582

>  <r_i_glide_ligand_efficiency_ln>  (310) 
-0.790711

>  <r_i_glide_gscore>  (310) 
-3.55544

>  <r_i_glide_lipo>  (310) 
-0.612049

>  <r_i_glide_hbond>  (310) 
0

>  <r_i_glide_metal>  (310) 
-0

>  <r_i_glide_rewards>  (310) 
-0.254578

>  <r_i_glide_evdw>  (310) 
-37.5168

>  <r_i_glide_ecoul>  (310) 
-6.67465

>  <r_i_glide_erotb>  (310) 
0.188228

>  <r_i_glide_esite>  (310) 
0

>  <r_i_glide_emodel>  (310) 
-47.283

>  <r_i_glide_energy>  (310) 
-44.1915

>  <r_i_glide_einternal>  (310) 
13.7888

>  <r_i_glide_intrahb_reward>  (310) 
-0

>  <i_i_glide_confnum>  (310) 
4

>  <i_i_glide_posenum>  (310) 
1

>  <r_i_glide_eff_state_penalty>  (310) 
0

>  <ligand_id>  (310) 
83

>  <original_smiles>  (310) 
CC1CC(C(O)C(C)(C)O)OC2C1C1(C)CCC34CCC5C(C)CC(O)C(C1(C)C2O)C53C4

>  <smiles>  (310) 
[H]OC1([H])C([H])([H])C([H])(C([H])([H])[H])C2([H])C([H])([H])C([H])([H])C34C([H])([H])C([H])([H])C5(C([H])([H])[H])C6([H])C([H])(OC([H])(C([H])(O[H])C(O[H])(C([H])([H])[H])C([H])([H])[H])C([H])([H])C6([H])C([H])([H])[H])C([H])(O[H])C5(C([H])([H])[H])C1([H])C23C4([H])[H]

$$$$
85:0:0
     RDKit          3D

 58 62  0  0  1  0  0  0  0  0999 V2000
    3.3157   -3.1800   -2.5780 C   0  0  0  0  0  0  0  0  0  0  0  0
    3.9244   -2.6160   -1.3108 C   0  0  0  0  0  0  0  0  0  0  0  0
    3.5665   -1.3871   -0.9046 C   0  0  0  0  0  0  0  0  0  0  0  0
    4.1076   -0.6898    0.3162 C   0  0  0  0  0  0  0  0  0  0  0  0
    5.4181   -1.3307    0.7757 C   0  0  1  0  0  0  0  0  0  0  0  0
    5.7940   -0.7177    1.9890 O   0  0  0  0  0  0  0  0  0  0  0  0
    5.3591   -2.8862    0.8245 C   0  0  2  0  0  0  0  0  0  0  0  0
    6.7578   -3.4458    1.1366 C   0  0  0  0  0  0  0  0  0  0  0  0
    4.9570   -3.4628   -0.5526 C   0  0  1  0  0  0  0  0  0  0  0  0
    4.4900   -4.8778   -0.1849 C   0  0  0  0  0  0  0  0  0  0  0  0
    3.8019   -4.8210    1.1842 C   0  0  1  0  0  0  0  0  0  0  0  0
    4.1008   -6.0475    2.0956 C   0  0  2  0  0  0  0  0  0  0  0  0
    3.8052   -7.4205    1.4749 C   0  0  0  0  0  0  0  0  0  0  0  0
    2.3094   -7.6851    1.4229 C   0  0  0  0  0  0  0  0  0  0  0  0
    1.7114   -7.7555    2.8337 C   0  0  2  0  0  0  0  0  0  0  0  0
    0.1768   -7.7389    2.6809 C   0  0  1  0  0  0  0  0  0  0  0  0
   -0.4411   -8.4715    3.7078 O   0  0  0  0  0  0  0  0  0  0  0  0
   -0.1851   -6.3929    2.7055 O   0  0  0  0  0  0  0  0  0  0  0  0
    0.8457   -5.5897    3.2946 C   0  0  0  0  0  0  0  0  0  0  0  0
    2.0099   -6.5118    3.7021 C   0  0  1  0  0  0  0  0  0  0  0  0
    1.8747   -6.8869    5.1966 C   0  0  0  0  0  0  0  0  0  0  0  0
    3.4573   -5.9069    3.5096 C   0  0  2  0  0  0  0  0  0  0  0  0
    3.5793   -4.4630    4.0847 C   0  0  0  0  0  0  0  0  0  0  0  0
    4.5091   -3.5289    3.2970 C   0  0  0  0  0  0  0  0  0  0  0  0
    5.3620   -2.8542    3.8647 O   0  0  0  0  0  0  0  0  0  0  0  0
    4.2475   -3.4616    1.7719 C   0  0  1  0  0  0  0  0  0  0  0  0
    4.0825   -3.6218   -3.2186 H   0  0  0  0  0  0  0  0  0  0  0  0
    2.7804   -2.4140   -3.1438 H   0  0  0  0  0  0  0  0  0  0  0  0
    2.5722   -3.9270   -2.3113 H   0  0  0  0  0  0  0  0  0  0  0  0
    2.8266   -0.8421   -1.4720 H   0  0  0  0  0  0  0  0  0  0  0  0
    4.2804    0.3579    0.0718 H   0  0  0  0  0  0  0  0  0  0  0  0
    3.3376   -0.7098    1.0914 H   0  0  0  0  0  0  0  0  0  0  0  0
    6.1846   -1.0552    0.0506 H   0  0  0  0  0  0  0  0  0  0  0  0
    5.2061   -1.0100    2.6771 H   0  0  0  0  0  0  0  0  0  0  0  0
    6.7867   -4.5306    1.2280 H   0  0  0  0  0  0  0  0  0  0  0  0
    7.0699   -3.0399    2.0855 H   0  0  0  0  0  0  0  0  0  0  0  0
    7.4846   -3.1557    0.3770 H   0  0  0  0  0  0  0  0  0  0  0  0
    5.8158   -3.5192   -1.2251 H   0  0  0  0  0  0  0  0  0  0  0  0
    3.8162   -5.2889   -0.9147 H   0  0  0  0  0  0  0  0  0  0  0  0
    5.3572   -5.5357   -0.1499 H   0  0  0  0  0  0  0  0  0  0  0  0
    2.7286   -4.7579    0.9968 H   0  0  0  0  0  0  0  0  0  0  0  0
    5.1820   -6.0391    2.2462 H   0  0  0  0  0  0  0  0  0  0  0  0
    4.2452   -7.5122    0.4831 H   0  0  0  0  0  0  0  0  0  0  0  0
    4.2702   -8.1930    2.0913 H   0  0  0  0  0  0  0  0  0  0  0  0
    1.8137   -6.9164    0.8276 H   0  0  0  0  0  0  0  0  0  0  0  0
    2.1275   -8.6322    0.9099 H   0  0  0  0  0  0  0  0  0  0  0  0
    2.0500   -8.6863    3.3120 H   0  0  0  0  0  0  0  0  0  0  0  0
   -0.1491   -8.1800    1.7308 H   0  0  0  0  0  0  0  0  0  0  0  0
   -0.1704   -9.3768    3.6435 H   0  0  0  0  0  0  0  0  0  0  0  0
    1.1500   -4.8751    2.5332 H   0  0  0  0  0  0  0  0  0  0  0  0
    0.4686   -5.0061    4.1413 H   0  0  0  0  0  0  0  0  0  0  0  0
    2.1423   -6.0536    5.8449 H   0  0  0  0  0  0  0  0  0  0  0  0
    2.5172   -7.7304    5.4569 H   0  0  0  0  0  0  0  0  0  0  0  0
    0.8517   -7.1623    5.4500 H   0  0  0  0  0  0  0  0  0  0  0  0
    4.1014   -6.5243    4.1381 H   0  0  0  0  0  0  0  0  0  0  0  0
    2.6132   -3.9630    4.0819 H   0  0  0  0  0  0  0  0  0  0  0  0
    3.8922   -4.5043    5.1291 H   0  0  0  0  0  0  0  0  0  0  0  0
    3.3751   -2.8167    1.6829 H   0  0  0  0  0  0  0  0  0  0  0  0
  1  2  1  0
  1 27  1  0
  1 28  1  0
  1 29  1  0
  2  9  1  0
  2  3  2  0
  3  4  1  0
  3 30  1  0
  4  5  1  0
  4 31  1  0
  4 32  1  0
  5  6  1  0
  5  7  1  0
  5 33  1  6
  6 34  1  0
  7 26  1  0
  7  8  1  1
  7  9  1  0
  8 35  1  0
  8 36  1  0
  8 37  1  0
  9 10  1  0
  9 38  1  6
 10 11  1  0
 10 39  1  0
 10 40  1  0
 11 26  1  0
 11 12  1  0
 11 41  1  6
 12 22  1  0
 12 13  1  0
 12 42  1  1
 13 14  1  0
 13 43  1  0
 13 44  1  0
 14 15  1  0
 14 45  1  0
 14 46  1  0
 15 20  1  0
 15 16  1  0
 15 47  1  1
 16 17  1  0
 16 18  1  0
 16 48  1  6
 17 49  1  0
 18 19  1  0
 19 20  1  0
 19 50  1  0
 19 51  1  0
 20 21  1  1
 20 22  1  0
 21 52  1  0
 21 53  1  0
 21 54  1  0
 22 23  1  0
 22 55  1  1
 23 24  1  0
 23 56  1  0
 23 57  1  0
 24 25  2  0
 24 26  1  0
 26 58  1  1
M  END
>  <i_m_ct_stereo_status>  (311) 
1

>  <s_m_source_file>  (311) 
/var/tmp/pbs.5076255.sched01/tmp7zsp0c9b/86_oh4d05k.sdf

>  <i_m_source_file_index>  (311) 
40

>  <i_lp_mmshare_version>  (311) 
48012

>  <i_f3d_flags>  (311) 
0

>  <s_epik_input>  (311) 
W09IXVtDQEBIXTFbQ0gyXVtDSF09QyhbQ0gzXSlbQ0BASF0oW0NAQF0xMltDSDNdKVtDSDJdW0NASF0zW0NASF00W0NAQEhdKFtDSDJdQyg9TylbQ0BASF0yMylbQ0BdNShbQ0gzXSlbQ0BIXShbQ0gyXVtDSDJdNClbQ0BASF0oW09IXSlPW0NIMl01

>  <s_epik_cmdline>  (311) 
J2VwaWtfcHl0aG9uJywgJy1waHQnLCAnMi4wJywgJy1waCcsICc3LjAnLCAnLXRuJywgJzgnLCAnLW1hJywgJzIwMCcsICctaW1hZScsICc8aW5maWxlLm1hZT4nLCAnLW9tYWUnLCAnPG91dGZpbGUubWFlPic=

>  <r_lp_tautomer_probability>  (311) 
1

>  <r_epik_Ionization_Penalty>  (311) 
5.32484e-07

>  <r_epik_Ionization_Penalty_Charging>  (311) 
0

>  <r_epik_Ionization_Penalty_Neutral>  (311) 
5.32484e-07

>  <r_epik_State_Penalty>  (311) 
-0

>  <r_epik_Charging_Adjusted_Penalty>  (311) 
0

>  <i_epik_Tot_Q>  (311) 
0

>  <i_epik_Tot_abs_Q>  (311) 
0

>  <s_epik_Chemistry_Notes>  (311) 
This compound contains an acetal/aminal-like group ( X-CH(R)-Y where X, Y are N, S, or O) that may be acid/base labile, releasing an aldehyde.

>  <s_lp_Force_Field>  (311) 
OPLS3e

>  <r_lp_Energy>  (311) 
27.0473

>  <b_lp_Chiralities_Consistent>  (311) 
1

>  <s_lp_Variant>  (311) 
85:0-1

>  <s_i_glide_gridfile>  (311) 
pfpi4k_grid

>  <i_i_glide_lignum>  (311) 
40

>  <i_i_glide_rotatable_bonds>  (311) 
2

>  <r_i_docking_score>  (311) 
-3.8378

>  <r_i_glide_ligand_efficiency>  (311) 
-0.147608

>  <r_i_glide_ligand_efficiency_sa>  (311) 
-0.437287

>  <r_i_glide_ligand_efficiency_ln>  (311) 
-0.901295

>  <r_i_glide_gscore>  (311) 
-3.8378

>  <r_i_glide_lipo>  (311) 
-0.423089

>  <r_i_glide_hbond>  (311) 
-0.16

>  <r_i_glide_metal>  (311) 
-0

>  <r_i_glide_rewards>  (311) 
-1.47429

>  <r_i_glide_evdw>  (311) 
-19.4169

>  <r_i_glide_ecoul>  (311) 
-5.07971

>  <r_i_glide_erotb>  (311) 
0

>  <r_i_glide_esite>  (311) 
-0.047621

>  <r_i_glide_emodel>  (311) 
-35.972

>  <r_i_glide_energy>  (311) 
-24.4966

>  <r_i_glide_einternal>  (311) 
1.90006

>  <r_i_glide_intrahb_reward>  (311) 
-0.5

>  <i_i_glide_confnum>  (311) 
2

>  <i_i_glide_posenum>  (311) 
4

>  <r_i_glide_eff_state_penalty>  (311) 
0

>  <ligand_id>  (311) 
85

>  <original_smiles>  (311) 
CC1=CCC(O)C2(C)C1CC1C3CCC4C(O)OCC4(C)C3CC(=O)C12

>  <smiles>  (311) 
[H]OC1([H])OC([H])([H])C2(C([H])([H])[H])C1([H])C([H])([H])C([H])([H])C1([H])C3([H])C([H])([H])C4([H])C(C([H])([H])[H])=C([H])C([H])([H])C([H])(O[H])C4(C([H])([H])[H])C3([H])C(=O)C([H])([H])C12[H]

$$$$
85:0:1
     RDKit          3D

 58 62  0  0  1  0  0  0  0  0999 V2000
    3.0926   -3.3006   -2.4250 C   0  0  0  0  0  0  0  0  0  0  0  0
    3.7521   -2.7138   -1.1978 C   0  0  0  0  0  0  0  0  0  0  0  0
    3.4577   -1.4554   -0.8329 C   0  0  0  0  0  0  0  0  0  0  0  0
    4.0580   -0.7442    0.3573 C   0  0  0  0  0  0  0  0  0  0  0  0
    5.3607   -1.4118    0.7937 C   0  0  1  0  0  0  0  0  0  0  0  0
    5.7881   -0.7691    1.9764 O   0  0  0  0  0  0  0  0  0  0  0  0
    5.2578   -2.9651    0.8880 C   0  0  2  0  0  0  0  0  0  0  0  0
    6.6605   -3.5317    1.1647 C   0  0  0  0  0  0  0  0  0  0  0  0
    4.7848   -3.5736   -0.4549 C   0  0  1  0  0  0  0  0  0  0  0  0
    4.2842   -4.9623   -0.0424 C   0  0  0  0  0  0  0  0  0  0  0  0
    3.6625   -4.8463    1.3466 C   0  0  1  0  0  0  0  0  0  0  0  0
    3.9578   -6.0548    2.2849 C   0  0  2  0  0  0  0  0  0  0  0  0
    3.5983   -7.4359    1.7069 C   0  0  0  0  0  0  0  0  0  0  0  0
    2.0926   -7.6596    1.7071 C   0  0  0  0  0  0  0  0  0  0  0  0
    1.5521   -7.6740    3.1455 C   0  0  2  0  0  0  0  0  0  0  0  0
    0.0181   -7.6293    3.0625 C   0  0  1  0  0  0  0  0  0  0  0  0
   -0.5638   -8.3099    4.1572 O   0  0  0  0  0  0  0  0  0  0  0  0
   -0.3071   -6.2726    3.0610 O   0  0  0  0  0  0  0  0  0  0  0  0
    0.7571   -5.4780    3.5920 C   0  0  0  0  0  0  0  0  0  0  0  0
    1.9113   -6.4205    3.9699 C   0  0  1  0  0  0  0  0  0  0  0  0
    1.8233   -6.7518    5.4796 C   0  0  0  0  0  0  0  0  0  0  0  0
    3.3665   -5.8633    3.7169 C   0  0  2  0  0  0  0  0  0  0  0  0
    3.5499   -4.4082    4.2492 C   0  0  0  0  0  0  0  0  0  0  0  0
    4.4739   -3.5236    3.4013 C   0  0  0  0  0  0  0  0  0  0  0  0
    5.3602   -2.8501    3.9307 O   0  0  0  0  0  0  0  0  0  0  0  0
    4.1685   -3.4880    1.8863 C   0  0  1  0  0  0  0  0  0  0  0  0
    3.8281   -3.7604   -3.0887 H   0  0  0  0  0  0  0  0  0  0  0  0
    2.5429   -2.5417   -2.9851 H   0  0  0  0  0  0  0  0  0  0  0  0
    2.3598   -4.0422   -2.1119 H   0  0  0  0  0  0  0  0  0  0  0  0
    2.7274   -0.8946   -1.3949 H   0  0  0  0  0  0  0  0  0  0  0  0
    4.2539    0.2917    0.0781 H   0  0  0  0  0  0  0  0  0  0  0  0
    3.3115   -0.7212    1.1567 H   0  0  0  0  0  0  0  0  0  0  0  0
    6.1133   -1.1765    0.0363 H   0  0  0  0  0  0  0  0  0  0  0  0
    5.2088   -1.0116    2.6872 H   0  0  0  0  0  0  0  0  0  0  0  0
    6.6710   -4.6066    1.3197 H   0  0  0  0  0  0  0  0  0  0  0  0
    7.0432   -3.0737    2.0691 H   0  0  0  0  0  0  0  0  0  0  0  0
    7.3511   -3.3179    0.3478 H   0  0  0  0  0  0  0  0  0  0  0  0
    5.6165   -3.6733   -1.1521 H   0  0  0  0  0  0  0  0  0  0  0  0
    3.5563   -5.3988   -0.7135 H   0  0  0  0  0  0  0  0  0  0  0  0
    5.1342   -5.6374   -0.0087 H   0  0  0  0  0  0  0  0  0  0  0  0
    2.5862   -4.7518    1.2118 H   0  0  0  0  0  0  0  0  0  0  0  0
    5.0463   -6.0765    2.4008 H   0  0  0  0  0  0  0  0  0  0  0  0
    4.0151   -7.5663    0.7068 H   0  0  0  0  0  0  0  0  0  0  0  0
    4.0619   -8.2051    2.3296 H   0  0  0  0  0  0  0  0  0  0  0  0
    1.6065   -6.8981    1.0913 H   0  0  0  0  0  0  0  0  0  0  0  0
    1.8760   -8.6176    1.2343 H   0  0  0  0  0  0  0  0  0  0  0  0
    1.8761   -8.5973    3.6332 H   0  0  0  0  0  0  0  0  0  0  0  0
   -0.3661   -8.0928    2.1487 H   0  0  0  0  0  0  0  0  0  0  0  0
   -1.3302   -8.7872    3.8601 H   0  0  0  0  0  0  0  0  0  0  0  0
    1.0425   -4.7935    2.7970 H   0  0  0  0  0  0  0  0  0  0  0  0
    0.4307   -4.8560    4.4314 H   0  0  0  0  0  0  0  0  0  0  0  0
    2.1350   -5.9080    6.0952 H   0  0  0  0  0  0  0  0  0  0  0  0
    2.4511   -7.6074    5.7375 H   0  0  0  0  0  0  0  0  0  0  0  0
    0.8040   -6.9921    5.7807 H   0  0  0  0  0  0  0  0  0  0  0  0
    4.0153   -6.4811    4.3424 H   0  0  0  0  0  0  0  0  0  0  0  0
    2.6000   -3.8791    4.2639 H   0  0  0  0  0  0  0  0  0  0  0  0
    3.8962   -4.4278    5.2824 H   0  0  0  0  0  0  0  0  0  0  0  0
    3.3152   -2.8171    1.8121 H   0  0  0  0  0  0  0  0  0  0  0  0
  1  2  1  0
  1 27  1  0
  1 28  1  0
  1 29  1  0
  2  9  1  0
  2  3  2  0
  3  4  1  0
  3 30  1  0
  4  5  1  0
  4 31  1  0
  4 32  1  0
  5  6  1  0
  5  7  1  0
  5 33  1  6
  6 34  1  0
  7 26  1  0
  7  8  1  1
  7  9  1  0
  8 35  1  0
  8 36  1  0
  8 37  1  0
  9 10  1  0
  9 38  1  6
 10 11  1  0
 10 39  1  0
 10 40  1  0
 11 26  1  0
 11 12  1  0
 11 41  1  6
 12 22  1  0
 12 13  1  0
 12 42  1  1
 13 14  1  0
 13 43  1  0
 13 44  1  0
 14 15  1  0
 14 45  1  0
 14 46  1  0
 15 20  1  0
 15 16  1  0
 15 47  1  1
 16 17  1  0
 16 18  1  0
 16 48  1  6
 17 49  1  0
 18 19  1  0
 19 20  1  0
 19 50  1  0
 19 51  1  0
 20 21  1  1
 20 22  1  0
 21 52  1  0
 21 53  1  0
 21 54  1  0
 22 23  1  0
 22 55  1  1
 23 24  1  0
 23 56  1  0
 23 57  1  0
 24 25  2  0
 24 26  1  0
 26 58  1  1
M  END
>  <i_m_ct_stereo_status>  (312) 
1

>  <s_m_source_file>  (312) 
/var/tmp/pbs.5076255.sched01/tmp7zsp0c9b/86_oh4d05k.sdf

>  <i_m_source_file_index>  (312) 
40

>  <i_lp_mmshare_version>  (312) 
48012

>  <i_f3d_flags>  (312) 
0

>  <s_epik_input>  (312) 
W09IXVtDQEBIXTFbQ0gyXVtDSF09QyhbQ0gzXSlbQ0BASF0oW0NAQF0xMltDSDNdKVtDSDJdW0NASF0zW0NASF00W0NAQEhdKFtDSDJdQyg9TylbQ0BASF0yMylbQ0BdNShbQ0gzXSlbQ0BIXShbQ0gyXVtDSDJdNClbQ0BASF0oW09IXSlPW0NIMl01

>  <s_epik_cmdline>  (312) 
J2VwaWtfcHl0aG9uJywgJy1waHQnLCAnMi4wJywgJy1waCcsICc3LjAnLCAnLXRuJywgJzgnLCAnLW1hJywgJzIwMCcsICctaW1hZScsICc8aW5maWxlLm1hZT4nLCAnLW9tYWUnLCAnPG91dGZpbGUubWFlPic=

>  <r_lp_tautomer_probability>  (312) 
1

>  <r_epik_Ionization_Penalty>  (312) 
5.32484e-07

>  <r_epik_Ionization_Penalty_Charging>  (312) 
0

>  <r_epik_Ionization_Penalty_Neutral>  (312) 
5.32484e-07

>  <r_epik_State_Penalty>  (312) 
-0

>  <r_epik_Charging_Adjusted_Penalty>  (312) 
0

>  <i_epik_Tot_Q>  (312) 
0

>  <i_epik_Tot_abs_Q>  (312) 
0

>  <s_epik_Chemistry_Notes>  (312) 
This compound contains an acetal/aminal-like group ( X-CH(R)-Y where X, Y are N, S, or O) that may be acid/base labile, releasing an aldehyde.

>  <s_lp_Force_Field>  (312) 
OPLS3e

>  <r_lp_Energy>  (312) 
27.0473

>  <b_lp_Chiralities_Consistent>  (312) 
1

>  <s_lp_Variant>  (312) 
85:0-1

>  <s_i_glide_gridfile>  (312) 
pfpi4k_grid

>  <i_i_glide_lignum>  (312) 
40

>  <i_i_glide_rotatable_bonds>  (312) 
2

>  <r_i_docking_score>  (312) 
-3.69

>  <r_i_glide_ligand_efficiency>  (312) 
-0.141923

>  <r_i_glide_ligand_efficiency_sa>  (312) 
-0.420446

>  <r_i_glide_ligand_efficiency_ln>  (312) 
-0.866583

>  <r_i_glide_gscore>  (312) 
-3.69

>  <r_i_glide_lipo>  (312) 
-0.350217

>  <r_i_glide_hbond>  (312) 
-0.139888

>  <r_i_glide_metal>  (312) 
-0

>  <r_i_glide_rewards>  (312) 
-1.47197

>  <r_i_glide_evdw>  (312) 
-19.4272

>  <r_i_glide_ecoul>  (312) 
-4.73338

>  <r_i_glide_erotb>  (312) 
0

>  <r_i_glide_esite>  (312) 
-0.0465545

>  <r_i_glide_emodel>  (312) 
-35.4372

>  <r_i_glide_energy>  (312) 
-24.1606

>  <r_i_glide_einternal>  (312) 
1.05716

>  <r_i_glide_intrahb_reward>  (312) 
-0.5

>  <i_i_glide_confnum>  (312) 
1

>  <i_i_glide_posenum>  (312) 
19

>  <r_i_glide_eff_state_penalty>  (312) 
0

>  <ligand_id>  (312) 
85

>  <original_smiles>  (312) 
CC1=CCC(O)C2(C)C1CC1C3CCC4C(O)OCC4(C)C3CC(=O)C12

>  <smiles>  (312) 
[H]OC1([H])OC([H])([H])C2(C([H])([H])[H])C1([H])C([H])([H])C([H])([H])C1([H])C3([H])C([H])([H])C4([H])C(C([H])([H])[H])=C([H])C([H])([H])C([H])(O[H])C4(C([H])([H])[H])C3([H])C(=O)C([H])([H])C12[H]

$$$$
85:0:2
     RDKit          3D

 58 62  0  0  1  0  0  0  0  0999 V2000
   -1.6373   -8.6113    2.4907 C   0  0  0  0  0  0  0  0  0  0  0  0
   -0.4959   -9.0559    3.3876 C   0  0  0  0  0  0  0  0  0  0  0  0
    0.3190  -10.0577    3.0069 C   0  0  0  0  0  0  0  0  0  0  0  0
    1.4250  -10.6248    3.8592 C   0  0  0  0  0  0  0  0  0  0  0  0
    1.2632  -10.2306    5.3310 C   0  0  1  0  0  0  0  0  0  0  0  0
    2.4054  -10.6468    6.0468 O   0  0  0  0  0  0  0  0  0  0  0  0
    0.9081   -8.7321    5.5547 C   0  0  2  0  0  0  0  0  0  0  0  0
    0.6143   -8.5047    7.0620 C   0  0  0  0  0  0  0  0  0  0  0  0
   -0.3730   -8.3609    4.7530 C   0  0  1  0  0  0  0  0  0  0  0  0
   -0.3163   -6.8248    4.6580 C   0  0  0  0  0  0  0  0  0  0  0  0
    1.1699   -6.4413    4.5342 C   0  0  1  0  0  0  0  0  0  0  0  0
    1.5719   -5.1640    5.3287 C   0  0  2  0  0  0  0  0  0  0  0  0
    0.7223   -3.9169    5.0465 C   0  0  0  0  0  0  0  0  0  0  0  0
    1.0569   -3.3216    3.6873 C   0  0  0  0  0  0  0  0  0  0  0  0
    2.5128   -2.8319    3.6571 C   0  0  2  0  0  0  0  0  0  0  0  0
    2.8731   -2.4936    2.1961 C   0  0  1  0  0  0  0  0  0  0  0  0
    3.7868   -1.4155    2.1543 O   0  0  0  0  0  0  0  0  0  0  0  0
    3.4185   -3.6608    1.6602 O   0  0  0  0  0  0  0  0  0  0  0  0
    3.8146   -4.5725    2.6873 C   0  0  0  0  0  0  0  0  0  0  0  0
    3.5545   -3.8992    4.0489 C   0  0  1  0  0  0  0  0  0  0  0  0
    4.8505   -3.1999    4.5316 C   0  0  0  0  0  0  0  0  0  0  0  0
    3.0963   -4.8543    5.2159 C   0  0  2  0  0  0  0  0  0  0  0  0
    3.9836   -6.1301    5.3199 C   0  0  0  0  0  0  0  0  0  0  0  0
    3.2259   -7.3840    5.7730 C   0  0  0  0  0  0  0  0  0  0  0  0
    3.6465   -8.0571    6.7060 O   0  0  0  0  0  0  0  0  0  0  0  0
    1.9461   -7.7158    4.9664 C   0  0  1  0  0  0  0  0  0  0  0  0
   -2.5737   -8.5757    3.0515 H   0  0  0  0  0  0  0  0  0  0  0  0
   -1.7695   -9.3155    1.6687 H   0  0  0  0  0  0  0  0  0  0  0  0
   -1.4386   -7.6281    2.0637 H   0  0  0  0  0  0  0  0  0  0  0  0
    0.1914  -10.5305    2.0432 H   0  0  0  0  0  0  0  0  0  0  0  0
    1.4037  -11.7130    3.7725 H   0  0  0  0  0  0  0  0  0  0  0  0
    2.3832  -10.2927    3.4550 H   0  0  0  0  0  0  0  0  0  0  0  0
    0.4351  -10.8196    5.7297 H   0  0  0  0  0  0  0  0  0  0  0  0
    2.1131  -11.3063    6.6875 H   0  0  0  0  0  0  0  0  0  0  0  0
    0.4167   -7.4606    7.2972 H   0  0  0  0  0  0  0  0  0  0  0  0
    1.4419   -8.8234    7.6954 H   0  0  0  0  0  0  0  0  0  0  0  0
   -0.2514   -9.0843    7.3835 H   0  0  0  0  0  0  0  0  0  0  0  0
   -1.2714   -8.6662    5.2869 H   0  0  0  0  0  0  0  0  0  0  0  0
   -0.9136   -6.4079    3.8517 H   0  0  0  0  0  0  0  0  0  0  0  0
   -0.7278   -6.4162    5.5824 H   0  0  0  0  0  0  0  0  0  0  0  0
    1.3675   -6.2889    3.4752 H   0  0  0  0  0  0  0  0  0  0  0  0
    1.3786   -5.4012    6.3760 H   0  0  0  0  0  0  0  0  0  0  0  0
   -0.3399   -4.1392    5.1233 H   0  0  0  0  0  0  0  0  0  0  0  0
    0.9301   -3.1694    5.8148 H   0  0  0  0  0  0  0  0  0  0  0  0
    0.8705   -4.0596    2.9037 H   0  0  0  0  0  0  0  0  0  0  0  0
    0.3877   -2.4847    3.4862 H   0  0  0  0  0  0  0  0  0  0  0  0
    2.5873   -1.9340    4.2758 H   0  0  0  0  0  0  0  0  0  0  0  0
    2.0066   -2.1900    1.6001 H   0  0  0  0  0  0  0  0  0  0  0  0
    3.8481   -1.1273    1.2568 H   0  0  0  0  0  0  0  0  0  0  0  0
    3.2160   -5.4719    2.5631 H   0  0  0  0  0  0  0  0  0  0  0  0
    4.8579   -4.8738    2.5650 H   0  0  0  0  0  0  0  0  0  0  0  0
    5.5899   -3.9177    4.8877 H   0  0  0  0  0  0  0  0  0  0  0  0
    4.6520   -2.4979    5.3440 H   0  0  0  0  0  0  0  0  0  0  0  0
    5.3336   -2.6395    3.7304 H   0  0  0  0  0  0  0  0  0  0  0  0
    3.3015   -4.2981    6.1320 H   0  0  0  0  0  0  0  0  0  0  0  0
    4.4239   -6.3874    4.3569 H   0  0  0  0  0  0  0  0  0  0  0  0
    4.8231   -5.9550    5.9944 H   0  0  0  0  0  0  0  0  0  0  0  0
    2.3198   -8.1512    4.0414 H   0  0  0  0  0  0  0  0  0  0  0  0
  1  2  1  0
  1 27  1  0
  1 28  1  0
  1 29  1  0
  2  9  1  0
  2  3  2  0
  3  4  1  0
  3 30  1  0
  4  5  1  0
  4 31  1  0
  4 32  1  0
  5  6  1  0
  5  7  1  0
  5 33  1  1
  6 34  1  0
  7 26  1  0
  7  8  1  1
  7  9  1  0
  8 35  1  0
  8 36  1  0
  8 37  1  0
  9 10  1  0
  9 38  1  1
 10 11  1  0
 10 39  1  0
 10 40  1  0
 11 26  1  0
 11 12  1  0
 11 41  1  6
 12 22  1  0
 12 13  1  0
 12 42  1  1
 13 14  1  0
 13 43  1  0
 13 44  1  0
 14 15  1  0
 14 45  1  0
 14 46  1  0
 15 20  1  0
 15 16  1  0
 15 47  1  1
 16 17  1  0
 16 18  1  0
 16 48  1  6
 17 49  1  0
 18 19  1  0
 19 20  1  0
 19 50  1  0
 19 51  1  0
 20 21  1  1
 20 22  1  0
 21 52  1  0
 21 53  1  0
 21 54  1  0
 22 23  1  0
 22 55  1  1
 23 24  1  0
 23 56  1  0
 23 57  1  0
 24 25  2  0
 24 26  1  0
 26 58  1  6
M  END
>  <i_m_ct_stereo_status>  (313) 
1

>  <s_m_source_file>  (313) 
/var/tmp/pbs.5076255.sched01/tmp7zsp0c9b/86_oh4d05k.sdf

>  <i_m_source_file_index>  (313) 
40

>  <i_lp_mmshare_version>  (313) 
48012

>  <i_f3d_flags>  (313) 
0

>  <s_epik_input>  (313) 
W09IXVtDQEBIXTFbQ0gyXVtDSF09QyhbQ0gzXSlbQ0BASF0oW0NAQF0xMltDSDNdKVtDSDJdW0NASF0zW0NASF00W0NAQEhdKFtDSDJdQyg9TylbQ0BASF0yMylbQ0BdNShbQ0gzXSlbQ0BIXShbQ0gyXVtDSDJdNClbQ0BASF0oW09IXSlPW0NIMl01

>  <s_epik_cmdline>  (313) 
J2VwaWtfcHl0aG9uJywgJy1waHQnLCAnMi4wJywgJy1waCcsICc3LjAnLCAnLXRuJywgJzgnLCAnLW1hJywgJzIwMCcsICctaW1hZScsICc8aW5maWxlLm1hZT4nLCAnLW9tYWUnLCAnPG91dGZpbGUubWFlPic=

>  <r_lp_tautomer_probability>  (313) 
1

>  <r_epik_Ionization_Penalty>  (313) 
5.32484e-07

>  <r_epik_Ionization_Penalty_Charging>  (313) 
0

>  <r_epik_Ionization_Penalty_Neutral>  (313) 
5.32484e-07

>  <r_epik_State_Penalty>  (313) 
-0

>  <r_epik_Charging_Adjusted_Penalty>  (313) 
0

>  <i_epik_Tot_Q>  (313) 
0

>  <i_epik_Tot_abs_Q>  (313) 
0

>  <s_epik_Chemistry_Notes>  (313) 
This compound contains an acetal/aminal-like group ( X-CH(R)-Y where X, Y are N, S, or O) that may be acid/base labile, releasing an aldehyde.

>  <s_lp_Force_Field>  (313) 
OPLS3e

>  <r_lp_Energy>  (313) 
27.0473

>  <b_lp_Chiralities_Consistent>  (313) 
1

>  <s_lp_Variant>  (313) 
85:0-1

>  <s_i_glide_gridfile>  (313) 
pfpi4k_grid

>  <i_i_glide_lignum>  (313) 
40

>  <i_i_glide_rotatable_bonds>  (313) 
2

>  <r_i_docking_score>  (313) 
-3.195

>  <r_i_glide_ligand_efficiency>  (313) 
-0.122885

>  <r_i_glide_ligand_efficiency_sa>  (313) 
-0.364045

>  <r_i_glide_ligand_efficiency_ln>  (313) 
-0.750335

>  <r_i_glide_gscore>  (313) 
-3.195

>  <r_i_glide_lipo>  (313) 
-0.263336

>  <r_i_glide_hbond>  (313) 
0

>  <r_i_glide_metal>  (313) 
-0

>  <r_i_glide_rewards>  (313) 
-0.951224

>  <r_i_glide_evdw>  (313) 
-22.6182

>  <r_i_glide_ecoul>  (313) 
-5.62384

>  <r_i_glide_erotb>  (313) 
0

>  <r_i_glide_esite>  (313) 
-0.00595517

>  <r_i_glide_emodel>  (313) 
-33.6431

>  <r_i_glide_energy>  (313) 
-28.242

>  <r_i_glide_einternal>  (313) 
1.78307

>  <r_i_glide_intrahb_reward>  (313) 
-0

>  <i_i_glide_confnum>  (313) 
2

>  <i_i_glide_posenum>  (313) 
7

>  <r_i_glide_eff_state_penalty>  (313) 
0

>  <ligand_id>  (313) 
85

>  <original_smiles>  (313) 
CC1=CCC(O)C2(C)C1CC1C3CCC4C(O)OCC4(C)C3CC(=O)C12

>  <smiles>  (313) 
[H]OC1([H])OC([H])([H])C2(C([H])([H])[H])C1([H])C([H])([H])C([H])([H])C1([H])C3([H])C([H])([H])C4([H])C(C([H])([H])[H])=C([H])C([H])([H])C([H])(O[H])C4(C([H])([H])[H])C3([H])C(=O)C([H])([H])C12[H]

$$$$
87:0:0
     RDKit          3D

 84 88  0  0  1  0  0  0  0  0999 V2000
    4.2144   -0.6558   -2.8827 C   0  0  0  0  0  0  0  0  0  0  0  0
    3.8984   -2.1187   -3.1272 C   0  0  0  0  0  0  0  0  0  0  0  0
    3.8032   -2.5387   -4.2856 O   0  0  0  0  0  0  0  0  0  0  0  0
    3.7400   -2.8987   -2.0304 O   0  0  0  0  0  0  0  0  0  0  0  0
    3.9714   -2.4245   -0.7021 C   0  0  2  0  0  0  0  0  0  0  0  0
    5.3773   -2.8207   -0.2545 C   0  0  0  0  0  0  0  0  0  0  0  0
    5.6715   -2.2613    1.1532 C   0  0  0  0  0  0  0  0  0  0  0  0
    4.5859   -2.5067    2.2527 C   0  0  1  0  0  0  0  0  0  0  0  0
    4.8073   -1.3570    3.2718 C   0  0  0  0  0  0  0  0  0  0  0  0
    3.1512   -2.3304    1.6580 C   0  0  1  0  0  0  0  0  0  0  0  0
    2.9581   -3.0030    0.2800 C   0  0  0  0  0  0  0  0  0  0  0  0
    2.0369   -2.6794    2.6638 C   0  0  0  0  0  0  0  0  0  0  0  0
    2.1757   -4.0683    3.3006 C   0  0  1  0  0  0  0  0  0  0  0  0
    1.8775   -5.0512    2.3396 O   0  0  0  0  0  0  0  0  0  0  0  0
    3.5719   -4.2322    3.9741 C   0  0  2  0  0  0  0  0  0  0  0  0
    4.7598   -3.8769    3.0211 C   0  0  1  0  0  0  0  0  0  0  0  0
    5.1453   -5.1229    2.2021 C   0  0  0  0  0  0  0  0  0  0  0  0
    5.5908   -6.2882    3.0940 C   0  0  1  0  0  0  0  0  0  0  0  0
    6.8559   -5.9791    3.6448 O   0  0  0  0  0  0  0  0  0  0  0  0
    4.5964   -6.7116    4.2184 C   0  0  1  0  0  0  0  0  0  0  0  0
    3.8564   -5.4770    4.9142 C   0  0  1  0  0  0  0  0  0  0  0  0
    4.8153   -4.9431    6.0232 C   0  0  0  0  0  0  0  0  0  0  0  0
    2.6021   -5.9115    5.7270 C   0  0  0  0  0  0  0  0  0  0  0  0
    1.8334   -7.1086    5.1612 C   0  0  0  0  0  0  0  0  0  0  0  0
    2.7091   -8.3747    5.0236 C   0  0  1  0  0  0  0  0  0  0  0  0
    3.3393   -8.6845    6.4177 C   0  0  0  0  0  0  0  0  0  0  0  0
    1.8398   -9.6404    4.6439 C   0  0  1  0  0  0  0  0  0  0  0  0
    0.7242  -10.0109    5.6525 C   0  0  0  0  0  0  0  0  0  0  0  0
    1.3318   -9.7184    3.1783 C   0  0  1  0  0  0  0  0  0  0  0  0
    0.0731   -8.8926    2.8429 C   0  0  0  0  0  0  0  0  0  0  0  0
    2.4790   -9.4549    2.1971 C   0  0  0  0  0  0  0  0  0  0  0  0
    3.2231   -8.1511    2.5159 C   0  0  0  0  0  0  0  0  0  0  0  0
    3.8369   -8.0928    3.9483 C   0  0  1  0  0  0  0  0  0  0  0  0
    4.9241   -9.2181    4.0071 C   0  0  0  0  0  0  0  0  0  0  0  0
    3.4186   -0.2527   -2.2545 H   0  0  0  0  0  0  0  0  0  0  0  0
    4.2334   -0.0628   -3.8072 H   0  0  0  0  0  0  0  0  0  0  0  0
    5.1753   -0.5384   -2.3788 H   0  0  0  0  0  0  0  0  0  0  0  0
    3.8766   -1.3415   -0.6106 H   0  0  0  0  0  0  0  0  0  0  0  0
    5.4891   -3.9076   -0.3060 H   0  0  0  0  0  0  0  0  0  0  0  0
    6.1013   -2.4271   -0.9645 H   0  0  0  0  0  0  0  0  0  0  0  0
    6.6382   -2.6211    1.4886 H   0  0  0  0  0  0  0  0  0  0  0  0
    5.8088   -1.1774    1.0145 H   0  0  0  0  0  0  0  0  0  0  0  0
    4.1181   -1.3738    4.1062 H   0  0  0  0  0  0  0  0  0  0  0  0
    4.7091   -0.3740    2.8094 H   0  0  0  0  0  0  0  0  0  0  0  0
    5.8115   -1.3921    3.6984 H   0  0  0  0  0  0  0  0  0  0  0  0
    3.0213   -1.2642    1.4613 H   0  0  0  0  0  0  0  0  0  0  0  0
    1.9557   -2.7819   -0.0821 H   0  0  0  0  0  0  0  0  0  0  0  0
    3.0476   -4.0826    0.3110 H   0  0  0  0  0  0  0  0  0  0  0  0
    2.0363   -1.9306    3.4543 H   0  0  0  0  0  0  0  0  0  0  0  0
    1.0649   -2.5632    2.1884 H   0  0  0  0  0  0  0  0  0  0  0  0
    1.3859   -4.1302    4.0427 H   0  0  0  0  0  0  0  0  0  0  0  0
    2.5988   -5.0901    1.7348 H   0  0  0  0  0  0  0  0  0  0  0  0
    3.5312   -3.4025    4.6761 H   0  0  0  0  0  0  0  0  0  0  0  0
    5.6289   -3.6986    3.6480 H   0  0  0  0  0  0  0  0  0  0  0  0
    4.3271   -5.4451    1.5704 H   0  0  0  0  0  0  0  0  0  0  0  0
    5.9809   -4.8977    1.5345 H   0  0  0  0  0  0  0  0  0  0  0  0
    5.8038   -7.1263    2.4365 H   0  0  0  0  0  0  0  0  0  0  0  0
    7.2175   -6.7664    4.0146 H   0  0  0  0  0  0  0  0  0  0  0  0
    5.2683   -7.0386    5.0175 H   0  0  0  0  0  0  0  0  0  0  0  0
    5.0418   -5.7045    6.7722 H   0  0  0  0  0  0  0  0  0  0  0  0
    4.3791   -4.1076    6.5689 H   0  0  0  0  0  0  0  0  0  0  0  0
    5.7734   -4.6093    5.6320 H   0  0  0  0  0  0  0  0  0  0  0  0
    2.8678   -6.1505    6.7631 H   0  0  0  0  0  0  0  0  0  0  0  0
    1.9218   -5.0805    5.8490 H   0  0  0  0  0  0  0  0  0  0  0  0
    0.9755   -7.2962    5.8098 H   0  0  0  0  0  0  0  0  0  0  0  0
    1.4056   -6.8147    4.2128 H   0  0  0  0  0  0  0  0  0  0  0  0
    3.7531   -9.6921    6.4706 H   0  0  0  0  0  0  0  0  0  0  0  0
    2.5965   -8.6058    7.2130 H   0  0  0  0  0  0  0  0  0  0  0  0
    4.1449   -8.0046    6.6790 H   0  0  0  0  0  0  0  0  0  0  0  0
    2.5113  -10.4930    4.7262 H   0  0  0  0  0  0  0  0  0  0  0  0
   -0.0421   -9.2465    5.7517 H   0  0  0  0  0  0  0  0  0  0  0  0
    1.1282  -10.2183    6.6429 H   0  0  0  0  0  0  0  0  0  0  0  0
    0.2233  -10.9288    5.3405 H   0  0  0  0  0  0  0  0  0  0  0  0
    1.0279  -10.7525    3.0223 H   0  0  0  0  0  0  0  0  0  0  0  0
    0.2755   -7.8348    2.7197 H   0  0  0  0  0  0  0  0  0  0  0  0
   -0.7138   -9.0123    3.5889 H   0  0  0  0  0  0  0  0  0  0  0  0
   -0.3525   -9.2362    1.8999 H   0  0  0  0  0  0  0  0  0  0  0  0
    3.1663  -10.3010    2.2074 H   0  0  0  0  0  0  0  0  0  0  0  0
    2.0912   -9.4220    1.1806 H   0  0  0  0  0  0  0  0  0  0  0  0
    3.9801   -8.0219    1.7457 H   0  0  0  0  0  0  0  0  0  0  0  0
    2.5306   -7.3436    2.3729 H   0  0  0  0  0  0  0  0  0  0  0  0
    4.5049  -10.2214    3.9726 H   0  0  0  0  0  0  0  0  0  0  0  0
    5.5275   -9.1791    4.9140 H   0  0  0  0  0  0  0  0  0  0  0  0
    5.6198   -9.1632    3.1694 H   0  0  0  0  0  0  0  0  0  0  0  0
  1  2  1  0
  1 35  1  0
  1 36  1  0
  1 37  1  0
  2  3  2  0
  2  4  1  0
  4  5  1  0
  5 11  1  0
  5  6  1  0
  5 38  1  6
  6  7  1  0
  6 39  1  0
  6 40  1  0
  7  8  1  0
  7 41  1  0
  7 42  1  0
  8 16  1  0
  8  9  1  1
  8 10  1  0
  9 43  1  0
  9 44  1  0
  9 45  1  0
 10 11  1  0
 10 12  1  0
 10 46  1  6
 11 47  1  0
 11 48  1  0
 12 13  1  0
 12 49  1  0
 12 50  1  0
 13 14  1  0
 13 15  1  0
 13 51  1  1
 14 52  1  0
 15 21  1  0
 15 16  1  0
 15 53  1  1
 16 17  1  0
 16 54  1  1
 17 18  1  0
 17 55  1  0
 17 56  1  0
 18 19  1  0
 18 20  1  0
 18 57  1  6
 19 58  1  0
 20 33  1  0
 20 21  1  0
 20 59  1  1
 21 22  1  1
 21 23  1  0
 22 60  1  0
 22 61  1  0
 22 62  1  0
 23 24  1  0
 23 63  1  0
 23 64  1  0
 24 25  1  0
 24 65  1  0
 24 66  1  0
 25 33  1  0
 25 26  1  1
 25 27  1  0
 26 67  1  0
 26 68  1  0
 26 69  1  0
 27 28  1  0
 27 29  1  0
 27 70  1  6
 28 71  1  0
 28 72  1  0
 28 73  1  0
 29 30  1  0
 29 31  1  0
 29 74  1  6
 30 75  1  0
 30 76  1  0
 30 77  1  0
 31 32  1  0
 31 78  1  0
 31 79  1  0
 32 33  1  0
 32 80  1  0
 32 81  1  0
 33 34  1  6
 34 82  1  0
 34 83  1  0
 34 84  1  0
M  END
>  <i_m_ct_stereo_status>  (314) 
1

>  <s_m_source_file>  (314) 
/var/tmp/pbs.5076255.sched01/tmp7zsp0c9b/86_oh4d05k.sdf

>  <i_m_source_file_index>  (314) 
42

>  <i_lp_mmshare_version>  (314) 
48012

>  <i_f3d_flags>  (314) 
0

>  <s_epik_input>  (314) 
W0NIM11DKD1PKU9bQ0BIXShbQ0gyXVtDSDJdMSlbQ0gyXVtDQEhdKFtDQF0xMltDSDNdKVtDSDJdW0NAQEhdKFtPSF0pW0NAQEhdM1tDQEhdMltDSDJdW0NAQEhdKFtPSF0pW0NASF00W0NAXTMoW0NIM10pW0NIMl1bQ0gyXVtDQF01KFtDSDNdKVtDQEBdNChbQ0gzXSlbQ0gyXVtDSDJdW0NASF0oW0NIM10pW0NAQEhdNVtDSDNd

>  <s_epik_cmdline>  (314) 
J2VwaWtfcHl0aG9uJywgJy1waHQnLCAnMi4wJywgJy1waCcsICc3LjAnLCAnLXRuJywgJzgnLCAnLW1hJywgJzIwMCcsICctaW1hZScsICc8aW5maWxlLm1hZT4nLCAnLW9tYWUnLCAnPG91dGZpbGUubWFlPic=

>  <r_lp_tautomer_probability>  (314) 
1

>  <r_epik_Ionization_Penalty>  (314) 
4.66479e-06

>  <r_epik_Ionization_Penalty_Charging>  (314) 
0

>  <r_epik_Ionization_Penalty_Neutral>  (314) 
4.66479e-06

>  <r_epik_State_Penalty>  (314) 
-0

>  <r_epik_Charging_Adjusted_Penalty>  (314) 
0

>  <i_epik_Tot_Q>  (314) 
0

>  <i_epik_Tot_abs_Q>  (314) 
0

>  <s_epik_Chemistry_Notes>  (314) 
This compound has an ester and may undergo hydrolysis at high or low pH.

>  <s_lp_Force_Field>  (314) 
OPLS3e

>  <r_lp_Energy>  (314) 
101.665

>  <b_lp_Chiralities_Consistent>  (314) 
1

>  <s_lp_Variant>  (314) 
87:0-1

>  <s_i_glide_gridfile>  (314) 
pfpi4k_grid

>  <i_i_glide_lignum>  (314) 
42

>  <i_i_glide_rotatable_bonds>  (314) 
4

>  <r_i_docking_score>  (314) 
-3.06474

>  <r_i_glide_ligand_efficiency>  (314) 
-0.0901393

>  <r_i_glide_ligand_efficiency_sa>  (314) 
-0.292016

>  <r_i_glide_ligand_efficiency_ln>  (314) 
-0.677086

>  <r_i_glide_gscore>  (314) 
-3.06474

>  <r_i_glide_lipo>  (314) 
-0.401332

>  <r_i_glide_hbond>  (314) 
-0.32

>  <r_i_glide_metal>  (314) 
-0

>  <r_i_glide_rewards>  (314) 
-0.334584

>  <r_i_glide_evdw>  (314) 
-32.8377

>  <r_i_glide_ecoul>  (314) 
-3.04491

>  <r_i_glide_erotb>  (314) 
0.0898007

>  <r_i_glide_esite>  (314) 
0

>  <r_i_glide_emodel>  (314) 
-39.6826

>  <r_i_glide_energy>  (314) 
-35.8826

>  <r_i_glide_einternal>  (314) 
5.81037

>  <r_i_glide_intrahb_reward>  (314) 
-0

>  <i_i_glide_confnum>  (314) 
4

>  <i_i_glide_posenum>  (314) 
6

>  <r_i_glide_eff_state_penalty>  (314) 
0

>  <ligand_id>  (314) 
87

>  <original_smiles>  (314) 
CC(=O)OC1CCC2(C)C(C1)CC(O)C1C2CC(O)C2C1(C)CCC1(C)C(C)C(C)CCC21C

>  <smiles>  (314) 
[H]OC1([H])C([H])([H])C2([H])C([H])([H])C([H])(OC(=O)C([H])([H])[H])C([H])([H])C([H])([H])C2(C([H])([H])[H])C2([H])C([H])([H])C([H])(O[H])C3([H])C(C([H])([H])[H])(C([H])([H])C([H])([H])C4(C([H])([H])[H])C([H])(C([H])([H])[H])C([H])(C([H])([H])[H])C([H])([H])C([H])([H])C34C([H])([H])[H])C12[H]

$$$$
87:0:1
     RDKit          3D

 84 88  0  0  1  0  0  0  0  0999 V2000
    4.1565   -0.6631   -2.9123 C   0  0  0  0  0  0  0  0  0  0  0  0
    3.8437   -2.1344   -3.1353 C   0  0  0  0  0  0  0  0  0  0  0  0
    3.7823   -2.5768   -4.2848 O   0  0  0  0  0  0  0  0  0  0  0  0
    3.6490   -2.9089   -2.0334 O   0  0  0  0  0  0  0  0  0  0  0  0
    3.8823   -2.4342   -0.7055 C   0  0  2  0  0  0  0  0  0  0  0  0
    5.2950   -2.8280   -0.2819 C   0  0  0  0  0  0  0  0  0  0  0  0
    5.6140   -2.2718    1.1203 C   0  0  0  0  0  0  0  0  0  0  0  0
    4.5493   -2.5271    2.2374 C   0  0  1  0  0  0  0  0  0  0  0  0
    4.7986   -1.3832    3.2563 C   0  0  0  0  0  0  0  0  0  0  0  0
    3.1055   -2.3406    1.6702 C   0  0  1  0  0  0  0  0  0  0  0  0
    2.8838   -3.0080    0.2948 C   0  0  0  0  0  0  0  0  0  0  0  0
    2.0085   -2.6899    2.6935 C   0  0  0  0  0  0  0  0  0  0  0  0
    2.1596   -4.0807    3.3202 C   0  0  1  0  0  0  0  0  0  0  0  0
    1.8324   -5.0566    2.3682 O   0  0  0  0  0  0  0  0  0  0  0  0
    3.5639   -4.2519    3.9672 C   0  0  2  0  0  0  0  0  0  0  0  0
    4.7336   -3.8994    2.9952 C   0  0  1  0  0  0  0  0  0  0  0  0
    5.1010   -5.1407    2.1641 C   0  0  0  0  0  0  0  0  0  0  0  0
    5.5548   -6.3154    3.0454 C   0  0  1  0  0  0  0  0  0  0  0  0
    6.8276   -6.0079    3.5742 O   0  0  0  0  0  0  0  0  0  0  0  0
    4.5809   -6.7384    4.1857 C   0  0  1  0  0  0  0  0  0  0  0  0
    3.8582   -5.5058    4.8906 C   0  0  1  0  0  0  0  0  0  0  0  0
    4.8361   -4.9814    5.9871 C   0  0  0  0  0  0  0  0  0  0  0  0
    2.6222   -5.9426    5.7298 C   0  0  0  0  0  0  0  0  0  0  0  0
    1.8341   -7.1348    5.1759 C   0  0  0  0  0  0  0  0  0  0  0  0
    2.7035   -8.3997    5.0114 C   0  0  1  0  0  0  0  0  0  0  0  0
    3.3586   -8.7182    6.3925 C   0  0  0  0  0  0  0  0  0  0  0  0
    1.8275   -9.6592    4.6416 C   0  0  1  0  0  0  0  0  0  0  0  0
    0.7323  -10.0324    5.6696 C   0  0  0  0  0  0  0  0  0  0  0  0
    1.2939   -9.7299    3.1873 C   0  0  1  0  0  0  0  0  0  0  0  0
    0.0293   -8.9031    2.8782 C   0  0  0  0  0  0  0  0  0  0  0  0
    2.4231   -9.4683    2.1873 C   0  0  0  0  0  0  0  0  0  0  0  0
    3.1784   -8.1700    2.4957 C   0  0  0  0  0  0  0  0  0  0  0  0
    3.8120   -8.1122    3.9194 C   0  0  1  0  0  0  0  0  0  0  0  0
    4.8961   -9.2424    3.9543 C   0  0  0  0  0  0  0  0  0  0  0  0
    3.3361   -0.2547   -2.3357 H   0  0  0  0  0  0  0  0  0  0  0  0
    4.2188   -0.0928   -3.8479 H   0  0  0  0  0  0  0  0  0  0  0  0
    5.0941   -0.5430   -2.3669 H   0  0  0  0  0  0  0  0  0  0  0  0
    3.7818   -1.3526   -0.6007 H   0  0  0  0  0  0  0  0  0  0  0  0
    5.3995   -3.9148   -0.3439 H   0  0  0  0  0  0  0  0  0  0  0  0
    6.0073   -2.4372   -1.0043 H   0  0  0  0  0  0  0  0  0  0  0  0
    6.5843   -2.6436    1.4320 H   0  0  0  0  0  0  0  0  0  0  0  0
    5.7567   -1.1869    0.9851 H   0  0  0  0  0  0  0  0  0  0  0  0
    4.1245   -1.4012    4.1042 H   0  0  0  0  0  0  0  0  0  0  0  0
    4.6931   -0.3957    2.8001 H   0  0  0  0  0  0  0  0  0  0  0  0
    5.8089   -1.4222    3.6615 H   0  0  0  0  0  0  0  0  0  0  0  0
    2.9747   -1.2744    1.4793 H   0  0  0  0  0  0  0  0  0  0  0  0
    1.8740   -2.7849   -0.0484 H   0  0  0  0  0  0  0  0  0  0  0  0
    2.9728   -4.0875    0.3244 H   0  0  0  0  0  0  0  0  0  0  0  0
    2.0233   -1.9446    3.4867 H   0  0  0  0  0  0  0  0  0  0  0  0
    1.0256   -2.5726    2.2378 H   0  0  0  0  0  0  0  0  0  0  0  0
    1.3840   -4.1454    4.0804 H   0  0  0  0  0  0  0  0  0  0  0  0
    2.0175   -5.9058    2.7477 H   0  0  0  0  0  0  0  0  0  0  0  0
    3.5375   -3.4269    4.6757 H   0  0  0  0  0  0  0  0  0  0  0  0
    5.6148   -3.7269    3.6046 H   0  0  0  0  0  0  0  0  0  0  0  0
    4.2615   -5.4547    1.5547 H   0  0  0  0  0  0  0  0  0  0  0  0
    5.9240   -4.9169    1.4766 H   0  0  0  0  0  0  0  0  0  0  0  0
    5.7574   -7.1495    2.3773 H   0  0  0  0  0  0  0  0  0  0  0  0
    7.1885   -6.7944    3.9545 H   0  0  0  0  0  0  0  0  0  0  0  0
    5.2692   -7.0728    4.9670 H   0  0  0  0  0  0  0  0  0  0  0  0
    5.0763   -5.7455    6.7315 H   0  0  0  0  0  0  0  0  0  0  0  0
    4.4151   -4.1459    6.5478 H   0  0  0  0  0  0  0  0  0  0  0  0
    5.7899   -4.6478    5.5848 H   0  0  0  0  0  0  0  0  0  0  0  0
    2.9043   -6.1815    6.7630 H   0  0  0  0  0  0  0  0  0  0  0  0
    1.9445   -5.1124    5.8645 H   0  0  0  0  0  0  0  0  0  0  0  0
    0.9888   -7.3234    5.8422 H   0  0  0  0  0  0  0  0  0  0  0  0
    1.3836   -6.8380    4.2382 H   0  0  0  0  0  0  0  0  0  0  0  0
    3.7697   -9.7269    6.4358 H   0  0  0  0  0  0  0  0  0  0  0  0
    2.6307   -8.6414    7.2020 H   0  0  0  0  0  0  0  0  0  0  0  0
    4.1716   -8.0421    6.6448 H   0  0  0  0  0  0  0  0  0  0  0  0
    2.4947  -10.5139    4.7121 H   0  0  0  0  0  0  0  0  0  0  0  0
   -0.0379   -9.2728    5.7838 H   0  0  0  0  0  0  0  0  0  0  0  0
    1.1508  -10.2429    6.6539 H   0  0  0  0  0  0  0  0  0  0  0  0
    0.2324  -10.9537    5.3636 H   0  0  0  0  0  0  0  0  0  0  0  0
    0.9794  -10.7606    3.0331 H   0  0  0  0  0  0  0  0  0  0  0  0
    0.2284   -7.8447    2.7540 H   0  0  0  0  0  0  0  0  0  0  0  0
   -0.7462   -9.0233    3.6372 H   0  0  0  0  0  0  0  0  0  0  0  0
   -0.4142   -9.2428    1.9411 H   0  0  0  0  0  0  0  0  0  0  0  0
    3.1040  -10.3176    2.1818 H   0  0  0  0  0  0  0  0  0  0  0  0
    2.0140   -9.4273    1.1799 H   0  0  0  0  0  0  0  0  0  0  0  0
    3.9227   -8.0418    1.7133 H   0  0  0  0  0  0  0  0  0  0  0  0
    2.4831   -7.3663    2.3617 H   0  0  0  0  0  0  0  0  0  0  0  0
    4.4756  -10.2474    3.9222 H   0  0  0  0  0  0  0  0  0  0  0  0
    5.5182   -9.2126    4.8503 H   0  0  0  0  0  0  0  0  0  0  0  0
    5.5792   -9.1895    3.1049 H   0  0  0  0  0  0  0  0  0  0  0  0
  1  2  1  0
  1 35  1  0
  1 36  1  0
  1 37  1  0
  2  3  2  0
  2  4  1  0
  4  5  1  0
  5 11  1  0
  5  6  1  0
  5 38  1  6
  6  7  1  0
  6 39  1  0
  6 40  1  0
  7  8  1  0
  7 41  1  0
  7 42  1  0
  8 16  1  0
  8  9  1  1
  8 10  1  0
  9 43  1  0
  9 44  1  0
  9 45  1  0
 10 11  1  0
 10 12  1  0
 10 46  1  6
 11 47  1  0
 11 48  1  0
 12 13  1  0
 12 49  1  0
 12 50  1  0
 13 14  1  0
 13 15  1  0
 13 51  1  1
 14 52  1  0
 15 21  1  0
 15 16  1  0
 15 53  1  1
 16 17  1  0
 16 54  1  1
 17 18  1  0
 17 55  1  0
 17 56  1  0
 18 19  1  0
 18 20  1  0
 18 57  1  6
 19 58  1  0
 20 33  1  0
 20 21  1  0
 20 59  1  1
 21 22  1  1
 21 23  1  0
 22 60  1  0
 22 61  1  0
 22 62  1  0
 23 24  1  0
 23 63  1  0
 23 64  1  0
 24 25  1  0
 24 65  1  0
 24 66  1  0
 25 33  1  0
 25 26  1  1
 25 27  1  0
 26 67  1  0
 26 68  1  0
 26 69  1  0
 27 28  1  0
 27 29  1  0
 27 70  1  6
 28 71  1  0
 28 72  1  0
 28 73  1  0
 29 30  1  0
 29 31  1  0
 29 74  1  6
 30 75  1  0
 30 76  1  0
 30 77  1  0
 31 32  1  0
 31 78  1  0
 31 79  1  0
 32 33  1  0
 32 80  1  0
 32 81  1  0
 33 34  1  6
 34 82  1  0
 34 83  1  0
 34 84  1  0
M  END
>  <i_m_ct_stereo_status>  (315) 
1

>  <s_m_source_file>  (315) 
/var/tmp/pbs.5076255.sched01/tmp7zsp0c9b/86_oh4d05k.sdf

>  <i_m_source_file_index>  (315) 
42

>  <i_lp_mmshare_version>  (315) 
48012

>  <i_f3d_flags>  (315) 
0

>  <s_epik_input>  (315) 
W0NIM11DKD1PKU9bQ0BIXShbQ0gyXVtDSDJdMSlbQ0gyXVtDQEhdKFtDQF0xMltDSDNdKVtDSDJdW0NAQEhdKFtPSF0pW0NAQEhdM1tDQEhdMltDSDJdW0NAQEhdKFtPSF0pW0NASF00W0NAXTMoW0NIM10pW0NIMl1bQ0gyXVtDQF01KFtDSDNdKVtDQEBdNChbQ0gzXSlbQ0gyXVtDSDJdW0NASF0oW0NIM10pW0NAQEhdNVtDSDNd

>  <s_epik_cmdline>  (315) 
J2VwaWtfcHl0aG9uJywgJy1waHQnLCAnMi4wJywgJy1waCcsICc3LjAnLCAnLXRuJywgJzgnLCAnLW1hJywgJzIwMCcsICctaW1hZScsICc8aW5maWxlLm1hZT4nLCAnLW9tYWUnLCAnPG91dGZpbGUubWFlPic=

>  <r_lp_tautomer_probability>  (315) 
1

>  <r_epik_Ionization_Penalty>  (315) 
4.66479e-06

>  <r_epik_Ionization_Penalty_Charging>  (315) 
0

>  <r_epik_Ionization_Penalty_Neutral>  (315) 
4.66479e-06

>  <r_epik_State_Penalty>  (315) 
-0

>  <r_epik_Charging_Adjusted_Penalty>  (315) 
0

>  <i_epik_Tot_Q>  (315) 
0

>  <i_epik_Tot_abs_Q>  (315) 
0

>  <s_epik_Chemistry_Notes>  (315) 
This compound has an ester and may undergo hydrolysis at high or low pH.

>  <s_lp_Force_Field>  (315) 
OPLS3e

>  <r_lp_Energy>  (315) 
101.665

>  <b_lp_Chiralities_Consistent>  (315) 
1

>  <s_lp_Variant>  (315) 
87:0-1

>  <s_i_glide_gridfile>  (315) 
pfpi4k_grid

>  <i_i_glide_lignum>  (315) 
42

>  <i_i_glide_rotatable_bonds>  (315) 
4

>  <r_i_docking_score>  (315) 
-3.03315

>  <r_i_glide_ligand_efficiency>  (315) 
-0.0892102

>  <r_i_glide_ligand_efficiency_sa>  (315) 
-0.289006

>  <r_i_glide_ligand_efficiency_ln>  (315) 
-0.670107

>  <r_i_glide_gscore>  (315) 
-3.03315

>  <r_i_glide_lipo>  (315) 
-0.419575

>  <r_i_glide_hbond>  (315) 
-0.32

>  <r_i_glide_metal>  (315) 
-0

>  <r_i_glide_rewards>  (315) 
-0.332623

>  <r_i_glide_evdw>  (315) 
-33.042

>  <r_i_glide_ecoul>  (315) 
-2.65766

>  <r_i_glide_erotb>  (315) 
0.0898007

>  <r_i_glide_esite>  (315) 
0

>  <r_i_glide_emodel>  (315) 
-39.1704

>  <r_i_glide_energy>  (315) 
-35.6996

>  <r_i_glide_einternal>  (315) 
6.34554

>  <r_i_glide_intrahb_reward>  (315) 
-0

>  <i_i_glide_confnum>  (315) 
5

>  <i_i_glide_posenum>  (315) 
40

>  <r_i_glide_eff_state_penalty>  (315) 
0

>  <ligand_id>  (315) 
87

>  <original_smiles>  (315) 
CC(=O)OC1CCC2(C)C(C1)CC(O)C1C2CC(O)C2C1(C)CCC1(C)C(C)C(C)CCC21C

>  <smiles>  (315) 
[H]OC1([H])C([H])([H])C2([H])C([H])([H])C([H])(OC(=O)C([H])([H])[H])C([H])([H])C([H])([H])C2(C([H])([H])[H])C2([H])C([H])([H])C([H])(O[H])C3([H])C(C([H])([H])[H])(C([H])([H])C([H])([H])C4(C([H])([H])[H])C([H])(C([H])([H])[H])C([H])(C([H])([H])[H])C([H])([H])C([H])([H])C34C([H])([H])[H])C12[H]

$$$$
87:0:2
     RDKit          3D

 84 88  0  0  1  0  0  0  0  0999 V2000
    3.1502   -1.3554   -2.6273 C   0  0  0  0  0  0  0  0  0  0  0  0
    4.3079   -1.6610   -1.7001 C   0  0  0  0  0  0  0  0  0  0  0  0
    5.4172   -1.1303   -1.8666 O   0  0  0  0  0  0  0  0  0  0  0  0
    4.0075   -2.5898   -0.7676 O   0  0  0  0  0  0  0  0  0  0  0  0
    5.0302   -3.1449    0.0436 C   0  0  2  0  0  0  0  0  0  0  0  0
    5.4500   -4.4533   -0.6081 C   0  0  0  0  0  0  0  0  0  0  0  0
    6.5575   -5.1273    0.2141 C   0  0  0  0  0  0  0  0  0  0  0  0
    6.3293   -5.3483    1.7228 C   0  0  1  0  0  0  0  0  0  0  0  0
    7.7749   -5.4608    2.2908 C   0  0  0  0  0  0  0  0  0  0  0  0
    5.6674   -4.0631    2.3106 C   0  0  1  0  0  0  0  0  0  0  0  0
    4.5295   -3.4650    1.4513 C   0  0  0  0  0  0  0  0  0  0  0  0
    5.2712   -4.2272    3.7919 C   0  0  0  0  0  0  0  0  0  0  0  0
    4.4492   -5.4837    4.1013 C   0  0  1  0  0  0  0  0  0  0  0  0
    3.1570   -5.2852    3.6077 O   0  0  0  0  0  0  0  0  0  0  0  0
    5.1563   -6.7703    3.5883 C   0  0  2  0  0  0  0  0  0  0  0  0
    5.5690   -6.6809    2.0876 C   0  0  1  0  0  0  0  0  0  0  0  0
    4.3971   -7.1211    1.1952 C   0  0  0  0  0  0  0  0  0  0  0  0
    3.9607   -8.5730    1.4829 C   0  0  1  0  0  0  0  0  0  0  0  0
    4.9424   -9.4457    0.9606 O   0  0  0  0  0  0  0  0  0  0  0  0
    3.6312   -8.9022    2.9718 C   0  0  1  0  0  0  0  0  0  0  0  0
    4.6019   -8.1948    4.0057 C   0  0  1  0  0  0  0  0  0  0  0  0
    5.8608   -9.1077    4.1314 C   0  0  0  0  0  0  0  0  0  0  0  0
    4.0389   -8.2163    5.4626 C   0  0  0  0  0  0  0  0  0  0  0  0
    2.5158   -8.1032    5.5786 C   0  0  0  0  0  0  0  0  0  0  0  0
    1.7774   -9.2196    4.8201 C   0  0  1  0  0  0  0  0  0  0  0  0
    2.3120  -10.5942    5.3346 C   0  0  0  0  0  0  0  0  0  0  0  0
    0.2312   -9.2049    5.1303 C   0  0  1  0  0  0  0  0  0  0  0  0
   -0.1562   -9.3865    6.6196 C   0  0  0  0  0  0  0  0  0  0  0  0
   -0.5962   -8.0871    4.4497 C   0  0  1  0  0  0  0  0  0  0  0  0
   -0.5380   -6.6885    5.0946 C   0  0  0  0  0  0  0  0  0  0  0  0
   -0.2905   -8.0219    2.9517 C   0  0  0  0  0  0  0  0  0  0  0  0
    1.2155   -7.8955    2.6882 C   0  0  0  0  0  0  0  0  0  0  0  0
    2.0735   -9.0565    3.2760 C   0  0  1  0  0  0  0  0  0  0  0  0
    1.6063  -10.3323    2.5317 C   0  0  0  0  0  0  0  0  0  0  0  0
    2.6761   -2.2851   -2.9469 H   0  0  0  0  0  0  0  0  0  0  0  0
    3.4715   -0.7944   -3.5061 H   0  0  0  0  0  0  0  0  0  0  0  0
    2.4147   -0.7496   -2.1063 H   0  0  0  0  0  0  0  0  0  0  0  0
    5.8973   -2.4789    0.1134 H   0  0  0  0  0  0  0  0  0  0  0  0
    4.5807   -5.0976   -0.7424 H   0  0  0  0  0  0  0  0  0  0  0  0
    5.8118   -4.2532   -1.6140 H   0  0  0  0  0  0  0  0  0  0  0  0
    6.7692   -6.1064   -0.2284 H   0  0  0  0  0  0  0  0  0  0  0  0
    7.4727   -4.5548    0.0501 H   0  0  0  0  0  0  0  0  0  0  0  0
    7.8087   -5.5817    3.3730 H   0  0  0  0  0  0  0  0  0  0  0  0
    8.3902   -4.5900    2.0619 H   0  0  0  0  0  0  0  0  0  0  0  0
    8.3084   -6.3216    1.8667 H   0  0  0  0  0  0  0  0  0  0  0  0
    6.4268   -3.2821    2.2900 H   0  0  0  0  0  0  0  0  0  0  0  0
    4.1415   -2.5563    1.9183 H   0  0  0  0  0  0  0  0  0  0  0  0
    3.6956   -4.1547    1.3521 H   0  0  0  0  0  0  0  0  0  0  0  0
    6.1720   -4.2855    4.3965 H   0  0  0  0  0  0  0  0  0  0  0  0
    4.7606   -3.3270    4.1482 H   0  0  0  0  0  0  0  0  0  0  0  0
    4.3536   -5.5117    5.1914 H   0  0  0  0  0  0  0  0  0  0  0  0
    3.2198   -5.2221    2.6554 H   0  0  0  0  0  0  0  0  0  0  0  0
    6.0907   -6.7026    4.1381 H   0  0  0  0  0  0  0  0  0  0  0  0
    6.3184   -7.4493    1.9159 H   0  0  0  0  0  0  0  0  0  0  0  0
    3.5495   -6.4585    1.3255 H   0  0  0  0  0  0  0  0  0  0  0  0
    4.6687   -7.0684    0.1397 H   0  0  0  0  0  0  0  0  0  0  0  0
    3.0959   -8.7683    0.8623 H   0  0  0  0  0  0  0  0  0  0  0  0
    4.5911  -10.3398    0.8771 H   0  0  0  0  0  0  0  0  0  0  0  0
    3.9381   -9.9472    3.0370 H   0  0  0  0  0  0  0  0  0  0  0  0
    5.6109  -10.1152    4.4792 H   0  0  0  0  0  0  0  0  0  0  0  0
    6.5829   -8.7155    4.8520 H   0  0  0  0  0  0  0  0  0  0  0  0
    6.3848   -9.2378    3.1860 H   0  0  0  0  0  0  0  0  0  0  0  0
    4.3505   -9.1156    6.0022 H   0  0  0  0  0  0  0  0  0  0  0  0
    4.4844   -7.4250    6.0494 H   0  0  0  0  0  0  0  0  0  0  0  0
    2.2513   -8.1010    6.6382 H   0  0  0  0  0  0  0  0  0  0  0  0
    2.2268   -7.1206    5.2181 H   0  0  0  0  0  0  0  0  0  0  0  0
    1.6695  -11.4279    5.0573 H   0  0  0  0  0  0  0  0  0  0  0  0
    2.3758  -10.6031    6.4248 H   0  0  0  0  0  0  0  0  0  0  0  0
    3.3085  -10.8327    4.9696 H   0  0  0  0  0  0  0  0  0  0  0  0
   -0.1655  -10.1160    4.6922 H   0  0  0  0  0  0  0  0  0  0  0  0
    0.1871   -8.5751    7.2600 H   0  0  0  0  0  0  0  0  0  0  0  0
    0.2303  -10.3199    7.0268 H   0  0  0  0  0  0  0  0  0  0  0  0
   -1.2404   -9.4620    6.7212 H   0  0  0  0  0  0  0  0  0  0  0  0
   -1.6379   -8.4013    4.5352 H   0  0  0  0  0  0  0  0  0  0  0  0
    0.3657   -6.1358    4.8550 H   0  0  0  0  0  0  0  0  0  0  0  0
   -0.5946   -6.7101    6.1827 H   0  0  0  0  0  0  0  0  0  0  0  0
   -1.3787   -6.0946    4.7337 H   0  0  0  0  0  0  0  0  0  0  0  0
   -0.6978   -8.8969    2.4541 H   0  0  0  0  0  0  0  0  0  0  0  0
   -0.8104   -7.1743    2.5095 H   0  0  0  0  0  0  0  0  0  0  0  0
    1.3440   -7.8051    1.6134 H   0  0  0  0  0  0  0  0  0  0  0  0
    1.5435   -6.9595    3.0972 H   0  0  0  0  0  0  0  0  0  0  0  0
    0.5871  -10.6471    2.7646 H   0  0  0  0  0  0  0  0  0  0  0  0
    2.2334  -11.2057    2.7401 H   0  0  0  0  0  0  0  0  0  0  0  0
    1.6295  -10.1974    1.4534 H   0  0  0  0  0  0  0  0  0  0  0  0
  1  2  1  0
  1 35  1  0
  1 36  1  0
  1 37  1  0
  2  3  2  0
  2  4  1  0
  4  5  1  0
  5 11  1  0
  5  6  1  0
  5 38  1  1
  6  7  1  0
  6 39  1  0
  6 40  1  0
  7  8  1  0
  7 41  1  0
  7 42  1  0
  8 16  1  0
  8  9  1  1
  8 10  1  0
  9 43  1  0
  9 44  1  0
  9 45  1  0
 10 11  1  0
 10 12  1  0
 10 46  1  1
 11 47  1  0
 11 48  1  0
 12 13  1  0
 12 49  1  0
 12 50  1  0
 13 14  1  0
 13 15  1  0
 13 51  1  1
 14 52  1  0
 15 21  1  0
 15 16  1  0
 15 53  1  1
 16 17  1  0
 16 54  1  1
 17 18  1  0
 17 55  1  0
 17 56  1  0
 18 19  1  0
 18 20  1  0
 18 57  1  6
 19 58  1  0
 20 33  1  0
 20 21  1  0
 20 59  1  6
 21 22  1  1
 21 23  1  0
 22 60  1  0
 22 61  1  0
 22 62  1  0
 23 24  1  0
 23 63  1  0
 23 64  1  0
 24 25  1  0
 24 65  1  0
 24 66  1  0
 25 33  1  0
 25 26  1  1
 25 27  1  0
 26 67  1  0
 26 68  1  0
 26 69  1  0
 27 28  1  0
 27 29  1  0
 27 70  1  6
 28 71  1  0
 28 72  1  0
 28 73  1  0
 29 30  1  0
 29 31  1  0
 29 74  1  6
 30 75  1  0
 30 76  1  0
 30 77  1  0
 31 32  1  0
 31 78  1  0
 31 79  1  0
 32 33  1  0
 32 80  1  0
 32 81  1  0
 33 34  1  6
 34 82  1  0
 34 83  1  0
 34 84  1  0
M  END
>  <i_m_ct_stereo_status>  (316) 
1

>  <s_m_source_file>  (316) 
/var/tmp/pbs.5076255.sched01/tmp7zsp0c9b/86_oh4d05k.sdf

>  <i_m_source_file_index>  (316) 
42

>  <i_lp_mmshare_version>  (316) 
48012

>  <i_f3d_flags>  (316) 
0

>  <s_epik_input>  (316) 
W0NIM11DKD1PKU9bQ0BIXShbQ0gyXVtDSDJdMSlbQ0gyXVtDQEhdKFtDQF0xMltDSDNdKVtDSDJdW0NAQEhdKFtPSF0pW0NAQEhdM1tDQEhdMltDSDJdW0NAQEhdKFtPSF0pW0NASF00W0NAXTMoW0NIM10pW0NIMl1bQ0gyXVtDQF01KFtDSDNdKVtDQEBdNChbQ0gzXSlbQ0gyXVtDSDJdW0NASF0oW0NIM10pW0NAQEhdNVtDSDNd

>  <s_epik_cmdline>  (316) 
J2VwaWtfcHl0aG9uJywgJy1waHQnLCAnMi4wJywgJy1waCcsICc3LjAnLCAnLXRuJywgJzgnLCAnLW1hJywgJzIwMCcsICctaW1hZScsICc8aW5maWxlLm1hZT4nLCAnLW9tYWUnLCAnPG91dGZpbGUubWFlPic=

>  <r_lp_tautomer_probability>  (316) 
1

>  <r_epik_Ionization_Penalty>  (316) 
4.66479e-06

>  <r_epik_Ionization_Penalty_Charging>  (316) 
0

>  <r_epik_Ionization_Penalty_Neutral>  (316) 
4.66479e-06

>  <r_epik_State_Penalty>  (316) 
-0

>  <r_epik_Charging_Adjusted_Penalty>  (316) 
0

>  <i_epik_Tot_Q>  (316) 
0

>  <i_epik_Tot_abs_Q>  (316) 
0

>  <s_epik_Chemistry_Notes>  (316) 
This compound has an ester and may undergo hydrolysis at high or low pH.

>  <s_lp_Force_Field>  (316) 
OPLS3e

>  <r_lp_Energy>  (316) 
101.665

>  <b_lp_Chiralities_Consistent>  (316) 
1

>  <s_lp_Variant>  (316) 
87:0-1

>  <s_i_glide_gridfile>  (316) 
pfpi4k_grid

>  <i_i_glide_lignum>  (316) 
42

>  <i_i_glide_rotatable_bonds>  (316) 
4

>  <r_i_docking_score>  (316) 
-2.99257

>  <r_i_glide_ligand_efficiency>  (316) 
-0.0880168

>  <r_i_glide_ligand_efficiency_sa>  (316) 
-0.28514

>  <r_i_glide_ligand_efficiency_ln>  (316) 
-0.661143

>  <r_i_glide_gscore>  (316) 
-2.99257

>  <r_i_glide_lipo>  (316) 
-0.585176

>  <r_i_glide_hbond>  (316) 
-0.166921

>  <r_i_glide_metal>  (316) 
-0

>  <r_i_glide_rewards>  (316) 
-0.172394

>  <r_i_glide_evdw>  (316) 
-28.4843

>  <r_i_glide_ecoul>  (316) 
-4.63099

>  <r_i_glide_erotb>  (316) 
0.0898007

>  <r_i_glide_esite>  (316) 
-0.039018

>  <r_i_glide_emodel>  (316) 
-38.8172

>  <r_i_glide_energy>  (316) 
-33.1153

>  <r_i_glide_einternal>  (316) 
1.62599

>  <r_i_glide_intrahb_reward>  (316) 
-0

>  <i_i_glide_confnum>  (316) 
5

>  <i_i_glide_posenum>  (316) 
23

>  <r_i_glide_eff_state_penalty>  (316) 
0

>  <ligand_id>  (316) 
87

>  <original_smiles>  (316) 
CC(=O)OC1CCC2(C)C(C1)CC(O)C1C2CC(O)C2C1(C)CCC1(C)C(C)C(C)CCC21C

>  <smiles>  (316) 
[H]OC1([H])C([H])([H])C2([H])C([H])([H])C([H])(OC(=O)C([H])([H])[H])C([H])([H])C([H])([H])C2(C([H])([H])[H])C2([H])C([H])([H])C([H])(O[H])C3([H])C(C([H])([H])[H])(C([H])([H])C([H])([H])C4(C([H])([H])[H])C([H])(C([H])([H])[H])C([H])(C([H])([H])[H])C([H])([H])C([H])([H])C34C([H])([H])[H])C12[H]

$$$$
88:0:0
     RDKit          3D

 29 32  0  0  1  0  0  0  0  0999 V2000
    8.4082   -2.6285   -0.8921 C   0  0  0  0  0  0  0  0  0  0  0  0
    7.2569   -1.9149   -0.4439 O   0  0  0  0  0  0  0  0  0  0  0  0
    6.0215   -2.4926   -0.7557 C   0  0  1  0  0  0  0  0  0  0  0  0
    5.8158   -3.8705   -0.0915 C   0  0  0  0  0  0  0  0  0  0  0  0
    4.4204   -4.2201   -0.8261 C   0  0  2  0  0  0  0  0  0  0  0  0
    3.5176   -2.9293   -1.9356 C   0  0  1  0  0  0  0  0  0  0  0  0
    3.9320   -1.3119   -1.6375 C   0  0  0  0  0  0  0  0  0  0  0  0
    4.8056   -1.5131   -0.3750 C   0  0  1  0  0  0  0  0  0  0  0  0
    3.8153   -2.3292    0.4890 C   0  0  1  0  0  0  0  0  0  0  0  0
    2.6203   -1.6656    0.8863 O   0  0  0  0  0  0  0  0  0  0  0  0
    3.5096   -3.4991   -0.5623 C   0  0  1  0  0  0  0  0  0  0  0  0
    4.5736   -3.6493   -2.1577 C   0  0  2  0  0  0  0  0  0  0  0  0
    5.8816   -2.8469   -2.1100 O   0  0  0  0  0  0  0  0  0  0  0  0
    3.7927   -3.2663   -3.3234 C   0  0  0  0  0  0  0  0  0  0  0  0
    4.2121   -2.4240   -4.1043 O   0  0  0  0  0  0  0  0  0  0  0  0
    9.3090   -2.1391   -0.5267 H   0  0  0  0  0  0  0  0  0  0  0  0
    8.4487   -2.6426   -1.9809 H   0  0  0  0  0  0  0  0  0  0  0  0
    8.4813   -3.6571   -0.5396 H   0  0  0  0  0  0  0  0  0  0  0  0
    6.5568   -4.5982   -0.4036 H   0  0  0  0  0  0  0  0  0  0  0  0
    5.8344   -3.8407    0.9957 H   0  0  0  0  0  0  0  0  0  0  0  0
    4.1120   -5.2776   -0.7197 H   0  0  0  0  0  0  0  0  0  0  0  0
    2.3991   -2.9239   -2.0884 H   0  0  0  0  0  0  0  0  0  0  0  0
    4.4867   -0.8058   -2.4239 H   0  0  0  0  0  0  0  0  0  0  0  0
    3.0453   -0.7188   -1.4455 H   0  0  0  0  0  0  0  0  0  0  0  0
    5.1435   -0.5865    0.0938 H   0  0  0  0  0  0  0  0  0  0  0  0
    4.2407   -2.6647    1.4314 H   0  0  0  0  0  0  0  0  0  0  0  0
    2.0698   -1.4436    0.1303 H   0  0  0  0  0  0  0  0  0  0  0  0
    2.6304   -4.1300   -0.3194 H   0  0  0  0  0  0  0  0  0  0  0  0
    4.8987   -4.6150   -2.6666 H   0  0  0  0  0  0  0  0  0  0  0  0
  1  2  1  0
  1 16  1  0
  1 17  1  0
  1 18  1  0
  3  2  1  6
  3  8  1  0
  3 13  1  0
  3  4  1  0
  4  5  1  0
  4 19  1  0
  4 20  1  0
  5 11  1  0
  5  6  1  0
  5 21  1  6
  6 14  1  0
  6  7  1  0
  6 22  1  6
  7  8  1  0
  7 23  1  0
  7 24  1  0
  8  9  1  0
  8 25  1  1
  9 10  1  0
  9 11  1  0
  9 26  1  1
 10 27  1  0
 11 12  1  0
 11 28  1  6
 12 13  1  0
 12 14  1  0
 12 29  1  6
 14 15  2  0
M  END
>  <i_m_ct_stereo_status>  (317) 
1

>  <s_m_source_file>  (317) 
/var/tmp/pbs.5076255.sched01/tmp7zsp0c9b/86_oh4d05k.sdf

>  <i_m_source_file_index>  (317) 
43

>  <i_lp_mmshare_version>  (317) 
48012

>  <i_f3d_flags>  (317) 
0

>  <s_epik_input>  (317) 
W0NIM11PW0NAXTEyW0NASF0zW0NIMl1bQ0BASF00W0NAQEhdKFtDSDJdMSlbQ0BASF0oW0NAQEhdM1tPSF0pW0NASF0oTzIpQzQ9Tw==

>  <s_epik_cmdline>  (317) 
J2VwaWtfcHl0aG9uJywgJy1waHQnLCAnMi4wJywgJy1waCcsICc3LjAnLCAnLXRuJywgJzgnLCAnLW1hJywgJzIwMCcsICctaW1hZScsICc8aW5maWxlLm1hZT4nLCAnLW9tYWUnLCAnPG91dGZpbGUubWFlPic=

>  <r_lp_tautomer_probability>  (317) 
1

>  <r_epik_Ionization_Penalty>  (317) 
4.34138e-08

>  <r_epik_Ionization_Penalty_Charging>  (317) 
0

>  <r_epik_Ionization_Penalty_Neutral>  (317) 
4.34138e-08

>  <r_epik_State_Penalty>  (317) 
-0

>  <r_epik_Charging_Adjusted_Penalty>  (317) 
0

>  <i_epik_Tot_Q>  (317) 
0

>  <i_epik_Tot_abs_Q>  (317) 
0

>  <s_lp_Force_Field>  (317) 
OPLS3e

>  <r_lp_Energy>  (317) 
525.562

>  <b_lp_Chiralities_Consistent>  (317) 
1

>  <s_lp_Variant>  (317) 
88:0-1

>  <s_i_glide_gridfile>  (317) 
pfpi4k_grid

>  <i_i_glide_lignum>  (317) 
43

>  <i_i_glide_rotatable_bonds>  (317) 
2

>  <r_i_docking_score>  (317) 
-5.23197

>  <r_i_glide_ligand_efficiency>  (317) 
-0.348798

>  <r_i_glide_ligand_efficiency_sa>  (317) 
-0.86021

>  <r_i_glide_ligand_efficiency_ln>  (317) 
-1.41098

>  <r_i_glide_gscore>  (317) 
-5.23197

>  <r_i_glide_lipo>  (317) 
-0.0985917

>  <r_i_glide_hbond>  (317) 
-0.608

>  <r_i_glide_metal>  (317) 
-0

>  <r_i_glide_rewards>  (317) 
-2.14099

>  <r_i_glide_evdw>  (317) 
-16.109

>  <r_i_glide_ecoul>  (317) 
-10.4021

>  <r_i_glide_erotb>  (317) 
0

>  <r_i_glide_esite>  (317) 
-0.0186188

>  <r_i_glide_emodel>  (317) 
-35.217

>  <r_i_glide_energy>  (317) 
-26.5111

>  <r_i_glide_einternal>  (317) 
2.23572

>  <r_i_glide_intrahb_reward>  (317) 
-0

>  <i_i_glide_confnum>  (317) 
2

>  <i_i_glide_posenum>  (317) 
26

>  <r_i_glide_eff_state_penalty>  (317) 
0

>  <ligand_id>  (317) 
88

>  <original_smiles>  (317) 
COC12CC3C4CC1C(O)C3C(O2)C4=O

>  <smiles>  (317) 
[H]OC1([H])C2([H])C([H])([H])C3([H])C(=O)C4([H])OC2(OC([H])([H])[H])C([H])([H])C3([H])C41[H]

$$$$
88:0:1
     RDKit          3D

 29 32  0  0  1  0  0  0  0  0999 V2000
    7.7242   -2.5938    0.3918 C   0  0  0  0  0  0  0  0  0  0  0  0
    6.9675   -1.7250   -0.4293 O   0  0  0  0  0  0  0  0  0  0  0  0
    5.6769   -2.1458   -0.7476 C   0  0  1  0  0  0  0  0  0  0  0  0
    4.9317   -1.0044   -1.4506 C   0  0  0  0  0  0  0  0  0  0  0  0
    3.4828   -1.7396   -1.5211 C   0  0  2  0  0  0  0  0  0  0  0  0
    3.2739   -3.5568   -0.9354 C   0  0  1  0  0  0  0  0  0  0  0  0
    4.7109   -4.4800   -0.9273 C   0  0  0  0  0  0  0  0  0  0  0  0
    5.6424   -3.4684   -1.6334 C   0  0  1  0  0  0  0  0  0  0  0  0
    4.8143   -3.1469   -2.8951 C   0  0  1  0  0  0  0  0  0  0  0  0
    4.6148   -4.2175   -3.7717 O   0  0  0  0  0  0  0  0  0  0  0  0
    3.4469   -2.7370   -2.1633 C   0  0  1  0  0  0  0  0  0  0  0  0
    3.4175   -2.4551   -0.2664 C   0  0  2  0  0  0  0  0  0  0  0  0
    4.8219   -2.3031    0.3611 O   0  0  0  0  0  0  0  0  0  0  0  0
    2.6991   -3.5250    0.4011 C   0  0  0  0  0  0  0  0  0  0  0  0
    3.2192   -4.1355    1.3150 O   0  0  0  0  0  0  0  0  0  0  0  0
    8.6911   -2.1317    0.5965 H   0  0  0  0  0  0  0  0  0  0  0  0
    7.9212   -3.5473   -0.0932 H   0  0  0  0  0  0  0  0  0  0  0  0
    7.2174   -2.7805    1.3368 H   0  0  0  0  0  0  0  0  0  0  0  0
    4.8731   -0.1524   -0.7832 H   0  0  0  0  0  0  0  0  0  0  0  0
    5.3758   -0.6836   -2.3868 H   0  0  0  0  0  0  0  0  0  0  0  0
    2.6440   -1.0805   -1.8092 H   0  0  0  0  0  0  0  0  0  0  0  0
    2.4813   -4.2472   -1.3400 H   0  0  0  0  0  0  0  0  0  0  0  0
    5.0874   -4.7544    0.0487 H   0  0  0  0  0  0  0  0  0  0  0  0
    4.6211   -5.3912   -1.4908 H   0  0  0  0  0  0  0  0  0  0  0  0
    6.6308   -3.8554   -1.8709 H   0  0  0  0  0  0  0  0  0  0  0  0
    5.2547   -2.3759   -3.5129 H   0  0  0  0  0  0  0  0  0  0  0  0
    4.0961   -4.8930   -3.3161 H   0  0  0  0  0  0  0  0  0  0  0  0
    2.5596   -2.6987   -2.8269 H   0  0  0  0  0  0  0  0  0  0  0  0
    2.8027   -1.6795    0.2949 H   0  0  0  0  0  0  0  0  0  0  0  0
  1  2  1  0
  1 16  1  0
  1 17  1  0
  1 18  1  0
  3  2  1  1
  3  8  1  0
  3 13  1  0
  3  4  1  0
  4  5  1  0
  4 19  1  0
  4 20  1  0
  5 11  1  0
  5  6  1  0
  5 21  1  6
  6 14  1  0
  6  7  1  0
  6 22  1  6
  7  8  1  0
  7 23  1  0
  7 24  1  0
  8  9  1  0
  8 25  1  6
  9 10  1  0
  9 11  1  0
  9 26  1  6
 10 27  1  0
 11 12  1  0
 11 28  1  6
 12 13  1  0
 12 14  1  0
 12 29  1  6
 14 15  2  0
M  END
>  <i_m_ct_stereo_status>  (318) 
1

>  <s_m_source_file>  (318) 
/var/tmp/pbs.5076255.sched01/tmp7zsp0c9b/86_oh4d05k.sdf

>  <i_m_source_file_index>  (318) 
43

>  <i_lp_mmshare_version>  (318) 
48012

>  <i_f3d_flags>  (318) 
0

>  <s_epik_input>  (318) 
W0NIM11PW0NAXTEyW0NASF0zW0NIMl1bQ0BASF00W0NAQEhdKFtDSDJdMSlbQ0BASF0oW0NAQEhdM1tPSF0pW0NASF0oTzIpQzQ9Tw==

>  <s_epik_cmdline>  (318) 
J2VwaWtfcHl0aG9uJywgJy1waHQnLCAnMi4wJywgJy1waCcsICc3LjAnLCAnLXRuJywgJzgnLCAnLW1hJywgJzIwMCcsICctaW1hZScsICc8aW5maWxlLm1hZT4nLCAnLW9tYWUnLCAnPG91dGZpbGUubWFlPic=

>  <r_lp_tautomer_probability>  (318) 
1

>  <r_epik_Ionization_Penalty>  (318) 
4.34138e-08

>  <r_epik_Ionization_Penalty_Charging>  (318) 
0

>  <r_epik_Ionization_Penalty_Neutral>  (318) 
4.34138e-08

>  <r_epik_State_Penalty>  (318) 
-0

>  <r_epik_Charging_Adjusted_Penalty>  (318) 
0

>  <i_epik_Tot_Q>  (318) 
0

>  <i_epik_Tot_abs_Q>  (318) 
0

>  <s_lp_Force_Field>  (318) 
OPLS3e

>  <r_lp_Energy>  (318) 
525.562

>  <b_lp_Chiralities_Consistent>  (318) 
1

>  <s_lp_Variant>  (318) 
88:0-1

>  <s_i_glide_gridfile>  (318) 
pfpi4k_grid

>  <i_i_glide_lignum>  (318) 
43

>  <i_i_glide_rotatable_bonds>  (318) 
2

>  <r_i_docking_score>  (318) 
-4.95383

>  <r_i_glide_ligand_efficiency>  (318) 
-0.330255

>  <r_i_glide_ligand_efficiency_sa>  (318) 
-0.81448

>  <r_i_glide_ligand_efficiency_ln>  (318) 
-1.33597

>  <r_i_glide_gscore>  (318) 
-4.95383

>  <r_i_glide_lipo>  (318) 
-0.503046

>  <r_i_glide_hbond>  (318) 
-0.467071

>  <r_i_glide_metal>  (318) 
-0

>  <r_i_glide_rewards>  (318) 
-1.97573

>  <r_i_glide_evdw>  (318) 
-14.0115

>  <r_i_glide_ecoul>  (318) 
-8.33731

>  <r_i_glide_erotb>  (318) 
0

>  <r_i_glide_esite>  (318) 
-0.056816

>  <r_i_glide_emodel>  (318) 
-31.5848

>  <r_i_glide_energy>  (318) 
-22.3488

>  <r_i_glide_einternal>  (318) 
0.155739

>  <r_i_glide_intrahb_reward>  (318) 
-0

>  <i_i_glide_confnum>  (318) 
2

>  <i_i_glide_posenum>  (318) 
2

>  <r_i_glide_eff_state_penalty>  (318) 
0

>  <ligand_id>  (318) 
88

>  <original_smiles>  (318) 
COC12CC3C4CC1C(O)C3C(O2)C4=O

>  <smiles>  (318) 
[H]OC1([H])C2([H])C([H])([H])C3([H])C(=O)C4([H])OC2(OC([H])([H])[H])C([H])([H])C3([H])C41[H]

$$$$
88:0:2
     RDKit          3D

 29 32  0  0  1  0  0  0  0  0999 V2000
    8.0660   -2.2845    0.1698 C   0  0  0  0  0  0  0  0  0  0  0  0
    7.4777   -2.3059   -1.1292 O   0  0  0  0  0  0  0  0  0  0  0  0
    6.0841   -2.3289   -1.1587 C   0  0  1  0  0  0  0  0  0  0  0  0
    5.4852   -0.9787   -0.7424 C   0  0  0  0  0  0  0  0  0  0  0  0
    3.9367   -1.4363   -0.7824 C   0  0  2  0  0  0  0  0  0  0  0  0
    3.4369   -3.1737   -1.4125 C   0  0  1  0  0  0  0  0  0  0  0  0
    4.5586   -3.9124   -2.4322 C   0  0  0  0  0  0  0  0  0  0  0  0
    5.5493   -2.7426   -2.6158 C   0  0  1  0  0  0  0  0  0  0  0  0
    4.5567   -1.6474   -3.0699 C   0  0  1  0  0  0  0  0  0  0  0  0
    3.9004   -1.9002   -4.3055 O   0  0  0  0  0  0  0  0  0  0  0  0
    3.5376   -1.7592   -1.8527 C   0  0  1  0  0  0  0  0  0  0  0  0
    3.9808   -2.8045   -0.3080 C   0  0  2  0  0  0  0  0  0  0  0  0
    5.4689   -3.1620   -0.2151 O   0  0  0  0  0  0  0  0  0  0  0  0
    3.1659   -4.0027   -0.2381 C   0  0  0  0  0  0  0  0  0  0  0  0
    3.7495   -5.0560   -0.0316 O   0  0  0  0  0  0  0  0  0  0  0  0
    9.1512   -2.2195    0.0877 H   0  0  0  0  0  0  0  0  0  0  0  0
    7.8301   -3.1998    0.7123 H   0  0  0  0  0  0  0  0  0  0  0  0
    7.7512   -1.4402    0.7838 H   0  0  0  0  0  0  0  0  0  0  0  0
    5.7625   -0.7005    0.2702 H   0  0  0  0  0  0  0  0  0  0  0  0
    5.7891   -0.1921   -1.4099 H   0  0  0  0  0  0  0  0  0  0  0  0
    3.2264   -0.7381   -0.2881 H   0  0  0  0  0  0  0  0  0  0  0  0
    2.4270   -3.3906   -1.8788 H   0  0  0  0  0  0  0  0  0  0  0  0
    5.0473   -4.8007   -2.0299 H   0  0  0  0  0  0  0  0  0  0  0  0
    4.1084   -4.2163   -3.3792 H   0  0  0  0  0  0  0  0  0  0  0  0
    6.3524   -2.9465   -3.3178 H   0  0  0  0  0  0  0  0  0  0  0  0
    4.9918   -0.6567   -3.1942 H   0  0  0  0  0  0  0  0  0  0  0  0
    3.1110   -1.3761   -4.3307 H   0  0  0  0  0  0  0  0  0  0  0  0
    2.5885   -1.2244   -2.0233 H   0  0  0  0  0  0  0  0  0  0  0  0
    3.7183   -2.5639    0.7776 H   0  0  0  0  0  0  0  0  0  0  0  0
  1  2  1  0
  1 16  1  0
  1 17  1  0
  1 18  1  0
  3  2  1  6
  3  8  1  0
  3 13  1  0
  3  4  1  0
  4  5  1  0
  4 19  1  0
  4 20  1  0
  5 11  1  0
  5  6  1  0
  5 21  1  1
  6 14  1  0
  6  7  1  0
  6 22  1  6
  7  8  1  0
  7 23  1  0
  7 24  1  0
  8  9  1  0
  8 25  1  6
  9 10  1  0
  9 11  1  0
  9 26  1  6
 10 27  1  0
 11 12  1  0
 11 28  1  6
 12 13  1  0
 12 14  1  0
 12 29  1  1
 14 15  2  0
M  END
>  <i_m_ct_stereo_status>  (319) 
1

>  <s_m_source_file>  (319) 
/var/tmp/pbs.5076255.sched01/tmp7zsp0c9b/86_oh4d05k.sdf

>  <i_m_source_file_index>  (319) 
43

>  <i_lp_mmshare_version>  (319) 
48012

>  <i_f3d_flags>  (319) 
0

>  <s_epik_input>  (319) 
W0NIM11PW0NAXTEyW0NASF0zW0NIMl1bQ0BASF00W0NAQEhdKFtDSDJdMSlbQ0BASF0oW0NAQEhdM1tPSF0pW0NASF0oTzIpQzQ9Tw==

>  <s_epik_cmdline>  (319) 
J2VwaWtfcHl0aG9uJywgJy1waHQnLCAnMi4wJywgJy1waCcsICc3LjAnLCAnLXRuJywgJzgnLCAnLW1hJywgJzIwMCcsICctaW1hZScsICc8aW5maWxlLm1hZT4nLCAnLW9tYWUnLCAnPG91dGZpbGUubWFlPic=

>  <r_lp_tautomer_probability>  (319) 
1

>  <r_epik_Ionization_Penalty>  (319) 
4.34138e-08

>  <r_epik_Ionization_Penalty_Charging>  (319) 
0

>  <r_epik_Ionization_Penalty_Neutral>  (319) 
4.34138e-08

>  <r_epik_State_Penalty>  (319) 
-0

>  <r_epik_Charging_Adjusted_Penalty>  (319) 
0

>  <i_epik_Tot_Q>  (319) 
0

>  <i_epik_Tot_abs_Q>  (319) 
0

>  <s_lp_Force_Field>  (319) 
OPLS3e

>  <r_lp_Energy>  (319) 
525.562

>  <b_lp_Chiralities_Consistent>  (319) 
1

>  <s_lp_Variant>  (319) 
88:0-1

>  <s_i_glide_gridfile>  (319) 
pfpi4k_grid

>  <i_i_glide_lignum>  (319) 
43

>  <i_i_glide_rotatable_bonds>  (319) 
2

>  <r_i_docking_score>  (319) 
-4.56522

>  <r_i_glide_ligand_efficiency>  (319) 
-0.304348

>  <r_i_glide_ligand_efficiency_sa>  (319) 
-0.750586

>  <r_i_glide_ligand_efficiency_ln>  (319) 
-1.23116

>  <r_i_glide_gscore>  (319) 
-4.56522

>  <r_i_glide_lipo>  (319) 
-0.307692

>  <r_i_glide_hbond>  (319) 
-0.48

>  <r_i_glide_metal>  (319) 
-0

>  <r_i_glide_rewards>  (319) 
-1.97573

>  <r_i_glide_evdw>  (319) 
-17.302

>  <r_i_glide_ecoul>  (319) 
-5.87872

>  <r_i_glide_erotb>  (319) 
0

>  <r_i_glide_esite>  (319) 
-0.0548889

>  <r_i_glide_emodel>  (319) 
-30.519

>  <r_i_glide_energy>  (319) 
-23.1807

>  <r_i_glide_einternal>  (319) 
2.48081

>  <r_i_glide_intrahb_reward>  (319) 
-0

>  <i_i_glide_confnum>  (319) 
2

>  <i_i_glide_posenum>  (319) 
5

>  <r_i_glide_eff_state_penalty>  (319) 
0

>  <ligand_id>  (319) 
88

>  <original_smiles>  (319) 
COC12CC3C4CC1C(O)C3C(O2)C4=O

>  <smiles>  (319) 
[H]OC1([H])C2([H])C([H])([H])C3([H])C(=O)C4([H])OC2(OC([H])([H])[H])C([H])([H])C3([H])C41[H]

$$$$
90:0:0
     RDKit          3D

 77 83  0  0  1  0  0  0  0  0999 V2000
    0.3580   -4.8954    5.0163 C   0  0  0  0  0  0  0  0  0  0  0  0
    1.4176   -3.9716    5.2839 O   0  0  0  0  0  0  0  0  0  0  0  0
    2.1452   -3.2163    4.2715 C   0  0  2  0  0  0  0  0  0  0  0  0
    1.0865   -2.2748    3.6290 C   0  0  1  0  0  0  0  0  0  0  0  0
    0.0346   -1.8873    4.4851 O   0  0  0  0  0  0  0  0  0  0  0  0
    1.6379   -1.0359    2.8832 C   0  0  1  0  0  0  0  0  0  0  0  0
    1.5983    0.0651    3.7988 O   0  0  0  0  0  0  0  0  0  0  0  0
    0.7635    1.1608    3.7046 C   0  0  0  0  0  0  0  0  0  0  0  0
   -0.1462    1.2511    2.4646 C   0  0  0  0  0  0  0  0  0  0  0  0
    0.7547    2.0323    4.5489 O   0  0  0  0  0  0  0  0  0  0  0  0
    3.1013   -1.1432    2.2595 C   0  0  1  0  0  0  0  0  0  0  0  0
    3.0950    0.3460    1.5705 C   0  0  0  0  0  0  0  0  0  0  0  0
    4.3071   -2.1812    2.8620 C   0  0  2  0  0  0  0  0  0  0  0  0
    4.9641   -2.2941    4.0937 O   0  0  0  0  0  0  0  0  0  0  0  0
    4.4230   -1.3452    4.8418 C   0  0  1  0  0  0  0  0  0  0  0  0
    4.9373   -0.3744    3.6424 C   0  0  1  0  0  0  0  0  0  0  0  0
    6.2186    0.1255    3.9926 O   0  0  0  0  0  0  0  0  0  0  0  0
    4.9609   -1.2112    2.2011 C   0  0  1  0  0  0  0  0  0  0  0  0
    6.2990   -1.4111    1.7872 O   0  0  0  0  0  0  0  0  0  0  0  0
    3.7501   -1.7379    1.0223 C   0  0  2  0  0  0  0  0  0  0  0  0
    4.4222   -3.0225    0.3343 C   0  0  0  0  0  0  0  0  0  0  0  0
    3.9131   -4.2725    0.8590 O   0  0  0  0  0  0  0  0  0  0  0  0
    2.6616   -4.0742    1.4909 C   0  0  2  0  0  0  0  0  0  0  0  0
    2.4765   -2.6859    0.8271 C   0  0  0  0  0  0  0  0  0  0  0  0
    2.5609   -4.3122    3.1053 C   0  0  1  0  0  0  0  0  0  0  0  0
    3.2594   -5.6037    3.6286 C   0  0  1  0  0  0  0  0  0  0  0  0
    4.4485   -6.4284    3.0849 C   0  0  0  0  0  0  0  0  0  0  0  0
    4.1210   -7.7294    2.3443 C   0  0  0  0  0  0  0  0  0  0  0  0
    5.6954   -5.8200    2.4633 C   0  0  0  0  0  0  0  0  0  0  0  0
    4.8079   -6.7802    4.4516 O   0  0  0  0  0  0  0  0  0  0  0  0
    3.8701   -5.8229    5.0174 C   0  0  2  0  0  0  0  0  0  0  0  0
    3.0573   -6.6458    6.0290 C   0  0  0  0  0  0  0  0  0  0  0  0
    4.6534   -4.7477    5.7925 C   0  0  1  0  0  0  0  0  0  0  0  0
    5.8634   -4.4102    5.1742 O   0  0  0  0  0  0  0  0  0  0  0  0
    3.8759   -3.4616    6.2500 C   0  0  0  0  0  0  0  0  0  0  0  0
    3.2086   -2.3968    5.2711 C   0  0  2  0  0  0  0  0  0  0  0  0
    2.4116   -1.5717    6.3295 C   0  0  0  0  0  0  0  0  0  0  0  0
   -0.2273   -5.0440    5.9222 H   0  0  0  0  0  0  0  0  0  0  0  0
    0.7349   -5.8740    4.7264 H   0  0  0  0  0  0  0  0  0  0  0  0
   -0.2991   -4.5336    4.2396 H   0  0  0  0  0  0  0  0  0  0  0  0
    0.5752   -2.8548    2.8759 H   0  0  0  0  0  0  0  0  0  0  0  0
    0.4099   -1.3241    5.1434 H   0  0  0  0  0  0  0  0  0  0  0  0
    0.8957   -0.7990    2.1227 H   0  0  0  0  0  0  0  0  0  0  0  0
    0.4386    1.2922    1.5479 H   0  0  0  0  0  0  0  0  0  0  0  0
   -0.7584    2.1497    2.4943 H   0  0  0  0  0  0  0  0  0  0  0  0
   -0.8438    0.3938    2.4044 H   0  0  0  0  0  0  0  0  0  0  0  0
    3.9892    0.6078    1.0015 H   0  0  0  0  0  0  0  0  0  0  0  0
    2.9815    1.2092    2.2322 H   0  0  0  0  0  0  0  0  0  0  0  0
    2.2786    0.4174    0.8426 H   0  0  0  0  0  0  0  0  0  0  0  0
    4.6367   -3.1453    2.5595 H   0  0  0  0  0  0  0  0  0  0  0  0
    5.0308   -1.1201    5.7042 H   0  0  0  0  0  0  0  0  0  0  0  0
    4.3771    0.5641    3.6773 H   0  0  0  0  0  0  0  0  0  0  0  0
    6.6733    0.4255    3.2318 H   0  0  0  0  0  0  0  0  0  0  0  0
    6.6834   -0.5566    1.6874 H   0  0  0  0  0  0  0  0  0  0  0  0
    4.2631   -3.0028   -0.7526 H   0  0  0  0  0  0  0  0  0  0  0  0
    5.5094   -3.0742    0.3630 H   0  0  0  0  0  0  0  0  0  0  0  0
    1.9951   -4.7870    1.0046 H   0  0  0  0  0  0  0  0  0  0  0  0
    1.4792   -2.2902    0.9374 H   0  0  0  0  0  0  0  0  0  0  0  0
    2.2725   -2.8463   -0.2390 H   0  0  0  0  0  0  0  0  0  0  0  0
    1.5664   -4.7031    2.9458 H   0  0  0  0  0  0  0  0  0  0  0  0
    2.4625   -6.3449    3.5505 H   0  0  0  0  0  0  0  0  0  0  0  0
    3.7668   -7.5379    1.3221 H   0  0  0  0  0  0  0  0  0  0  0  0
    3.3664   -8.3195    2.8556 H   0  0  0  0  0  0  0  0  0  0  0  0
    5.0143   -8.3440    2.2737 H   0  0  0  0  0  0  0  0  0  0  0  0
    5.6635   -5.8799    1.3673 H   0  0  0  0  0  0  0  0  0  0  0  0
    6.5754   -6.3551    2.7990 H   0  0  0  0  0  0  0  0  0  0  0  0
    5.8388   -4.7719    2.7274 H   0  0  0  0  0  0  0  0  0  0  0  0
    2.3239   -6.0368    6.5683 H   0  0  0  0  0  0  0  0  0  0  0  0
    3.7256   -7.0668    6.7703 H   0  0  0  0  0  0  0  0  0  0  0  0
    2.5416   -7.4730    5.5577 H   0  0  0  0  0  0  0  0  0  0  0  0
    4.9942   -5.2109    6.7090 H   0  0  0  0  0  0  0  0  0  0  0  0
    5.6321   -3.8791    4.4193 H   0  0  0  0  0  0  0  0  0  0  0  0
    3.1119   -3.8351    6.9299 H   0  0  0  0  0  0  0  0  0  0  0  0
    4.5769   -2.9329    6.8930 H   0  0  0  0  0  0  0  0  0  0  0  0
    3.0605   -1.2863    7.1603 H   0  0  0  0  0  0  0  0  0  0  0  0
    1.5966   -2.1480    6.7750 H   0  0  0  0  0  0  0  0  0  0  0  0
    1.9891   -0.6379    5.9746 H   0  0  0  0  0  0  0  0  0  0  0  0
  1  2  1  0
  1 38  1  0
  1 39  1  0
  1 40  1  0
  3  2  1  1
  3 25  1  0
  3 36  1  0
  3  4  1  0
  4  5  1  0
  4  6  1  0
  4 41  1  6
  5 42  1  0
  6  7  1  0
  6 11  1  0
  6 43  1  6
  7  8  1  0
  8  9  1  0
  8 10  2  0
  9 44  1  0
  9 45  1  0
  9 46  1  0
 11 20  1  0
 11 12  1  6
 11 13  1  0
 12 47  1  0
 12 48  1  0
 12 49  1  0
 13 18  1  0
 13 14  1  0
 13 50  1  6
 14 15  1  0
 15 36  1  0
 15 16  1  0
 15 51  1  1
 16 17  1  0
 16 18  1  0
 16 52  1  6
 17 53  1  0
 18 19  1  6
 18 20  1  0
 19 54  1  0
 20 24  1  0
 20 21  1  6
 21 22  1  0
 21 55  1  0
 21 56  1  0
 22 23  1  0
 23 24  1  0
 23 25  1  0
 23 57  1  6
 24 58  1  0
 24 59  1  0
 25 26  1  0
 25 60  1  6
 26 31  1  0
 26 27  1  0
 26 61  1  1
 27 28  1  0
 27 29  1  0
 27 30  1  0
 28 62  1  0
 28 63  1  0
 28 64  1  0
 29 65  1  0
 29 66  1  0
 29 67  1  0
 30 31  1  0
 31 32  1  1
 31 33  1  0
 32 68  1  0
 32 69  1  0
 32 70  1  0
 33 34  1  0
 33 35  1  0
 33 71  1  1
 34 72  1  0
 35 36  1  0
 35 73  1  0
 35 74  1  0
 36 37  1  1
 37 75  1  0
 37 76  1  0
 37 77  1  0
M  END
>  <i_m_ct_stereo_status>  (320) 
1

>  <s_m_source_file>  (320) 
/var/tmp/pbs.5076255.sched01/tmpu61_44ix/12937f0afz8.sdf

>  <i_m_source_file_index>  (320) 
2

>  <i_lp_mmshare_version>  (320) 
48012

>  <i_f3d_flags>  (320) 
0

>  <s_epik_input>  (320) 
W0NIM11DMShbQ0gzXSlPW0NAQF0oW0NIM10pKFtDQEBIXShbT0hdKVtDSDJdMilbQ0BIXTFbQ0BIXShbQ0BASF0oW0NIMl0zKU9bQ0gyXTQpW0NAXShPW0NIM10pKFtDQEBIXShbT0hdKVtDQEhdNU9DKD1PKVtDSDNdKVtDQF0yKFtDSDNdKVtDQEBIXShPNilbQ0BASF0oW09IXSlbQ0BAXTcoW09IXSlbQ0BASF02W0NAXTUoQzM0NylbQ0gzXQ==

>  <s_epik_cmdline>  (320) 
J2VwaWtfcHl0aG9uJywgJy1waHQnLCAnMi4wJywgJy1waCcsICc3LjAnLCAnLXRuJywgJzgnLCAnLW1hJywgJzIwMCcsICctaW1hZScsICc8aW5maWxlLm1hZT4nLCAnLW9tYWUnLCAnPG91dGZpbGUubWFlPic=

>  <r_lp_tautomer_probability>  (320) 
1

>  <r_epik_Ionization_Penalty>  (320) 
3.9024e-06

>  <r_epik_Ionization_Penalty_Charging>  (320) 
0

>  <r_epik_Ionization_Penalty_Neutral>  (320) 
3.9024e-06

>  <r_epik_State_Penalty>  (320) 
-0

>  <r_epik_Charging_Adjusted_Penalty>  (320) 
0

>  <i_epik_Tot_Q>  (320) 
0

>  <i_epik_Tot_abs_Q>  (320) 
0

>  <s_epik_Chemistry_Notes>  (320) 
This compound has an ester and may undergo hydrolysis at high or low pH.

>  <s_lp_Force_Field>  (320) 
OPLS3e

>  <r_lp_Energy>  (320) 
470.14

>  <b_lp_Chiralities_Consistent>  (320) 
1

>  <s_lp_Variant>  (320) 
90:0-1

>  <s_i_glide_gridfile>  (320) 
pfpi4k_grid

>  <i_i_glide_lignum>  (320) 
2

>  <i_i_glide_rotatable_bonds>  (320) 
7

>  <r_i_docking_score>  (320) 
-2.59366

>  <r_i_glide_ligand_efficiency>  (320) 
-0.070099

>  <r_i_glide_ligand_efficiency_sa>  (320) 
-0.233585

>  <r_i_glide_ligand_efficiency_ln>  (320) 
-0.562504

>  <r_i_glide_gscore>  (320) 
-2.59366

>  <r_i_glide_lipo>  (320) 
-0.403645

>  <r_i_glide_hbond>  (320) 
0

>  <r_i_glide_metal>  (320) 
-0

>  <r_i_glide_rewards>  (320) 
-0.5

>  <r_i_glide_evdw>  (320) 
-20.1296

>  <r_i_glide_ecoul>  (320) 
-4.9397

>  <r_i_glide_erotb>  (320) 
0.0747713

>  <r_i_glide_esite>  (320) 
-0.0173543

>  <r_i_glide_emodel>  (320) 
-29.3189

>  <r_i_glide_energy>  (320) 
-25.0693

>  <r_i_glide_einternal>  (320) 
7.07665

>  <r_i_glide_intrahb_reward>  (320) 
-0.5

>  <i_i_glide_confnum>  (320) 
1

>  <i_i_glide_posenum>  (320) 
26

>  <r_i_glide_eff_state_penalty>  (320) 
0

>  <ligand_id>  (320) 
90

>  <original_smiles>  (320) 
COC12C(O)C(OC(C)=O)C3(C)C4OC5C(O)C4(O)C34COC(C4)C1C1C(C)(C)OC1(C)C(O)CC52C

>  <smiles>  (320) 
[H]OC1([H])C([H])([H])C2(C([H])([H])[H])C3([H])OC4([H])C(O[H])(C3([H])O[H])C35C([H])([H])OC([H])(C3([H])[H])C([H])(C3([H])C(C([H])([H])[H])(C([H])([H])[H])OC13C([H])([H])[H])C2(OC([H])([H])[H])C([H])(O[H])C([H])(OC(=O)C([H])([H])[H])C45C([H])([H])[H]

$$$$
90:0:1
     RDKit          3D

 77 83  0  0  1  0  0  0  0  0999 V2000
    0.4862   -5.0778    4.8841 C   0  0  0  0  0  0  0  0  0  0  0  0
    1.4909   -4.1244    5.2364 O   0  0  0  0  0  0  0  0  0  0  0  0
    2.1803   -3.2565    4.2882 C   0  0  2  0  0  0  0  0  0  0  0  0
    1.0688   -2.3682    3.6612 C   0  0  1  0  0  0  0  0  0  0  0  0
   -0.0393   -2.1436    4.5145 O   0  0  0  0  0  0  0  0  0  0  0  0
    1.5462   -1.0474    3.0474 C   0  0  1  0  0  0  0  0  0  0  0  0
    1.4650   -0.0158    4.0372 O   0  0  0  0  0  0  0  0  0  0  0  0
    0.4228    0.8525    4.0873 C   0  0  0  0  0  0  0  0  0  0  0  0
    0.6263    1.9355    5.1363 C   0  0  0  0  0  0  0  0  0  0  0  0
   -0.5990    0.7930    3.4106 O   0  0  0  0  0  0  0  0  0  0  0  0
    3.0099   -1.0088    2.4516 C   0  0  1  0  0  0  0  0  0  0  0  0
    2.8761    0.5151    1.8567 C   0  0  0  0  0  0  0  0  0  0  0  0
    4.2788   -1.9671    3.0150 C   0  0  2  0  0  0  0  0  0  0  0  0
    4.8892   -2.1230    4.2399 O   0  0  0  0  0  0  0  0  0  0  0  0
    4.2957   -1.2507    5.0348 C   0  0  1  0  0  0  0  0  0  0  0  0
    4.7394   -0.1773    3.9177 C   0  0  1  0  0  0  0  0  0  0  0  0
    5.9707    0.4110    4.2567 O   0  0  0  0  0  0  0  0  0  0  0  0
    4.8699   -0.9158    2.4444 C   0  0  1  0  0  0  0  0  0  0  0  0
    6.2054   -1.0378    2.0761 O   0  0  0  0  0  0  0  0  0  0  0  0
    3.7421   -1.5026    1.2096 C   0  0  2  0  0  0  0  0  0  0  0  0
    4.5615   -2.6911    0.4694 C   0  0  0  0  0  0  0  0  0  0  0  0
    4.1281   -3.9918    0.9007 O   0  0  0  0  0  0  0  0  0  0  0  0
    2.8469   -3.9242    1.5063 C   0  0  2  0  0  0  0  0  0  0  0  0
    2.5629   -2.5393    0.9179 C   0  0  0  0  0  0  0  0  0  0  0  0
    2.7194   -4.2507    3.0903 C   0  0  1  0  0  0  0  0  0  0  0  0
    3.4998   -5.5073    3.5737 C   0  0  1  0  0  0  0  0  0  0  0  0
    4.7542   -6.2183    3.0380 C   0  0  0  0  0  0  0  0  0  0  0  0
    4.5664   -7.5026    2.2304 C   0  0  0  0  0  0  0  0  0  0  0  0
    5.9765   -5.4996    2.5085 C   0  0  0  0  0  0  0  0  0  0  0  0
    5.0900   -6.6148    4.4021 O   0  0  0  0  0  0  0  0  0  0  0  0
    4.0641   -5.7578    4.9725 C   0  0  2  0  0  0  0  0  0  0  0  0
    3.2981   -6.6964    5.9080 C   0  0  0  0  0  0  0  0  0  0  0  0
    4.7449   -4.6983    5.8353 C   0  0  1  0  0  0  0  0  0  0  0  0
    5.9507   -4.2243    5.3047 O   0  0  0  0  0  0  0  0  0  0  0  0
    3.8706   -3.4958    6.3203 C   0  0  0  0  0  0  0  0  0  0  0  0
    3.1603   -2.4178    5.3718 C   0  0  2  0  0  0  0  0  0  0  0  0
    2.2637   -1.7217    6.4488 C   0  0  0  0  0  0  0  0  0  0  0  0
   -0.0934   -5.3218    5.7691 H   0  0  0  0  0  0  0  0  0  0  0  0
    0.9150   -6.0138    4.5401 H   0  0  0  0  0  0  0  0  0  0  0  0
   -0.1897   -4.7127    4.1187 H   0  0  0  0  0  0  0  0  0  0  0  0
    0.6116   -2.9320    2.8589 H   0  0  0  0  0  0  0  0  0  0  0  0
    0.2686   -1.5969    5.2208 H   0  0  0  0  0  0  0  0  0  0  0  0
    0.8100   -0.7777    2.2760 H   0  0  0  0  0  0  0  0  0  0  0  0
    0.7453    1.4952    6.1251 H   0  0  0  0  0  0  0  0  0  0  0  0
   -0.2315    2.6135    5.1567 H   0  0  0  0  0  0  0  0  0  0  0  0
    1.5169    2.5231    4.9095 H   0  0  0  0  0  0  0  0  0  0  0  0
    3.7297    0.8673    1.2825 H   0  0  0  0  0  0  0  0  0  0  0  0
    2.7087    1.3235    2.5704 H   0  0  0  0  0  0  0  0  0  0  0  0
    2.0478    0.5889    1.1460 H   0  0  0  0  0  0  0  0  0  0  0  0
    4.6965   -2.9021    2.6973 H   0  0  0  0  0  0  0  0  0  0  0  0
    4.8648   -1.0462    5.9394 H   0  0  0  0  0  0  0  0  0  0  0  0
    4.1053    0.6918    3.9671 H   0  0  0  0  0  0  0  0  0  0  0  0
    5.8682    0.8438    5.0888 H   0  0  0  0  0  0  0  0  0  0  0  0
    6.6189   -0.2047    2.2736 H   0  0  0  0  0  0  0  0  0  0  0  0
    4.4412   -2.6197   -0.6253 H   0  0  0  0  0  0  0  0  0  0  0  0
    5.6456   -2.6553    0.5390 H   0  0  0  0  0  0  0  0  0  0  0  0
    2.2638   -4.6572    0.9610 H   0  0  0  0  0  0  0  0  0  0  0  0
    1.5413   -2.1957    1.0378 H   0  0  0  0  0  0  0  0  0  0  0  0
    2.4240   -2.6438   -0.1781 H   0  0  0  0  0  0  0  0  0  0  0  0
    1.7617   -4.7133    2.8752 H   0  0  0  0  0  0  0  0  0  0  0  0
    2.7975   -6.3087    3.4403 H   0  0  0  0  0  0  0  0  0  0  0  0
    4.2374   -7.2885    1.2106 H   0  0  0  0  0  0  0  0  0  0  0  0
    3.8421   -8.1743    2.6733 H   0  0  0  0  0  0  0  0  0  0  0  0
    5.5042   -8.0490    2.1596 H   0  0  0  0  0  0  0  0  0  0  0  0
    5.9963   -5.5022    1.4147 H   0  0  0  0  0  0  0  0  0  0  0  0
    6.8906   -5.9829    2.8445 H   0  0  0  0  0  0  0  0  0  0  0  0
    6.0378   -4.4632    2.8165 H   0  0  0  0  0  0  0  0  0  0  0  0
    2.5016   -6.1815    6.4492 H   0  0  0  0  0  0  0  0  0  0  0  0
    3.9625   -7.1150    6.6611 H   0  0  0  0  0  0  0  0  0  0  0  0
    2.8622   -7.5301    5.3819 H   0  0  0  0  0  0  0  0  0  0  0  0
    5.0952   -5.1709    6.7549 H   0  0  0  0  0  0  0  0  0  0  0  0
    5.7211   -3.6761    4.5584 H   0  0  0  0  0  0  0  0  0  0  0  0
    3.1061   -3.9434    6.9620 H   0  0  0  0  0  0  0  0  0  0  0  0
    4.4988   -2.9427    7.0213 H   0  0  0  0  0  0  0  0  0  0  0  0
    2.8620   -1.4324    7.3157 H   0  0  0  0  0  0  0  0  0  0  0  0
    1.4738   -2.3767    6.8346 H   0  0  0  0  0  0  0  0  0  0  0  0
    1.7829   -0.8017    6.1374 H   0  0  0  0  0  0  0  0  0  0  0  0
  1  2  1  0
  1 38  1  0
  1 39  1  0
  1 40  1  0
  3  2  1  1
  3 25  1  0
  3 36  1  0
  3  4  1  0
  4  5  1  0
  4  6  1  0
  4 41  1  6
  5 42  1  0
  6  7  1  0
  6 11  1  0
  6 43  1  6
  7  8  1  0
  8  9  1  0
  8 10  2  0
  9 44  1  0
  9 45  1  0
  9 46  1  0
 11 20  1  0
 11 12  1  1
 11 13  1  0
 12 47  1  0
 12 48  1  0
 12 49  1  0
 13 18  1  0
 13 14  1  0
 13 50  1  6
 14 15  1  0
 15 36  1  0
 15 16  1  0
 15 51  1  1
 16 17  1  0
 16 18  1  0
 16 52  1  6
 17 53  1  0
 18 19  1  6
 18 20  1  0
 19 54  1  0
 20 24  1  0
 20 21  1  6
 21 22  1  0
 21 55  1  0
 21 56  1  0
 22 23  1  0
 23 24  1  0
 23 25  1  0
 23 57  1  6
 24 58  1  0
 24 59  1  0
 25 26  1  0
 25 60  1  6
 26 31  1  0
 26 27  1  0
 26 61  1  1
 27 28  1  0
 27 29  1  0
 27 30  1  0
 28 62  1  0
 28 63  1  0
 28 64  1  0
 29 65  1  0
 29 66  1  0
 29 67  1  0
 30 31  1  0
 31 32  1  1
 31 33  1  0
 32 68  1  0
 32 69  1  0
 32 70  1  0
 33 34  1  0
 33 35  1  0
 33 71  1  1
 34 72  1  0
 35 36  1  0
 35 73  1  0
 35 74  1  0
 36 37  1  1
 37 75  1  0
 37 76  1  0
 37 77  1  0
M  END
>  <i_m_ct_stereo_status>  (321) 
1

>  <s_m_source_file>  (321) 
/var/tmp/pbs.5076255.sched01/tmpu61_44ix/12937f0afz8.sdf

>  <i_m_source_file_index>  (321) 
2

>  <i_lp_mmshare_version>  (321) 
48012

>  <i_f3d_flags>  (321) 
0

>  <s_epik_input>  (321) 
W0NIM11DMShbQ0gzXSlPW0NAQF0oW0NIM10pKFtDQEBIXShbT0hdKVtDSDJdMilbQ0BIXTFbQ0BIXShbQ0BASF0oW0NIMl0zKU9bQ0gyXTQpW0NAXShPW0NIM10pKFtDQEBIXShbT0hdKVtDQEhdNU9DKD1PKVtDSDNdKVtDQF0yKFtDSDNdKVtDQEBIXShPNilbQ0BASF0oW09IXSlbQ0BAXTcoW09IXSlbQ0BASF02W0NAXTUoQzM0NylbQ0gzXQ==

>  <s_epik_cmdline>  (321) 
J2VwaWtfcHl0aG9uJywgJy1waHQnLCAnMi4wJywgJy1waCcsICc3LjAnLCAnLXRuJywgJzgnLCAnLW1hJywgJzIwMCcsICctaW1hZScsICc8aW5maWxlLm1hZT4nLCAnLW9tYWUnLCAnPG91dGZpbGUubWFlPic=

>  <r_lp_tautomer_probability>  (321) 
1

>  <r_epik_Ionization_Penalty>  (321) 
3.9024e-06

>  <r_epik_Ionization_Penalty_Charging>  (321) 
0

>  <r_epik_Ionization_Penalty_Neutral>  (321) 
3.9024e-06

>  <r_epik_State_Penalty>  (321) 
-0

>  <r_epik_Charging_Adjusted_Penalty>  (321) 
0

>  <i_epik_Tot_Q>  (321) 
0

>  <i_epik_Tot_abs_Q>  (321) 
0

>  <s_epik_Chemistry_Notes>  (321) 
This compound has an ester and may undergo hydrolysis at high or low pH.

>  <s_lp_Force_Field>  (321) 
OPLS3e

>  <r_lp_Energy>  (321) 
470.14

>  <b_lp_Chiralities_Consistent>  (321) 
1

>  <s_lp_Variant>  (321) 
90:0-1

>  <s_i_glide_gridfile>  (321) 
pfpi4k_grid

>  <i_i_glide_lignum>  (321) 
2

>  <i_i_glide_rotatable_bonds>  (321) 
7

>  <r_i_docking_score>  (321) 
-2.10395

>  <r_i_glide_ligand_efficiency>  (321) 
-0.0568636

>  <r_i_glide_ligand_efficiency_sa>  (321) 
-0.189482

>  <r_i_glide_ligand_efficiency_ln>  (321) 
-0.456298

>  <r_i_glide_gscore>  (321) 
-2.10395

>  <r_i_glide_lipo>  (321) 
-0.346986

>  <r_i_glide_hbond>  (321) 
0

>  <r_i_glide_metal>  (321) 
-0

>  <r_i_glide_rewards>  (321) 
-0.5

>  <r_i_glide_evdw>  (321) 
-20.2098

>  <r_i_glide_ecoul>  (321) 
-2.05612

>  <r_i_glide_erotb>  (321) 
0.0747713

>  <r_i_glide_esite>  (321) 
-0.0128311

>  <r_i_glide_emodel>  (321) 
-29.076

>  <r_i_glide_energy>  (321) 
-22.2659

>  <r_i_glide_einternal>  (321) 
1.36784

>  <r_i_glide_intrahb_reward>  (321) 
-0.5

>  <i_i_glide_confnum>  (321) 
2

>  <i_i_glide_posenum>  (321) 
34

>  <r_i_glide_eff_state_penalty>  (321) 
0

>  <ligand_id>  (321) 
90

>  <original_smiles>  (321) 
COC12C(O)C(OC(C)=O)C3(C)C4OC5C(O)C4(O)C34COC(C4)C1C1C(C)(C)OC1(C)C(O)CC52C

>  <smiles>  (321) 
[H]OC1([H])C([H])([H])C2(C([H])([H])[H])C3([H])OC4([H])C(O[H])(C3([H])O[H])C35C([H])([H])OC([H])(C3([H])[H])C([H])(C3([H])C(C([H])([H])[H])(C([H])([H])[H])OC13C([H])([H])[H])C2(OC([H])([H])[H])C([H])(O[H])C([H])(OC(=O)C([H])([H])[H])C45C([H])([H])[H]

$$$$
92:0:0
     RDKit          3D

 42 45  0  0  1  0  0  0  0  0999 V2000
    5.3901    0.1529    4.6802 C   0  0  0  0  0  0  0  0  0  0  0  0
    4.5890   -0.8087    3.7741 C   0  0  2  0  0  0  0  0  0  0  0  0
    5.3588   -1.0597    2.4752 C   0  0  0  0  0  0  0  0  0  0  0  0
    4.5679   -1.8067    1.5136 N   0  0  0  0  0  0  0  0  0  0  0  0
    4.8805   -2.4099    0.3541 C   0  0  0  0  0  0  0  0  0  0  0  0
    6.2540   -2.4756   -0.2123 C   0  0  0  0  0  0  0  0  0  0  0  0
    6.5200   -2.9614   -1.4217 N   0  0  0  0  0  0  0  0  0  0  0  0
    7.8534   -2.8537   -1.5145 N   0  0  0  0  0  0  0  0  0  0  0  0
    8.3380   -2.3149   -0.4070 N   0  0  0  0  0  0  0  0  0  0  0  0
    7.3339   -2.0228    0.4234 N   0  0  0  0  0  0  0  0  0  0  0  0
    3.8245   -2.9646   -0.2501 N   0  0  0  0  0  0  0  0  0  0  0  0
    2.7417   -2.6892    0.5639 N   0  0  0  0  0  0  0  0  0  0  0  0
    3.2345   -1.9981    1.5827 C   0  0  0  0  0  0  0  0  0  0  0  0
    2.4302   -1.5139    2.7596 C   0  0  1  0  0  0  0  0  0  0  0  0
    2.0615   -2.7162    3.6587 C   0  0  0  0  0  0  0  0  0  0  0  0
    3.1823   -0.4353    3.4717 N   0  0  0  0  0  0  0  0  0  0  0  0
    2.7074    0.8374    3.5920 C   0  0  0  0  0  0  0  0  0  0  0  0
    3.4200    1.8311    3.6976 O   0  0  0  0  0  0  0  0  0  0  0  0
    1.2288    1.0499    3.6897 C   0  0  0  0  0  0  0  0  0  0  0  0
    0.6225    2.0620    2.9211 C   0  0  0  0  0  0  0  0  0  0  0  0
   -0.7463    2.3429    3.0571 C   0  0  0  0  0  0  0  0  0  0  0  0
   -1.5216    1.5778    3.9487 C   0  0  0  0  0  0  0  0  0  0  0  0
   -0.9224    0.5765    4.7423 C   0  0  0  0  0  0  0  0  0  0  0  0
   -1.7770   -0.2441    5.6888 C   0  0  0  0  0  0  0  0  0  0  0  0
   -2.5838   -1.0058    4.9640 F   0  0  0  0  0  0  0  0  0  0  0  0
   -1.0628   -1.0500    6.4704 F   0  0  0  0  0  0  0  0  0  0  0  0
   -2.5020    0.5589    6.4732 F   0  0  0  0  0  0  0  0  0  0  0  0
    0.4641    0.3555    4.6444 C   0  0  0  0  0  0  0  0  0  0  0  0
    1.0953   -0.4666    5.5201 F   0  0  0  0  0  0  0  0  0  0  0  0
    6.3526   -0.2446    4.9882 H   0  0  0  0  0  0  0  0  0  0  0  0
    4.8316    0.3911    5.5823 H   0  0  0  0  0  0  0  0  0  0  0  0
    5.5999    1.0823    4.1567 H   0  0  0  0  0  0  0  0  0  0  0  0
    4.5460   -1.7529    4.3152 H   0  0  0  0  0  0  0  0  0  0  0  0
    5.6724   -0.1294    1.9992 H   0  0  0  0  0  0  0  0  0  0  0  0
    6.2394   -1.6437    2.7296 H   0  0  0  0  0  0  0  0  0  0  0  0
    1.5143   -1.1165    2.3219 H   0  0  0  0  0  0  0  0  0  0  0  0
    1.3889   -3.3844    3.1181 H   0  0  0  0  0  0  0  0  0  0  0  0
    1.5677   -2.4489    4.5872 H   0  0  0  0  0  0  0  0  0  0  0  0
    2.9484   -3.2970    3.9166 H   0  0  0  0  0  0  0  0  0  0  0  0
    1.2358    2.6703    2.2678 H   0  0  0  0  0  0  0  0  0  0  0  0
   -1.1790    3.1447    2.4676 H   0  0  0  0  0  0  0  0  0  0  0  0
   -2.5857    1.7654    4.0203 H   0  0  0  0  0  0  0  0  0  0  0  0
  1  2  1  0
  1 30  1  0
  1 31  1  0
  1 32  1  0
  2 16  1  0
  2  3  1  0
  2 33  1  1
  3  4  1  0
  3 34  1  0
  3 35  1  0
  4 13  1  0
  4  5  1  0
  5  6  1  0
  5 11  2  0
  6 10  1  0
  6  7  2  0
  7  8  1  0
  8  9  2  0
  9 10  1  0
 11 12  1  0
 12 13  2  0
 13 14  1  0
 14 15  1  0
 14 16  1  0
 14 36  1  6
 15 37  1  0
 15 38  1  0
 15 39  1  0
 16 17  1  0
 17 18  2  0
 17 19  1  0
 19 28  1  0
 19 20  2  0
 20 21  1  0
 20 40  1  0
 21 22  2  0
 21 41  1  0
 22 23  1  0
 22 42  1  0
 23 24  1  0
 23 28  2  0
 24 25  1  0
 24 26  1  0
 24 27  1  0
 28 29  1  0
M  CHG  1  10  -1
M  END
>  <i_m_ct_stereo_status>  (322) 
1

>  <s_m_source_file>  (322) 
/var/tmp/pbs.5076255.sched01/tmpu61_44ix/12937f0afz8.sdf

>  <i_m_source_file_index>  (322) 
5

>  <i_lp_mmshare_version>  (322) 
48012

>  <i_f3d_flags>  (322) 
0

>  <s_epik_input>  (322) 
RkMoRikoRiljKGMxRilbY0hdW2NIXVtjSF1jMUMoPU8pTihbQ0BIXShbQ0gzXSlbQ0gyXTIpW0NASF0oW0NIM10pYyhuMjMpbm5jMy1jNG5ubltuSF00

>  <s_epik_cmdline>  (322) 
J2VwaWtfcHl0aG9uJywgJy1waHQnLCAnMi4wJywgJy1waCcsICc3LjAnLCAnLXRuJywgJzgnLCAnLW1hJywgJzIwMCcsICctaW1hZScsICc8aW5maWxlLm1hZT4nLCAnLW9tYWUnLCAnPG91dGZpbGUubWFlPic=

>  <r_lp_tautomer_probability>  (322) 
1

>  <r_epik_Ionization_Penalty>  (322) 
0.00045811

>  <r_epik_Ionization_Penalty_Charging>  (322) 
0.000369981

>  <r_epik_Ionization_Penalty_Neutral>  (322) 
8.81294e-05

>  <r_epik_State_Penalty>  (322) 
-0

>  <r_epik_Charging_Adjusted_Penalty>  (322) 
0.000369981

>  <i_epik_Tot_Q>  (322) 
-1

>  <i_epik_Tot_abs_Q>  (322) 
1

>  <s_lp_Force_Field>  (322) 
OPLS3e

>  <r_lp_Energy>  (322) 
46.467

>  <b_lp_Chiralities_Consistent>  (322) 
1

>  <s_lp_Variant>  (322) 
92:0-1

>  <s_i_glide_gridfile>  (322) 
pfpi4k_grid

>  <i_i_glide_lignum>  (322) 
5

>  <i_i_glide_rotatable_bonds>  (322) 
4

>  <r_i_docking_score>  (322) 
-2.48781

>  <r_i_glide_ligand_efficiency>  (322) 
-0.0857865

>  <r_i_glide_ligand_efficiency_sa>  (322) 
-0.263563

>  <r_i_glide_ligand_efficiency_ln>  (322) 
-0.569645

>  <r_i_glide_gscore>  (322) 
-2.48781

>  <r_i_glide_lipo>  (322) 
-0.253832

>  <r_i_glide_hbond>  (322) 
0

>  <r_i_glide_metal>  (322) 
-0

>  <r_i_glide_rewards>  (322) 
-0.669299

>  <r_i_glide_evdw>  (322) 
-26.8291

>  <r_i_glide_ecoul>  (322) 
-1.0087

>  <r_i_glide_erotb>  (322) 
0.352559

>  <r_i_glide_esite>  (322) 
-0.424478

>  <r_i_glide_emodel>  (322) 
-32.216

>  <r_i_glide_energy>  (322) 
-27.8378

>  <r_i_glide_einternal>  (322) 
1.98641

>  <r_i_glide_intrahb_reward>  (322) 
-0

>  <i_i_glide_confnum>  (322) 
5

>  <i_i_glide_posenum>  (322) 
4

>  <r_i_glide_eff_state_penalty>  (322) 
0

>  <ligand_id>  (322) 
92

>  <original_smiles>  (322) 
CC1Cn2c(-c3nnn[nH]3)nnc2C(C)N1C(=O)c1cccc(C(F)(F)F)c1F

>  <smiles>  (322) 
[H]c1c([H])c(C(=O)N2C([H])(C([H])([H])[H])c3nnc(-c4nnn[n-]4)n3C([H])([H])C2([H])C([H])([H])[H])c(F)c(C(F)(F)F)c1[H]

$$$$
92:0:1
     RDKit          3D

 42 45  0  0  1  0  0  0  0  0999 V2000
    3.4730   -6.6658    6.7609 C   0  0  0  0  0  0  0  0  0  0  0  0
    2.1593   -7.1299    6.0905 C   0  0  2  0  0  0  0  0  0  0  0  0
    1.2796   -5.9302    5.7263 C   0  0  0  0  0  0  0  0  0  0  0  0
    0.6226   -5.4105    6.9171 N   0  0  0  0  0  0  0  0  0  0  0  0
   -0.0115   -4.2408    7.1622 C   0  0  0  0  0  0  0  0  0  0  0  0
   -0.1741   -3.1536    6.2038 C   0  0  0  0  0  0  0  0  0  0  0  0
   -0.9880   -2.1060    6.4085 N   0  0  0  0  0  0  0  0  0  0  0  0
   -0.8826   -1.3570    5.2997 N   0  0  0  0  0  0  0  0  0  0  0  0
   -0.0229   -1.9345    4.4697 N   0  0  0  0  0  0  0  0  0  0  0  0
    0.4260   -3.0814    5.0004 N   0  0  0  0  0  0  0  0  0  0  0  0
   -0.4963   -4.1712    8.4062 N   0  0  0  0  0  0  0  0  0  0  0  0
   -0.1606   -5.3653    9.0168 N   0  0  0  0  0  0  0  0  0  0  0  0
    0.4635   -6.0759    8.0740 C   0  0  0  0  0  0  0  0  0  0  0  0
    1.0435   -7.4641    8.2695 C   0  0  1  0  0  0  0  0  0  0  0  0
    0.1688   -8.3005    9.2159 C   0  0  0  0  0  0  0  0  0  0  0  0
    1.3839   -8.0591    6.9429 N   0  0  0  0  0  0  0  0  0  0  0  0
    0.8262   -9.2084    6.4672 C   0  0  0  0  0  0  0  0  0  0  0  0
   -0.2075   -9.6812    6.9259 O   0  0  0  0  0  0  0  0  0  0  0  0
    1.5015   -9.9405    5.3385 C   0  0  0  0  0  0  0  0  0  0  0  0
    0.7052  -10.4189    4.2761 C   0  0  0  0  0  0  0  0  0  0  0  0
    1.2626  -11.2037    3.2633 C   0  0  0  0  0  0  0  0  0  0  0  0
    2.6342  -11.4928    3.2856 C   0  0  0  0  0  0  0  0  0  0  0  0
    3.4529  -11.0494    4.3464 C   0  0  0  0  0  0  0  0  0  0  0  0
    4.9345  -11.3853    4.3713 C   0  0  0  0  0  0  0  0  0  0  0  0
    5.6234  -10.2810    4.0831 F   0  0  0  0  0  0  0  0  0  0  0  0
    5.3134  -11.8254    5.5735 F   0  0  0  0  0  0  0  0  0  0  0  0
    5.2450  -12.3222    3.4719 F   0  0  0  0  0  0  0  0  0  0  0  0
    2.8725  -10.2779    5.3759 C   0  0  0  0  0  0  0  0  0  0  0  0
    3.6306   -9.8950    6.4296 F   0  0  0  0  0  0  0  0  0  0  0  0
    4.0662   -6.0433    6.0934 H   0  0  0  0  0  0  0  0  0  0  0  0
    4.0983   -7.5020    7.0645 H   0  0  0  0  0  0  0  0  0  0  0  0
    3.2961   -6.0556    7.6477 H   0  0  0  0  0  0  0  0  0  0  0  0
    2.4372   -7.5928    5.1463 H   0  0  0  0  0  0  0  0  0  0  0  0
    1.9201   -5.1635    5.2905 H   0  0  0  0  0  0  0  0  0  0  0  0
    0.5124   -6.1825    4.9951 H   0  0  0  0  0  0  0  0  0  0  0  0
    1.9812   -7.3552    8.8094 H   0  0  0  0  0  0  0  0  0  0  0  0
    0.1377   -7.8741   10.2048 H   0  0  0  0  0  0  0  0  0  0  0  0
    0.5377   -9.3268    9.3114 H   0  0  0  0  0  0  0  0  0  0  0  0
   -0.8608   -8.3381    8.8407 H   0  0  0  0  0  0  0  0  0  0  0  0
   -0.3478  -10.2253    4.2735 H   0  0  0  0  0  0  0  0  0  0  0  0
    0.6189  -11.5730    2.4782 H   0  0  0  0  0  0  0  0  0  0  0  0
    3.0564  -12.0706    2.4803 H   0  0  0  0  0  0  0  0  0  0  0  0
  1  2  1  0
  1 30  1  0
  1 31  1  0
  1 32  1  0
  2 16  1  0
  2  3  1  0
  2 33  1  6
  3  4  1  0
  3 34  1  0
  3 35  1  0
  4 13  1  0
  4  5  1  0
  5  6  1  0
  5 11  2  0
  6 10  1  0
  6  7  2  0
  7  8  1  0
  8  9  2  0
  9 10  1  0
 11 12  1  0
 12 13  2  0
 13 14  1  0
 14 15  1  0
 14 16  1  0
 14 36  1  1
 15 37  1  0
 15 38  1  0
 15 39  1  0
 16 17  1  0
 17 18  2  0
 17 19  1  0
 19 28  1  0
 19 20  2  0
 20 21  1  0
 20 40  1  0
 21 22  2  0
 21 41  1  0
 22 23  1  0
 22 42  1  0
 23 24  1  0
 23 28  2  0
 24 25  1  0
 24 26  1  0
 24 27  1  0
 28 29  1  0
M  CHG  1  10  -1
M  END
>  <i_m_ct_stereo_status>  (323) 
1

>  <s_m_source_file>  (323) 
/var/tmp/pbs.5076255.sched01/tmpu61_44ix/12937f0afz8.sdf

>  <i_m_source_file_index>  (323) 
5

>  <i_lp_mmshare_version>  (323) 
48012

>  <i_f3d_flags>  (323) 
0

>  <s_epik_input>  (323) 
RkMoRikoRiljKGMxRilbY0hdW2NIXVtjSF1jMUMoPU8pTihbQ0BIXShbQ0gzXSlbQ0gyXTIpW0NASF0oW0NIM10pYyhuMjMpbm5jMy1jNG5ubltuSF00

>  <s_epik_cmdline>  (323) 
J2VwaWtfcHl0aG9uJywgJy1waHQnLCAnMi4wJywgJy1waCcsICc3LjAnLCAnLXRuJywgJzgnLCAnLW1hJywgJzIwMCcsICctaW1hZScsICc8aW5maWxlLm1hZT4nLCAnLW9tYWUnLCAnPG91dGZpbGUubWFlPic=

>  <r_lp_tautomer_probability>  (323) 
1

>  <r_epik_Ionization_Penalty>  (323) 
0.00045811

>  <r_epik_Ionization_Penalty_Charging>  (323) 
0.000369981

>  <r_epik_Ionization_Penalty_Neutral>  (323) 
8.81294e-05

>  <r_epik_State_Penalty>  (323) 
-0

>  <r_epik_Charging_Adjusted_Penalty>  (323) 
0.000369981

>  <i_epik_Tot_Q>  (323) 
-1

>  <i_epik_Tot_abs_Q>  (323) 
1

>  <s_lp_Force_Field>  (323) 
OPLS3e

>  <r_lp_Energy>  (323) 
46.467

>  <b_lp_Chiralities_Consistent>  (323) 
1

>  <s_lp_Variant>  (323) 
92:0-1

>  <s_i_glide_gridfile>  (323) 
pfpi4k_grid

>  <i_i_glide_lignum>  (323) 
5

>  <i_i_glide_rotatable_bonds>  (323) 
4

>  <r_i_docking_score>  (323) 
-2.48402

>  <r_i_glide_ligand_efficiency>  (323) 
-0.0856557

>  <r_i_glide_ligand_efficiency_sa>  (323) 
-0.263162

>  <r_i_glide_ligand_efficiency_ln>  (323) 
-0.568777

>  <r_i_glide_gscore>  (323) 
-2.48402

>  <r_i_glide_lipo>  (323) 
-0.21259

>  <r_i_glide_hbond>  (323) 
0

>  <r_i_glide_metal>  (323) 
-0

>  <r_i_glide_rewards>  (323) 
-0.618266

>  <r_i_glide_evdw>  (323) 
-23.1527

>  <r_i_glide_ecoul>  (323) 
-3.39974

>  <r_i_glide_erotb>  (323) 
0.352559

>  <r_i_glide_esite>  (323) 
-0.338126

>  <r_i_glide_emodel>  (323) 
-31.8553

>  <r_i_glide_energy>  (323) 
-26.5524

>  <r_i_glide_einternal>  (323) 
0.7047

>  <r_i_glide_intrahb_reward>  (323) 
-0

>  <i_i_glide_confnum>  (323) 
6

>  <i_i_glide_posenum>  (323) 
1

>  <r_i_glide_eff_state_penalty>  (323) 
0

>  <ligand_id>  (323) 
92

>  <original_smiles>  (323) 
CC1Cn2c(-c3nnn[nH]3)nnc2C(C)N1C(=O)c1cccc(C(F)(F)F)c1F

>  <smiles>  (323) 
[H]c1c([H])c(C(=O)N2C([H])(C([H])([H])[H])c3nnc(-c4nnn[n-]4)n3C([H])([H])C2([H])C([H])([H])[H])c(F)c(C(F)(F)F)c1[H]

$$$$
92:0:2
     RDKit          3D

 42 45  0  0  1  0  0  0  0  0999 V2000
    3.7043   -4.9024    5.6648 C   0  0  0  0  0  0  0  0  0  0  0  0
    2.5589   -5.5022    4.8065 C   0  0  2  0  0  0  0  0  0  0  0  0
    1.4368   -4.4740    4.6113 C   0  0  0  0  0  0  0  0  0  0  0  0
    0.6387   -4.3665    5.8223 N   0  0  0  0  0  0  0  0  0  0  0  0
   -0.2606   -3.4431    6.2425 C   0  0  0  0  0  0  0  0  0  0  0  0
   -0.6142   -2.2456    5.5224 C   0  0  0  0  0  0  0  0  0  0  0  0
   -1.7934   -1.6006    5.7174 N   0  0  0  0  0  0  0  0  0  0  0  0
   -1.7640   -0.5703    4.8511 N   0  0  0  0  0  0  0  0  0  0  0  0
   -0.6186   -0.6041    4.1707 N   0  0  0  0  0  0  0  0  0  0  0  0
    0.1100   -1.6583    4.5481 N   0  0  0  0  0  0  0  0  0  0  0  0
   -0.8053   -3.7623    7.4258 N   0  0  0  0  0  0  0  0  0  0  0  0
   -0.2184   -4.9546    7.8143 N   0  0  0  0  0  0  0  0  0  0  0  0
    0.5842   -5.2937    6.8070 C   0  0  0  0  0  0  0  0  0  0  0  0
    1.4569   -6.5337    6.7652 C   0  0  1  0  0  0  0  0  0  0  0  0
    0.7680   -7.7242    7.4585 C   0  0  0  0  0  0  0  0  0  0  0  0
    1.9838   -6.7485    5.3828 N   0  0  0  0  0  0  0  0  0  0  0  0
    1.7332   -7.8592    4.6331 C   0  0  0  0  0  0  0  0  0  0  0  0
    0.7856   -8.6143    4.8527 O   0  0  0  0  0  0  0  0  0  0  0  0
    2.6408   -8.2078    3.4786 C   0  0  0  0  0  0  0  0  0  0  0  0
    2.0587   -8.7949    2.3359 C   0  0  0  0  0  0  0  0  0  0  0  0
    2.8618   -9.2358    1.2761 C   0  0  0  0  0  0  0  0  0  0  0  0
    4.2537   -9.0534    1.3276 C   0  0  0  0  0  0  0  0  0  0  0  0
    4.8614   -8.5008    2.4704 C   0  0  0  0  0  0  0  0  0  0  0  0
    6.3646   -8.3301    2.5573 C   0  0  0  0  0  0  0  0  0  0  0  0
    6.6539   -7.0554    2.8255 F   0  0  0  0  0  0  0  0  0  0  0  0
    6.8655   -9.0983    3.5269 F   0  0  0  0  0  0  0  0  0  0  0  0
    6.9573   -8.6580    1.4065 F   0  0  0  0  0  0  0  0  0  0  0  0
    4.0479   -8.1097    3.5598 C   0  0  0  0  0  0  0  0  0  0  0  0
    4.6414   -7.6882    4.6992 F   0  0  0  0  0  0  0  0  0  0  0  0
    4.1634   -4.0404    5.1788 H   0  0  0  0  0  0  0  0  0  0  0  0
    4.4982   -5.6172    5.8688 H   0  0  0  0  0  0  0  0  0  0  0  0
    3.3558   -4.5402    6.6336 H   0  0  0  0  0  0  0  0  0  0  0  0
    2.9582   -5.6786    3.8111 H   0  0  0  0  0  0  0  0  0  0  0  0
    1.9024   -3.5157    4.3780 H   0  0  0  0  0  0  0  0  0  0  0  0
    0.7729   -4.7273    3.7821 H   0  0  0  0  0  0  0  0  0  0  0  0
    2.3188   -6.3454    7.3955 H   0  0  0  0  0  0  0  0  0  0  0  0
    0.5966   -7.5363    8.5100 H   0  0  0  0  0  0  0  0  0  0  0  0
    1.3567   -8.6423    7.3874 H   0  0  0  0  0  0  0  0  0  0  0  0
   -0.2030   -7.9038    6.9943 H   0  0  0  0  0  0  0  0  0  0  0  0
    1.0020   -8.9730    2.3000 H   0  0  0  0  0  0  0  0  0  0  0  0
    2.3941   -9.7173    0.4325 H   0  0  0  0  0  0  0  0  0  0  0  0
    4.8491   -9.3834    0.4870 H   0  0  0  0  0  0  0  0  0  0  0  0
  1  2  1  0
  1 30  1  0
  1 31  1  0
  1 32  1  0
  2 16  1  0
  2  3  1  0
  2 33  1  6
  3  4  1  0
  3 34  1  0
  3 35  1  0
  4 13  1  0
  4  5  1  0
  5  6  1  0
  5 11  2  0
  6 10  1  0
  6  7  2  0
  7  8  1  0
  8  9  2  0
  9 10  1  0
 11 12  1  0
 12 13  2  0
 13 14  1  0
 14 15  1  0
 14 16  1  0
 14 36  1  1
 15 37  1  0
 15 38  1  0
 15 39  1  0
 16 17  1  0
 17 18  2  0
 17 19  1  0
 19 28  1  0
 19 20  2  0
 20 21  1  0
 20 40  1  0
 21 22  2  0
 21 41  1  0
 22 23  1  0
 22 42  1  0
 23 24  1  0
 23 28  2  0
 24 25  1  0
 24 26  1  0
 24 27  1  0
 28 29  1  0
M  CHG  1  10  -1
M  END
>  <i_m_ct_stereo_status>  (324) 
1

>  <s_m_source_file>  (324) 
/var/tmp/pbs.5076255.sched01/tmpu61_44ix/12937f0afz8.sdf

>  <i_m_source_file_index>  (324) 
5

>  <i_lp_mmshare_version>  (324) 
48012

>  <i_f3d_flags>  (324) 
0

>  <s_epik_input>  (324) 
RkMoRikoRiljKGMxRilbY0hdW2NIXVtjSF1jMUMoPU8pTihbQ0BIXShbQ0gzXSlbQ0gyXTIpW0NASF0oW0NIM10pYyhuMjMpbm5jMy1jNG5ubltuSF00

>  <s_epik_cmdline>  (324) 
J2VwaWtfcHl0aG9uJywgJy1waHQnLCAnMi4wJywgJy1waCcsICc3LjAnLCAnLXRuJywgJzgnLCAnLW1hJywgJzIwMCcsICctaW1hZScsICc8aW5maWxlLm1hZT4nLCAnLW9tYWUnLCAnPG91dGZpbGUubWFlPic=

>  <r_lp_tautomer_probability>  (324) 
1

>  <r_epik_Ionization_Penalty>  (324) 
0.00045811

>  <r_epik_Ionization_Penalty_Charging>  (324) 
0.000369981

>  <r_epik_Ionization_Penalty_Neutral>  (324) 
8.81294e-05

>  <r_epik_State_Penalty>  (324) 
-0

>  <r_epik_Charging_Adjusted_Penalty>  (324) 
0.000369981

>  <i_epik_Tot_Q>  (324) 
-1

>  <i_epik_Tot_abs_Q>  (324) 
1

>  <s_lp_Force_Field>  (324) 
OPLS3e

>  <r_lp_Energy>  (324) 
46.467

>  <b_lp_Chiralities_Consistent>  (324) 
1

>  <s_lp_Variant>  (324) 
92:0-1

>  <s_i_glide_gridfile>  (324) 
pfpi4k_grid

>  <i_i_glide_lignum>  (324) 
5

>  <i_i_glide_rotatable_bonds>  (324) 
4

>  <r_i_docking_score>  (324) 
-2.42826

>  <r_i_glide_ligand_efficiency>  (324) 
-0.0837331

>  <r_i_glide_ligand_efficiency_sa>  (324) 
-0.257255

>  <r_i_glide_ligand_efficiency_ln>  (324) 
-0.55601

>  <r_i_glide_gscore>  (324) 
-2.42826

>  <r_i_glide_lipo>  (324) 
-0.0441848

>  <r_i_glide_hbond>  (324) 
0

>  <r_i_glide_metal>  (324) 
-0

>  <r_i_glide_rewards>  (324) 
-0.852399

>  <r_i_glide_evdw>  (324) 
-22.6922

>  <r_i_glide_ecoul>  (324) 
-3.41866

>  <r_i_glide_erotb>  (324) 
0.352559

>  <r_i_glide_esite>  (324) 
-0.236827

>  <r_i_glide_emodel>  (324) 
-30.617

>  <r_i_glide_energy>  (324) 
-26.1109

>  <r_i_glide_einternal>  (324) 
1.51604

>  <r_i_glide_intrahb_reward>  (324) 
-0

>  <i_i_glide_confnum>  (324) 
6

>  <i_i_glide_posenum>  (324) 
21

>  <r_i_glide_eff_state_penalty>  (324) 
0

>  <ligand_id>  (324) 
92

>  <original_smiles>  (324) 
CC1Cn2c(-c3nnn[nH]3)nnc2C(C)N1C(=O)c1cccc(C(F)(F)F)c1F

>  <smiles>  (324) 
[H]c1c([H])c(C(=O)N2C([H])(C([H])([H])[H])c3nnc(-c4nnn[n-]4)n3C([H])([H])C2([H])C([H])([H])[H])c(F)c(C(F)(F)F)c1[H]

$$$$
95:0:0
     RDKit          3D

 56 60  0  0  1  0  0  0  0  0999 V2000
    3.8569   -1.1479   -0.6367 C   0  0  0  0  0  0  0  0  0  0  0  0
    4.5940   -2.4877   -0.4397 C   0  0  0  0  0  0  0  0  0  0  0  0
    4.1135   -3.3949   -1.5954 C   0  0  0  0  0  0  0  0  0  0  0  0
    6.1029   -2.2183   -0.6558 C   0  0  1  0  0  0  0  0  0  0  0  0
    6.5827   -1.1109    0.0863 O   0  0  0  0  0  0  0  0  0  0  0  0
    6.9338   -3.4450   -0.3169 C   0  0  0  0  0  0  0  0  0  0  0  0
    6.7661   -3.8601    1.1453 C   0  0  0  0  0  0  0  0  0  0  0  0
    5.3084   -4.0976    1.6587 C   0  0  1  0  0  0  0  0  0  0  0  0
    5.3788   -3.7377    3.1742 C   0  0  0  0  0  0  0  0  0  0  0  0
    4.3251   -3.0426    1.0180 C   0  0  2  0  0  0  0  0  0  0  0  0
    2.8557   -3.3398    1.4011 C   0  0  0  0  0  0  0  0  0  0  0  0
    2.3719   -4.7831    1.2234 C   0  0  1  0  0  0  0  0  0  0  0  0
    1.9554   -5.0700   -0.0986 O   0  0  0  0  0  0  0  0  0  0  0  0
    3.3115   -5.8583    1.8185 C   0  0  1  0  0  0  0  0  0  0  0  0
    3.1872   -5.9116    3.2583 O   0  0  0  0  0  0  0  0  0  0  0  0
    2.7998   -7.2378    3.6451 C   0  0  1  0  0  0  0  0  0  0  0  0
    1.3505   -7.3763    3.1839 C   0  0  0  0  0  0  0  0  0  0  0  0
    0.3438   -7.4188    3.8901 O   0  0  0  0  0  0  0  0  0  0  0  0
    1.4535   -7.4239    1.8498 O   0  0  0  0  0  0  0  0  0  0  0  0
    2.8385   -7.3088    1.4971 C   0  0  2  0  0  0  0  0  0  0  0  0
    3.5117   -8.1132    2.5991 C   0  0  2  0  0  0  0  0  0  0  0  0
    3.1506   -9.6310    2.6366 C   0  0  0  0  0  0  0  0  0  0  0  0
    5.0567   -8.0243    2.4996 C   0  0  0  0  0  0  0  0  0  0  0  0
    5.6507   -6.6117    2.3698 C   0  0  0  0  0  0  0  0  0  0  0  0
    4.8258   -5.6135    1.5037 C   0  0  2  0  0  0  0  0  0  0  0  0
    5.0699   -6.0499    0.1880 O   0  0  0  0  0  0  0  0  0  0  0  0
    4.1419   -0.6700   -1.5765 H   0  0  0  0  0  0  0  0  0  0  0  0
    4.0426   -0.4330    0.1687 H   0  0  0  0  0  0  0  0  0  0  0  0
    2.7858   -1.3147   -0.6777 H   0  0  0  0  0  0  0  0  0  0  0  0
    4.4801   -4.4116   -1.5311 H   0  0  0  0  0  0  0  0  0  0  0  0
    4.4653   -3.0106   -2.5549 H   0  0  0  0  0  0  0  0  0  0  0  0
    3.0264   -3.4171   -1.6733 H   0  0  0  0  0  0  0  0  0  0  0  0
    6.2742   -1.9630   -1.7017 H   0  0  0  0  0  0  0  0  0  0  0  0
    6.3870   -1.2551    1.0059 H   0  0  0  0  0  0  0  0  0  0  0  0
    6.6550   -4.2564   -0.9697 H   0  0  0  0  0  0  0  0  0  0  0  0
    7.9871   -3.2377   -0.5124 H   0  0  0  0  0  0  0  0  0  0  0  0
    7.3909   -4.7259    1.3420 H   0  0  0  0  0  0  0  0  0  0  0  0
    7.2184   -3.0517    1.7111 H   0  0  0  0  0  0  0  0  0  0  0  0
    4.4530   -3.9294    3.7127 H   0  0  0  0  0  0  0  0  0  0  0  0
    5.6115   -2.6836    3.3268 H   0  0  0  0  0  0  0  0  0  0  0  0
    6.1882   -4.2683    3.6904 H   0  0  0  0  0  0  0  0  0  0  0  0
    4.5106   -2.1297    1.5850 H   0  0  0  0  0  0  0  0  0  0  0  0
    2.7516   -3.1137    2.4637 H   0  0  0  0  0  0  0  0  0  0  0  0
    2.1665   -2.6562    0.9143 H   0  0  0  0  0  0  0  0  0  0  0  0
    1.4378   -4.8441    1.7807 H   0  0  0  0  0  0  0  0  0  0  0  0
    2.6950   -5.0606   -0.6987 H   0  0  0  0  0  0  0  0  0  0  0  0
    2.9583   -7.4950    4.6908 H   0  0  0  0  0  0  0  0  0  0  0  0
    3.0842   -7.6406    0.4887 H   0  0  0  0  0  0  0  0  0  0  0  0
    3.5969  -10.1639    1.7925 H   0  0  0  0  0  0  0  0  0  0  0  0
    2.0825   -9.8509    2.6054 H   0  0  0  0  0  0  0  0  0  0  0  0
    3.5387  -10.0843    3.5485 H   0  0  0  0  0  0  0  0  0  0  0  0
    5.5025   -8.5130    3.3677 H   0  0  0  0  0  0  0  0  0  0  0  0
    5.3780   -8.6049    1.6320 H   0  0  0  0  0  0  0  0  0  0  0  0
    5.7446   -6.2688    3.3985 H   0  0  0  0  0  0  0  0  0  0  0  0
    6.6633   -6.7029    1.9823 H   0  0  0  0  0  0  0  0  0  0  0  0
    4.5258   -5.5605   -0.4106 H   0  0  0  0  0  0  0  0  0  0  0  0
  1  2  1  0
  1 27  1  0
  1 28  1  0
  1 29  1  0
  2 10  1  0
  2  3  1  0
  2  4  1  0
  3 30  1  0
  3 31  1  0
  3 32  1  0
  4  5  1  0
  4  6  1  0
  4 33  1  6
  5 34  1  0
  6  7  1  0
  6 35  1  0
  6 36  1  0
  7  8  1  0
  7 37  1  0
  7 38  1  0
  8 25  1  0
  8  9  1  1
  8 10  1  0
  9 39  1  0
  9 40  1  0
  9 41  1  0
 10 11  1  0
 10 42  1  1
 11 12  1  0
 11 43  1  0
 11 44  1  0
 12 13  1  0
 12 14  1  0
 12 45  1  1
 13 46  1  0
 14 20  1  0
 14 25  1  0
 14 15  1  1
 15 16  1  0
 16 21  1  0
 16 17  1  0
 16 47  1  1
 17 18  2  0
 17 19  1  0
 19 20  1  0
 20 21  1  0
 20 48  1  6
 21 22  1  1
 21 23  1  0
 22 49  1  0
 22 50  1  0
 22 51  1  0
 23 24  1  0
 23 52  1  0
 23 53  1  0
 24 25  1  0
 24 54  1  0
 24 55  1  0
 25 26  1  6
 26 56  1  0
M  END
>  <i_m_ct_stereo_status>  (325) 
1

>  <s_m_source_file>  (325) 
/var/tmp/pbs.5076255.sched01/tmpu61_44ix/12937f0afz8.sdf

>  <i_m_source_file_index>  (325) 
8

>  <i_lp_mmshare_version>  (325) 
48012

>  <i_f3d_flags>  (325) 
0

>  <s_epik_input>  (325) 
W0NIMl0xW0NIMl1bQ0BIXShbT0hdKUMoW0NIM10pKFtDSDNdKVtDQEBIXShbQ0gyXVtDQEhdMltPSF0pW0NAQF0xKFtDSDNdKVtDQEBdMyhbT0hdKVtDSDJdW0NIMl1bQ0BAXShbQ0BASF00W0NAXTIzNSkoW0NIM10pW0NAQEhdKE81KUMoPU8pTzQ=

>  <s_epik_cmdline>  (325) 
J2VwaWtfcHl0aG9uJywgJy1waHQnLCAnMi4wJywgJy1waCcsICc3LjAnLCAnLXRuJywgJzgnLCAnLW1hJywgJzIwMCcsICctaW1hZScsICc8aW5maWxlLm1hZT4nLCAnLW9tYWUnLCAnPG91dGZpbGUubWFlPic=

>  <r_lp_tautomer_probability>  (325) 
1

>  <r_epik_Ionization_Penalty>  (325) 
1.58321e-06

>  <r_epik_Ionization_Penalty_Charging>  (325) 
0

>  <r_epik_Ionization_Penalty_Neutral>  (325) 
1.58321e-06

>  <r_epik_State_Penalty>  (325) 
-0

>  <r_epik_Charging_Adjusted_Penalty>  (325) 
0

>  <i_epik_Tot_Q>  (325) 
0

>  <i_epik_Tot_abs_Q>  (325) 
0

>  <s_epik_Chemistry_Notes>  (325) 
This compound has an ester and may undergo hydrolysis at high or low pH.

>  <s_lp_Force_Field>  (325) 
OPLS3e

>  <r_lp_Energy>  (325) 
77.4057

>  <b_lp_Chiralities_Consistent>  (325) 
1

>  <s_lp_Variant>  (325) 
95:0-1

>  <s_i_glide_gridfile>  (325) 
pfpi4k_grid

>  <i_i_glide_lignum>  (325) 
8

>  <i_i_glide_rotatable_bonds>  (325) 
3

>  <r_i_docking_score>  (325) 
-3.30634

>  <r_i_glide_ligand_efficiency>  (325) 
-0.127167

>  <r_i_glide_ligand_efficiency_sa>  (325) 
-0.376732

>  <r_i_glide_ligand_efficiency_ln>  (325) 
-0.776484

>  <r_i_glide_gscore>  (325) 
-3.30634

>  <r_i_glide_lipo>  (325) 
-0.407128

>  <r_i_glide_hbond>  (325) 
-0.0489744

>  <r_i_glide_metal>  (325) 
-0

>  <r_i_glide_rewards>  (325) 
-0.910578

>  <r_i_glide_evdw>  (325) 
-20.4054

>  <r_i_glide_ecoul>  (325) 
-6.01817

>  <r_i_glide_erotb>  (325) 
0

>  <r_i_glide_esite>  (325) 
-0.0166688

>  <r_i_glide_emodel>  (325) 
-32.5972

>  <r_i_glide_energy>  (325) 
-26.4236

>  <r_i_glide_einternal>  (325) 
0.0646793

>  <r_i_glide_intrahb_reward>  (325) 
-0

>  <i_i_glide_confnum>  (325) 
2

>  <i_i_glide_posenum>  (325) 
21

>  <r_i_glide_eff_state_penalty>  (325) 
0

>  <ligand_id>  (325) 
95

>  <original_smiles>  (325) 
CC1(C)C(O)CCC2(C)C1CC(O)C13OC4C(=O)OC1C4(C)CCC23O

>  <smiles>  (325) 
[H]OC1([H])C([H])([H])C2([H])C(C([H])([H])[H])(C([H])([H])[H])C([H])(O[H])C([H])([H])C([H])([H])C2(C([H])([H])[H])C2(O[H])C([H])([H])C([H])([H])C3(C([H])([H])[H])C4([H])OC12C3([H])OC4=O

$$$$
95:0:1
     RDKit          3D

 56 60  0  0  1  0  0  0  0  0999 V2000
    5.4940   -0.6639    1.2188 C   0  0  0  0  0  0  0  0  0  0  0  0
    4.9025   -1.9785    0.6485 C   0  0  0  0  0  0  0  0  0  0  0  0
    3.4322   -1.6547    0.3083 C   0  0  0  0  0  0  0  0  0  0  0  0
    5.6227   -2.2914   -0.6935 C   0  0  1  0  0  0  0  0  0  0  0  0
    7.0368   -2.2353   -0.5872 O   0  0  0  0  0  0  0  0  0  0  0  0
    5.2201   -3.6592   -1.2427 C   0  0  0  0  0  0  0  0  0  0  0  0
    5.5828   -4.7828   -0.2675 C   0  0  0  0  0  0  0  0  0  0  0  0
    5.0564   -4.6638    1.1966 C   0  0  1  0  0  0  0  0  0  0  0  0
    6.1431   -5.4238    2.0269 C   0  0  0  0  0  0  0  0  0  0  0  0
    5.1145   -3.1618    1.6836 C   0  0  2  0  0  0  0  0  0  0  0  0
    4.4783   -2.9986    3.0856 C   0  0  0  0  0  0  0  0  0  0  0  0
    3.0899   -3.6191    3.2914 C   0  0  1  0  0  0  0  0  0  0  0  0
    2.0720   -2.8017    2.7556 O   0  0  0  0  0  0  0  0  0  0  0  0
    2.9689   -5.0896    2.8097 C   0  0  1  0  0  0  0  0  0  0  0  0
    3.6126   -5.9846    3.7407 O   0  0  0  0  0  0  0  0  0  0  0  0
    2.6583   -6.9523    4.2050 C   0  0  1  0  0  0  0  0  0  0  0  0
    1.7056   -6.1687    5.1045 C   0  0  0  0  0  0  0  0  0  0  0  0
    1.5965   -6.2607    6.3261 O   0  0  0  0  0  0  0  0  0  0  0  0
    1.0289   -5.3976    4.2515 O   0  0  0  0  0  0  0  0  0  0  0  0
    1.5110   -5.6524    2.9265 C   0  0  2  0  0  0  0  0  0  0  0  0
    1.7598   -7.1551    2.9739 C   0  0  2  0  0  0  0  0  0  0  0  0
    0.4936   -8.0374    3.2015 C   0  0  0  0  0  0  0  0  0  0  0  0
    2.4281   -7.6704    1.6773 C   0  0  0  0  0  0  0  0  0  0  0  0
    3.6708   -6.9008    1.1966 C   0  0  0  0  0  0  0  0  0  0  0  0
    3.6292   -5.3595    1.4098 C   0  0  2  0  0  0  0  0  0  0  0  0
    2.7189   -4.8998    0.4293 O   0  0  0  0  0  0  0  0  0  0  0  0
    5.5097    0.1236    0.4628 H   0  0  0  0  0  0  0  0  0  0  0  0
    6.5185   -0.7917    1.5719 H   0  0  0  0  0  0  0  0  0  0  0  0
    4.9081   -0.2813    2.0554 H   0  0  0  0  0  0  0  0  0  0  0  0
    2.8558   -2.5209    0.0019 H   0  0  0  0  0  0  0  0  0  0  0  0
    3.3776   -0.9534   -0.5251 H   0  0  0  0  0  0  0  0  0  0  0  0
    2.9188   -1.1597    1.1307 H   0  0  0  0  0  0  0  0  0  0  0  0
    5.3631   -1.5325   -1.4313 H   0  0  0  0  0  0  0  0  0  0  0  0
    7.3132   -2.8883    0.0388 H   0  0  0  0  0  0  0  0  0  0  0  0
    4.1577   -3.6865   -1.4768 H   0  0  0  0  0  0  0  0  0  0  0  0
    5.7231   -3.8347   -2.1946 H   0  0  0  0  0  0  0  0  0  0  0  0
    5.2913   -5.7322   -0.7102 H   0  0  0  0  0  0  0  0  0  0  0  0
    6.6736   -4.8220   -0.2461 H   0  0  0  0  0  0  0  0  0  0  0  0
    5.8861   -5.5360    3.0787 H   0  0  0  0  0  0  0  0  0  0  0  0
    7.1068   -4.9122    1.9995 H   0  0  0  0  0  0  0  0  0  0  0  0
    6.3607   -6.4156    1.6286 H   0  0  0  0  0  0  0  0  0  0  0  0
    6.1693   -3.0044    1.9063 H   0  0  0  0  0  0  0  0  0  0  0  0
    5.1390   -3.4920    3.7994 H   0  0  0  0  0  0  0  0  0  0  0  0
    4.4646   -1.9588    3.4036 H   0  0  0  0  0  0  0  0  0  0  0  0
    2.9012   -3.5994    4.3644 H   0  0  0  0  0  0  0  0  0  0  0  0
    2.2307   -2.6934    1.8284 H   0  0  0  0  0  0  0  0  0  0  0  0
    3.0732   -7.8460    4.6652 H   0  0  0  0  0  0  0  0  0  0  0  0
    0.8235   -5.3250    2.1464 H   0  0  0  0  0  0  0  0  0  0  0  0
   -0.1491   -8.0420    2.3173 H   0  0  0  0  0  0  0  0  0  0  0  0
   -0.1353   -7.7295    4.0381 H   0  0  0  0  0  0  0  0  0  0  0  0
    0.7827   -9.0718    3.3938 H   0  0  0  0  0  0  0  0  0  0  0  0
    2.6894   -8.7249    1.7920 H   0  0  0  0  0  0  0  0  0  0  0  0
    1.6836   -7.6400    0.8780 H   0  0  0  0  0  0  0  0  0  0  0  0
    4.4986   -7.3569    1.7319 H   0  0  0  0  0  0  0  0  0  0  0  0
    3.8334   -7.1339    0.1456 H   0  0  0  0  0  0  0  0  0  0  0  0
    3.0596   -5.1015   -0.4341 H   0  0  0  0  0  0  0  0  0  0  0  0
  1  2  1  0
  1 27  1  0
  1 28  1  0
  1 29  1  0
  2 10  1  0
  2  3  1  0
  2  4  1  0
  3 30  1  0
  3 31  1  0
  3 32  1  0
  4  5  1  0
  4  6  1  0
  4 33  1  6
  5 34  1  0
  6  7  1  0
  6 35  1  0
  6 36  1  0
  7  8  1  0
  7 37  1  0
  7 38  1  0
  8 25  1  0
  8  9  1  1
  8 10  1  0
  9 39  1  0
  9 40  1  0
  9 41  1  0
 10 11  1  0
 10 42  1  1
 11 12  1  0
 11 43  1  0
 11 44  1  0
 12 13  1  0
 12 14  1  0
 12 45  1  1
 13 46  1  0
 14 20  1  0
 14 25  1  0
 14 15  1  1
 15 16  1  0
 16 21  1  0
 16 17  1  0
 16 47  1  1
 17 18  2  0
 17 19  1  0
 19 20  1  0
 20 21  1  0
 20 48  1  6
 21 22  1  1
 21 23  1  0
 22 49  1  0
 22 50  1  0
 22 51  1  0
 23 24  1  0
 23 52  1  0
 23 53  1  0
 24 25  1  0
 24 54  1  0
 24 55  1  0
 25 26  1  6
 26 56  1  0
M  END
>  <i_m_ct_stereo_status>  (326) 
1

>  <s_m_source_file>  (326) 
/var/tmp/pbs.5076255.sched01/tmpu61_44ix/12937f0afz8.sdf

>  <i_m_source_file_index>  (326) 
8

>  <i_lp_mmshare_version>  (326) 
48012

>  <i_f3d_flags>  (326) 
0

>  <s_epik_input>  (326) 
W0NIMl0xW0NIMl1bQ0BIXShbT0hdKUMoW0NIM10pKFtDSDNdKVtDQEBIXShbQ0gyXVtDQEhdMltPSF0pW0NAQF0xKFtDSDNdKVtDQEBdMyhbT0hdKVtDSDJdW0NIMl1bQ0BAXShbQ0BASF00W0NAXTIzNSkoW0NIM10pW0NAQEhdKE81KUMoPU8pTzQ=

>  <s_epik_cmdline>  (326) 
J2VwaWtfcHl0aG9uJywgJy1waHQnLCAnMi4wJywgJy1waCcsICc3LjAnLCAnLXRuJywgJzgnLCAnLW1hJywgJzIwMCcsICctaW1hZScsICc8aW5maWxlLm1hZT4nLCAnLW9tYWUnLCAnPG91dGZpbGUubWFlPic=

>  <r_lp_tautomer_probability>  (326) 
1

>  <r_epik_Ionization_Penalty>  (326) 
1.58321e-06

>  <r_epik_Ionization_Penalty_Charging>  (326) 
0

>  <r_epik_Ionization_Penalty_Neutral>  (326) 
1.58321e-06

>  <r_epik_State_Penalty>  (326) 
-0

>  <r_epik_Charging_Adjusted_Penalty>  (326) 
0

>  <i_epik_Tot_Q>  (326) 
0

>  <i_epik_Tot_abs_Q>  (326) 
0

>  <s_epik_Chemistry_Notes>  (326) 
This compound has an ester and may undergo hydrolysis at high or low pH.

>  <s_lp_Force_Field>  (326) 
OPLS3e

>  <r_lp_Energy>  (326) 
77.4057

>  <b_lp_Chiralities_Consistent>  (326) 
1

>  <s_lp_Variant>  (326) 
95:0-1

>  <s_i_glide_gridfile>  (326) 
pfpi4k_grid

>  <i_i_glide_lignum>  (326) 
8

>  <i_i_glide_rotatable_bonds>  (326) 
3

>  <r_i_docking_score>  (326) 
-3.25932

>  <r_i_glide_ligand_efficiency>  (326) 
-0.125358

>  <r_i_glide_ligand_efficiency_sa>  (326) 
-0.371373

>  <r_i_glide_ligand_efficiency_ln>  (326) 
-0.765439

>  <r_i_glide_gscore>  (326) 
-3.25932

>  <r_i_glide_lipo>  (326) 
-0.464893

>  <r_i_glide_hbond>  (326) 
-0.137939

>  <r_i_glide_metal>  (326) 
-0

>  <r_i_glide_rewards>  (326) 
-0.910578

>  <r_i_glide_evdw>  (326) 
-24.7953

>  <r_i_glide_ecoul>  (326) 
-3.3681

>  <r_i_glide_erotb>  (326) 
0

>  <r_i_glide_esite>  (326) 
-0.000926426

>  <r_i_glide_emodel>  (326) 
-34.3491

>  <r_i_glide_energy>  (326) 
-28.1634

>  <r_i_glide_einternal>  (326) 
0.0950029

>  <r_i_glide_intrahb_reward>  (326) 
-0

>  <i_i_glide_confnum>  (326) 
1

>  <i_i_glide_posenum>  (326) 
19

>  <r_i_glide_eff_state_penalty>  (326) 
0

>  <ligand_id>  (326) 
95

>  <original_smiles>  (326) 
CC1(C)C(O)CCC2(C)C1CC(O)C13OC4C(=O)OC1C4(C)CCC23O

>  <smiles>  (326) 
[H]OC1([H])C([H])([H])C2([H])C(C([H])([H])[H])(C([H])([H])[H])C([H])(O[H])C([H])([H])C([H])([H])C2(C([H])([H])[H])C2(O[H])C([H])([H])C([H])([H])C3(C([H])([H])[H])C4([H])OC12C3([H])OC4=O

$$$$
95:0:2
     RDKit          3D

 56 60  0  0  1  0  0  0  0  0999 V2000
    5.4792   -0.6620    1.1507 C   0  0  0  0  0  0  0  0  0  0  0  0
    4.8984   -1.9870    0.5928 C   0  0  0  0  0  0  0  0  0  0  0  0
    3.4335   -1.6722    0.2230 C   0  0  0  0  0  0  0  0  0  0  0  0
    5.6433   -2.3251   -0.7301 C   0  0  1  0  0  0  0  0  0  0  0  0
    7.0575   -2.2541   -0.6084 O   0  0  0  0  0  0  0  0  0  0  0  0
    5.2451   -3.7028   -1.2588 C   0  0  0  0  0  0  0  0  0  0  0  0
    5.5903   -4.8075   -0.2556 C   0  0  0  0  0  0  0  0  0  0  0  0
    5.0354   -4.6615    1.1944 C   0  0  1  0  0  0  0  0  0  0  0  0
    6.1081   -5.4060    2.0589 C   0  0  0  0  0  0  0  0  0  0  0  0
    5.0884   -3.1511    1.6534 C   0  0  2  0  0  0  0  0  0  0  0  0
    4.4267   -2.9595    3.0403 C   0  0  0  0  0  0  0  0  0  0  0  0
    3.0349   -3.5778    3.2379 C   0  0  1  0  0  0  0  0  0  0  0  0
    2.0138   -2.7855    2.6694 O   0  0  0  0  0  0  0  0  0  0  0  0
    2.9228   -5.0569    2.7800 C   0  0  1  0  0  0  0  0  0  0  0  0
    3.5504   -5.9354    3.7402 O   0  0  0  0  0  0  0  0  0  0  0  0
    2.5887   -6.8930    4.2040 C   0  0  1  0  0  0  0  0  0  0  0  0
    1.6215   -6.0968    5.0731 C   0  0  0  0  0  0  0  0  0  0  0  0
    1.4911   -6.1665    6.2923 O   0  0  0  0  0  0  0  0  0  0  0  0
    0.9591   -5.3393    4.1942 O   0  0  0  0  0  0  0  0  0  0  0  0
    1.4643   -5.6175    2.8833 C   0  0  2  0  0  0  0  0  0  0  0  0
    1.7116   -7.1205    2.9595 C   0  0  2  0  0  0  0  0  0  0  0  0
    0.4399   -7.9969    3.1833 C   0  0  0  0  0  0  0  0  0  0  0  0
    2.4015   -7.6588    1.6828 C   0  0  0  0  0  0  0  0  0  0  0  0
    3.6536   -6.8997    1.2132 C   0  0  0  0  0  0  0  0  0  0  0  0
    3.6057   -5.3549    1.3959 C   0  0  2  0  0  0  0  0  0  0  0  0
    2.7091   -4.9372    0.3823 O   0  0  0  0  0  0  0  0  0  0  0  0
    5.5077    0.1114    0.3807 H   0  0  0  0  0  0  0  0  0  0  0  0
    6.4978   -0.7844    1.5220 H   0  0  0  0  0  0  0  0  0  0  0  0
    4.8791   -0.2651    1.9703 H   0  0  0  0  0  0  0  0  0  0  0  0
    2.8637   -2.5490   -0.0660 H   0  0  0  0  0  0  0  0  0  0  0  0
    3.3893   -0.9865   -0.6251 H   0  0  0  0  0  0  0  0  0  0  0  0
    2.9044   -1.1701    1.0301 H   0  0  0  0  0  0  0  0  0  0  0  0
    5.3894   -1.5837   -1.4879 H   0  0  0  0  0  0  0  0  0  0  0  0
    7.4317   -3.0562   -0.9451 H   0  0  0  0  0  0  0  0  0  0  0  0
    4.1860   -3.7335   -1.5049 H   0  0  0  0  0  0  0  0  0  0  0  0
    5.7572   -3.8952   -2.2016 H   0  0  0  0  0  0  0  0  0  0  0  0
    5.3059   -5.7651   -0.6849 H   0  0  0  0  0  0  0  0  0  0  0  0
    6.6804   -4.8459   -0.2087 H   0  0  0  0  0  0  0  0  0  0  0  0
    5.8340   -5.4983    3.1082 H   0  0  0  0  0  0  0  0  0  0  0  0
    7.0721   -4.8944    2.0376 H   0  0  0  0  0  0  0  0  0  0  0  0
    6.3334   -6.4050    1.6834 H   0  0  0  0  0  0  0  0  0  0  0  0
    6.1406   -2.9903    1.8870 H   0  0  0  0  0  0  0  0  0  0  0  0
    5.0766   -3.4411    3.7728 H   0  0  0  0  0  0  0  0  0  0  0  0
    4.4152   -1.9152    3.3402 H   0  0  0  0  0  0  0  0  0  0  0  0
    2.8348   -3.5354    4.3083 H   0  0  0  0  0  0  0  0  0  0  0  0
    2.1338   -1.8900    2.9440 H   0  0  0  0  0  0  0  0  0  0  0  0
    2.9942   -7.7796    4.6873 H   0  0  0  0  0  0  0  0  0  0  0  0
    0.7913   -5.3046    2.0844 H   0  0  0  0  0  0  0  0  0  0  0  0
   -0.1879   -8.0178    2.2890 H   0  0  0  0  0  0  0  0  0  0  0  0
   -0.2014   -7.6725    4.0033 H   0  0  0  0  0  0  0  0  0  0  0  0
    0.7261   -9.0272    3.4006 H   0  0  0  0  0  0  0  0  0  0  0  0
    2.6586   -8.7101    1.8190 H   0  0  0  0  0  0  0  0  0  0  0  0
    1.6629   -7.6413    0.8790 H   0  0  0  0  0  0  0  0  0  0  0  0
    4.4702   -7.3447    1.7754 H   0  0  0  0  0  0  0  0  0  0  0  0
    3.8394   -7.1520    0.1716 H   0  0  0  0  0  0  0  0  0  0  0  0
    3.0744   -5.1381   -0.4685 H   0  0  0  0  0  0  0  0  0  0  0  0
  1  2  1  0
  1 27  1  0
  1 28  1  0
  1 29  1  0
  2 10  1  0
  2  3  1  0
  2  4  1  0
  3 30  1  0
  3 31  1  0
  3 32  1  0
  4  5  1  0
  4  6  1  0
  4 33  1  6
  5 34  1  0
  6  7  1  0
  6 35  1  0
  6 36  1  0
  7  8  1  0
  7 37  1  0
  7 38  1  0
  8 25  1  0
  8  9  1  1
  8 10  1  0
  9 39  1  0
  9 40  1  0
  9 41  1  0
 10 11  1  0
 10 42  1  1
 11 12  1  0
 11 43  1  0
 11 44  1  0
 12 13  1  0
 12 14  1  0
 12 45  1  1
 13 46  1  0
 14 20  1  0
 14 25  1  0
 14 15  1  1
 15 16  1  0
 16 21  1  0
 16 17  1  0
 16 47  1  1
 17 18  2  0
 17 19  1  0
 19 20  1  0
 20 21  1  0
 20 48  1  6
 21 22  1  1
 21 23  1  0
 22 49  1  0
 22 50  1  0
 22 51  1  0
 23 24  1  0
 23 52  1  0
 23 53  1  0
 24 25  1  0
 24 54  1  0
 24 55  1  0
 25 26  1  6
 26 56  1  0
M  END
>  <i_m_ct_stereo_status>  (327) 
1

>  <s_m_source_file>  (327) 
/var/tmp/pbs.5076255.sched01/tmpu61_44ix/12937f0afz8.sdf

>  <i_m_source_file_index>  (327) 
8

>  <i_lp_mmshare_version>  (327) 
48012

>  <i_f3d_flags>  (327) 
0

>  <s_epik_input>  (327) 
W0NIMl0xW0NIMl1bQ0BIXShbT0hdKUMoW0NIM10pKFtDSDNdKVtDQEBIXShbQ0gyXVtDQEhdMltPSF0pW0NAQF0xKFtDSDNdKVtDQEBdMyhbT0hdKVtDSDJdW0NIMl1bQ0BAXShbQ0BASF00W0NAXTIzNSkoW0NIM10pW0NAQEhdKE81KUMoPU8pTzQ=

>  <s_epik_cmdline>  (327) 
J2VwaWtfcHl0aG9uJywgJy1waHQnLCAnMi4wJywgJy1waCcsICc3LjAnLCAnLXRuJywgJzgnLCAnLW1hJywgJzIwMCcsICctaW1hZScsICc8aW5maWxlLm1hZT4nLCAnLW9tYWUnLCAnPG91dGZpbGUubWFlPic=

>  <r_lp_tautomer_probability>  (327) 
1

>  <r_epik_Ionization_Penalty>  (327) 
1.58321e-06

>  <r_epik_Ionization_Penalty_Charging>  (327) 
0

>  <r_epik_Ionization_Penalty_Neutral>  (327) 
1.58321e-06

>  <r_epik_State_Penalty>  (327) 
-0

>  <r_epik_Charging_Adjusted_Penalty>  (327) 
0

>  <i_epik_Tot_Q>  (327) 
0

>  <i_epik_Tot_abs_Q>  (327) 
0

>  <s_epik_Chemistry_Notes>  (327) 
This compound has an ester and may undergo hydrolysis at high or low pH.

>  <s_lp_Force_Field>  (327) 
OPLS3e

>  <r_lp_Energy>  (327) 
77.4057

>  <b_lp_Chiralities_Consistent>  (327) 
1

>  <s_lp_Variant>  (327) 
95:0-1

>  <s_i_glide_gridfile>  (327) 
pfpi4k_grid

>  <i_i_glide_lignum>  (327) 
8

>  <i_i_glide_rotatable_bonds>  (327) 
3

>  <r_i_docking_score>  (327) 
-3.11028

>  <r_i_glide_ligand_efficiency>  (327) 
-0.119626

>  <r_i_glide_ligand_efficiency_sa>  (327) 
-0.354392

>  <r_i_glide_ligand_efficiency_ln>  (327) 
-0.73044

>  <r_i_glide_gscore>  (327) 
-3.11028

>  <r_i_glide_lipo>  (327) 
-0.453949

>  <r_i_glide_hbond>  (327) 
-0.139303

>  <r_i_glide_metal>  (327) 
-0

>  <r_i_glide_rewards>  (327) 
-0.910578

>  <r_i_glide_evdw>  (327) 
-24.8111

>  <r_i_glide_ecoul>  (327) 
-2.43152

>  <r_i_glide_erotb>  (327) 
0

>  <r_i_glide_esite>  (327) 
-0.00117114

>  <r_i_glide_emodel>  (327) 
-32.2342

>  <r_i_glide_energy>  (327) 
-27.2426

>  <r_i_glide_einternal>  (327) 
1.8118

>  <r_i_glide_intrahb_reward>  (327) 
-0

>  <i_i_glide_confnum>  (327) 
1

>  <i_i_glide_posenum>  (327) 
1

>  <r_i_glide_eff_state_penalty>  (327) 
0

>  <ligand_id>  (327) 
95

>  <original_smiles>  (327) 
CC1(C)C(O)CCC2(C)C1CC(O)C13OC4C(=O)OC1C4(C)CCC23O

>  <smiles>  (327) 
[H]OC1([H])C([H])([H])C2([H])C(C([H])([H])[H])(C([H])([H])[H])C([H])(O[H])C([H])([H])C([H])([H])C2(C([H])([H])[H])C2(O[H])C([H])([H])C([H])([H])C3(C([H])([H])[H])C4([H])OC12C3([H])OC4=O

$$$$
96:0:0
     RDKit          3D

 18 19  0  0  1  0  0  0  0  0999 V2000
    3.4694    0.5322   -4.7623 C   0  0  0  0  0  0  0  0  0  0  0  0
    3.6119   -0.8802   -4.7193 O   0  0  0  0  0  0  0  0  0  0  0  0
    3.4119   -1.4817   -3.5028 C   0  0  0  0  0  0  0  0  0  0  0  0
    2.6253   -2.6593   -3.4680 C   0  0  0  0  0  0  0  0  0  0  0  0
    2.4111   -3.3412   -2.2968 C   0  0  0  0  0  0  0  0  0  0  0  0
    3.0122   -2.8780   -1.0975 C   0  0  0  0  0  0  0  0  0  0  0  0
    3.0241   -3.3153    0.1658 N   0  0  0  0  0  0  0  0  0  0  0  0
    3.7922   -2.4275    0.9082 N   0  0  0  0  0  0  0  0  0  0  0  0
    4.2348   -1.4720    0.0848 C   0  0  0  0  0  0  0  0  0  0  0  0
    3.7846   -1.7045   -1.1782 N   0  0  0  0  0  0  0  0  0  0  0  0
    3.9854   -1.0103   -2.3382 C   0  0  0  0  0  0  0  0  0  0  0  0
    3.5839    0.8423   -5.8006 H   0  0  0  0  0  0  0  0  0  0  0  0
    4.2124    1.0670   -4.1721 H   0  0  0  0  0  0  0  0  0  0  0  0
    2.4718    0.8422   -4.4468 H   0  0  0  0  0  0  0  0  0  0  0  0
    2.1704   -3.0426   -4.3739 H   0  0  0  0  0  0  0  0  0  0  0  0
    1.8112   -4.2456   -2.2849 H   0  0  0  0  0  0  0  0  0  0  0  0
    4.8512   -0.6392    0.3909 H   0  0  0  0  0  0  0  0  0  0  0  0
    4.5986   -0.1190   -2.2717 H   0  0  0  0  0  0  0  0  0  0  0  0
  1  2  1  0
  1 12  1  0
  1 13  1  0
  1 14  1  0
  2  3  1  0
  3 11  2  0
  3  4  1  0
  4  5  2  0
  4 15  1  0
  5  6  1  0
  5 16  1  0
  6 10  1  0
  6  7  2  0
  7  8  1  0
  8  9  2  0
  9 10  1  0
  9 17  1  0
 10 11  1  0
 11 18  1  0
M  END
>  <i_m_ct_stereo_status>  (328) 
1

>  <s_m_source_file>  (328) 
/var/tmp/pbs.5076255.sched01/tmpu61_44ix/12937f0afz8.sdf

>  <i_m_source_file_index>  (328) 
9

>  <i_lp_mmshare_version>  (328) 
48012

>  <i_f3d_flags>  (328) 
0

>  <s_epik_input>  (328) 
W0NIM11PYyhbY0hdW2NIXTEpW2NIXW4oYzEyKVtjSF1ubjI=

>  <s_epik_cmdline>  (328) 
J2VwaWtfcHl0aG9uJywgJy1waHQnLCAnMi4wJywgJy1waCcsICc3LjAnLCAnLXRuJywgJzgnLCAnLW1hJywgJzIwMCcsICctaW1hZScsICc8aW5maWxlLm1hZT4nLCAnLW9tYWUnLCAnPG91dGZpbGUubWFlPic=

>  <r_lp_tautomer_probability>  (328) 
1

>  <r_epik_Ionization_Penalty>  (328) 
1.71849e-05

>  <r_epik_Ionization_Penalty_Charging>  (328) 
0

>  <r_epik_Ionization_Penalty_Neutral>  (328) 
1.71849e-05

>  <r_epik_State_Penalty>  (328) 
-0

>  <r_epik_Charging_Adjusted_Penalty>  (328) 
0

>  <i_epik_Tot_Q>  (328) 
0

>  <i_epik_Tot_abs_Q>  (328) 
0

>  <s_lp_Force_Field>  (328) 
OPLS3e

>  <r_lp_Energy>  (328) 
13.0029

>  <b_lp_Chiralities_Consistent>  (328) 
1

>  <s_lp_Variant>  (328) 
96:0-1

>  <s_i_glide_gridfile>  (328) 
pfpi4k_grid

>  <i_i_glide_lignum>  (328) 
9

>  <i_i_glide_rotatable_bonds>  (328) 
1

>  <r_i_docking_score>  (328) 
-4.57417

>  <r_i_glide_ligand_efficiency>  (328) 
-0.415834

>  <r_i_glide_ligand_efficiency_sa>  (328) 
-0.924806

>  <r_i_glide_ligand_efficiency_ln>  (328) 
-1.34618

>  <r_i_glide_gscore>  (328) 
-4.57417

>  <r_i_glide_lipo>  (328) 
-0.600294

>  <r_i_glide_hbond>  (328) 
-0.21335

>  <r_i_glide_metal>  (328) 
-0

>  <r_i_glide_rewards>  (328) 
-2.25

>  <r_i_glide_evdw>  (328) 
-19.5166

>  <r_i_glide_ecoul>  (328) 
-2.65709

>  <r_i_glide_erotb>  (328) 
0

>  <r_i_glide_esite>  (328) 
-0.136133

>  <r_i_glide_emodel>  (328) 
-26.9315

>  <r_i_glide_energy>  (328) 
-22.1737

>  <r_i_glide_einternal>  (328) 
2.91125

>  <r_i_glide_intrahb_reward>  (328) 
-0

>  <i_i_glide_confnum>  (328) 
1

>  <i_i_glide_posenum>  (328) 
2

>  <r_i_glide_eff_state_penalty>  (328) 
0

>  <ligand_id>  (328) 
96

>  <original_smiles>  (328) 
COc1ccc2nncn2c1

>  <smiles>  (328) 
[H]c1c(OC([H])([H])[H])c([H])n2c([H])nnc2c1[H]

$$$$
96:0:1
     RDKit          3D

 18 19  0  0  1  0  0  0  0  0999 V2000
    3.4794    0.1700   -4.9248 C   0  0  0  0  0  0  0  0  0  0  0  0
    3.6525   -1.2061   -4.5964 O   0  0  0  0  0  0  0  0  0  0  0  0
    3.7078   -1.5113   -3.2552 C   0  0  0  0  0  0  0  0  0  0  0  0
    4.4540   -0.7346   -2.3267 C   0  0  0  0  0  0  0  0  0  0  0  0
    4.4887   -1.0517   -0.9928 C   0  0  0  0  0  0  0  0  0  0  0  0
    3.7533   -2.1628   -0.5240 C   0  0  0  0  0  0  0  0  0  0  0  0
    3.5833   -2.7037    0.6854 N   0  0  0  0  0  0  0  0  0  0  0  0
    2.7576   -3.8065    0.5315 N   0  0  0  0  0  0  0  0  0  0  0  0
    2.4371   -3.9007   -0.7574 C   0  0  0  0  0  0  0  0  0  0  0  0
    3.0406   -2.9132   -1.4704 N   0  0  0  0  0  0  0  0  0  0  0  0
    3.0258   -2.6233   -2.8082 C   0  0  0  0  0  0  0  0  0  0  0  0
    3.5505    0.3055   -6.0061 H   0  0  0  0  0  0  0  0  0  0  0  0
    4.2152    0.8396   -4.4793 H   0  0  0  0  0  0  0  0  0  0  0  0
    2.4868    0.4919   -4.6081 H   0  0  0  0  0  0  0  0  0  0  0  0
    5.0132    0.1356   -2.6479 H   0  0  0  0  0  0  0  0  0  0  0  0
    5.0351   -0.4372   -0.2866 H   0  0  0  0  0  0  0  0  0  0  0  0
    1.8113   -4.6712   -1.1840 H   0  0  0  0  0  0  0  0  0  0  0  0
    2.4408   -3.2724   -3.4527 H   0  0  0  0  0  0  0  0  0  0  0  0
  1  2  1  0
  1 12  1  0
  1 13  1  0
  1 14  1  0
  2  3  1  0
  3 11  2  0
  3  4  1  0
  4  5  2  0
  4 15  1  0
  5  6  1  0
  5 16  1  0
  6 10  1  0
  6  7  2  0
  7  8  1  0
  8  9  2  0
  9 10  1  0
  9 17  1  0
 10 11  1  0
 11 18  1  0
M  END
>  <i_m_ct_stereo_status>  (329) 
1

>  <s_m_source_file>  (329) 
/var/tmp/pbs.5076255.sched01/tmpu61_44ix/12937f0afz8.sdf

>  <i_m_source_file_index>  (329) 
9

>  <i_lp_mmshare_version>  (329) 
48012

>  <i_f3d_flags>  (329) 
0

>  <s_epik_input>  (329) 
W0NIM11PYyhbY0hdW2NIXTEpW2NIXW4oYzEyKVtjSF1ubjI=

>  <s_epik_cmdline>  (329) 
J2VwaWtfcHl0aG9uJywgJy1waHQnLCAnMi4wJywgJy1waCcsICc3LjAnLCAnLXRuJywgJzgnLCAnLW1hJywgJzIwMCcsICctaW1hZScsICc8aW5maWxlLm1hZT4nLCAnLW9tYWUnLCAnPG91dGZpbGUubWFlPic=

>  <r_lp_tautomer_probability>  (329) 
1

>  <r_epik_Ionization_Penalty>  (329) 
1.71849e-05

>  <r_epik_Ionization_Penalty_Charging>  (329) 
0

>  <r_epik_Ionization_Penalty_Neutral>  (329) 
1.71849e-05

>  <r_epik_State_Penalty>  (329) 
-0

>  <r_epik_Charging_Adjusted_Penalty>  (329) 
0

>  <i_epik_Tot_Q>  (329) 
0

>  <i_epik_Tot_abs_Q>  (329) 
0

>  <s_lp_Force_Field>  (329) 
OPLS3e

>  <r_lp_Energy>  (329) 
13.0029

>  <b_lp_Chiralities_Consistent>  (329) 
1

>  <s_lp_Variant>  (329) 
96:0-1

>  <s_i_glide_gridfile>  (329) 
pfpi4k_grid

>  <i_i_glide_lignum>  (329) 
9

>  <i_i_glide_rotatable_bonds>  (329) 
1

>  <r_i_docking_score>  (329) 
-4.34712

>  <r_i_glide_ligand_efficiency>  (329) 
-0.395193

>  <r_i_glide_ligand_efficiency_sa>  (329) 
-0.878901

>  <r_i_glide_ligand_efficiency_ln>  (329) 
-1.27936

>  <r_i_glide_gscore>  (329) 
-4.34712

>  <r_i_glide_lipo>  (329) 
-0.229824

>  <r_i_glide_hbond>  (329) 
-0.31972

>  <r_i_glide_metal>  (329) 
-0

>  <r_i_glide_rewards>  (329) 
-2.25

>  <r_i_glide_evdw>  (329) 
-18.9175

>  <r_i_glide_ecoul>  (329) 
-3.0141

>  <r_i_glide_erotb>  (329) 
0

>  <r_i_glide_esite>  (329) 
-0.149587

>  <r_i_glide_emodel>  (329) 
-25.4894

>  <r_i_glide_energy>  (329) 
-21.9316

>  <r_i_glide_einternal>  (329) 
4.71248

>  <r_i_glide_intrahb_reward>  (329) 
-0

>  <i_i_glide_confnum>  (329) 
1

>  <i_i_glide_posenum>  (329) 
11

>  <r_i_glide_eff_state_penalty>  (329) 
0

>  <ligand_id>  (329) 
96

>  <original_smiles>  (329) 
COc1ccc2nncn2c1

>  <smiles>  (329) 
[H]c1c(OC([H])([H])[H])c([H])n2c([H])nnc2c1[H]

$$$$
96:0:2
     RDKit          3D

 18 19  0  0  1  0  0  0  0  0999 V2000
    3.4779    0.2029   -5.0905 C   0  0  0  0  0  0  0  0  0  0  0  0
    4.1963   -0.0224   -3.8842 O   0  0  0  0  0  0  0  0  0  0  0  0
    3.7711   -1.0576   -3.0800 C   0  0  0  0  0  0  0  0  0  0  0  0
    2.9110   -2.0980   -3.5344 C   0  0  0  0  0  0  0  0  0  0  0  0
    2.4862   -3.0825   -2.6929 C   0  0  0  0  0  0  0  0  0  0  0  0
    2.8991   -3.0901   -1.3358 C   0  0  0  0  0  0  0  0  0  0  0  0
    2.6397   -3.8905   -0.2979 N   0  0  0  0  0  0  0  0  0  0  0  0
    3.3390   -3.3900    0.7960 N   0  0  0  0  0  0  0  0  0  0  0  0
    4.0003   -2.3068    0.3990 C   0  0  0  0  0  0  0  0  0  0  0  0
    3.7625   -2.0638   -0.9271 N   0  0  0  0  0  0  0  0  0  0  0  0
    4.2011   -1.0709   -1.7637 C   0  0  0  0  0  0  0  0  0  0  0  0
    3.9111    1.0240   -5.6557 H   0  0  0  0  0  0  0  0  0  0  0  0
    2.4275    0.4419   -4.9030 H   0  0  0  0  0  0  0  0  0  0  0  0
    3.5149   -0.6586   -5.7513 H   0  0  0  0  0  0  0  0  0  0  0  0
    2.5543   -2.1590   -4.5560 H   0  0  0  0  0  0  0  0  0  0  0  0
    1.8280   -3.8748   -3.0378 H   0  0  0  0  0  0  0  0  0  0  0  0
    4.6159   -1.6926    1.0465 H   0  0  0  0  0  0  0  0  0  0  0  0
    4.8368   -0.3005   -1.3320 H   0  0  0  0  0  0  0  0  0  0  0  0
  1  2  1  0
  1 12  1  0
  1 13  1  0
  1 14  1  0
  2  3  1  0
  3 11  2  0
  3  4  1  0
  4  5  2  0
  4 15  1  0
  5  6  1  0
  5 16  1  0
  6 10  1  0
  6  7  2  0
  7  8  1  0
  8  9  2  0
  9 10  1  0
  9 17  1  0
 10 11  1  0
 11 18  1  0
M  END
>  <i_m_ct_stereo_status>  (330) 
1

>  <s_m_source_file>  (330) 
/var/tmp/pbs.5076255.sched01/tmpu61_44ix/12937f0afz8.sdf

>  <i_m_source_file_index>  (330) 
9

>  <i_lp_mmshare_version>  (330) 
48012

>  <i_f3d_flags>  (330) 
0

>  <s_epik_input>  (330) 
W0NIM11PYyhbY0hdW2NIXTEpW2NIXW4oYzEyKVtjSF1ubjI=

>  <s_epik_cmdline>  (330) 
J2VwaWtfcHl0aG9uJywgJy1waHQnLCAnMi4wJywgJy1waCcsICc3LjAnLCAnLXRuJywgJzgnLCAnLW1hJywgJzIwMCcsICctaW1hZScsICc8aW5maWxlLm1hZT4nLCAnLW9tYWUnLCAnPG91dGZpbGUubWFlPic=

>  <r_lp_tautomer_probability>  (330) 
1

>  <r_epik_Ionization_Penalty>  (330) 
1.71849e-05

>  <r_epik_Ionization_Penalty_Charging>  (330) 
0

>  <r_epik_Ionization_Penalty_Neutral>  (330) 
1.71849e-05

>  <r_epik_State_Penalty>  (330) 
-0

>  <r_epik_Charging_Adjusted_Penalty>  (330) 
0

>  <i_epik_Tot_Q>  (330) 
0

>  <i_epik_Tot_abs_Q>  (330) 
0

>  <s_lp_Force_Field>  (330) 
OPLS3e

>  <r_lp_Energy>  (330) 
13.0029

>  <b_lp_Chiralities_Consistent>  (330) 
1

>  <s_lp_Variant>  (330) 
96:0-1

>  <s_i_glide_gridfile>  (330) 
pfpi4k_grid

>  <i_i_glide_lignum>  (330) 
9

>  <i_i_glide_rotatable_bonds>  (330) 
1

>  <r_i_docking_score>  (330) 
-4.05154

>  <r_i_glide_ligand_efficiency>  (330) 
-0.368322

>  <r_i_glide_ligand_efficiency_sa>  (330) 
-0.81914

>  <r_i_glide_ligand_efficiency_ln>  (330) 
-1.19237

>  <r_i_glide_gscore>  (330) 
-4.05154

>  <r_i_glide_lipo>  (330) 
-0.459627

>  <r_i_glide_hbond>  (330) 
0

>  <r_i_glide_metal>  (330) 
-0

>  <r_i_glide_rewards>  (330) 
-2.26028

>  <r_i_glide_evdw>  (330) 
-18.8692

>  <r_i_glide_ecoul>  (330) 
-1.8415

>  <r_i_glide_erotb>  (330) 
0

>  <r_i_glide_esite>  (330) 
-0.111943

>  <r_i_glide_emodel>  (330) 
-24.3353

>  <r_i_glide_energy>  (330) 
-20.7107

>  <r_i_glide_einternal>  (330) 
3.86276

>  <r_i_glide_intrahb_reward>  (330) 
-0

>  <i_i_glide_confnum>  (330) 
2

>  <i_i_glide_posenum>  (330) 
25

>  <r_i_glide_eff_state_penalty>  (330) 
0

>  <ligand_id>  (330) 
96

>  <original_smiles>  (330) 
COc1ccc2nncn2c1

>  <smiles>  (330) 
[H]c1c(OC([H])([H])[H])c([H])n2c([H])nnc2c1[H]

$$$$
98:0:0
     RDKit          3D

 35 38  0  0  1  0  0  0  0  0999 V2000
    0.0068    5.3444    3.4048 C   0  0  0  0  0  0  0  0  0  0  0  0
   -0.7915    4.1334    3.5579 N   0  0  0  0  0  0  0  0  0  0  0  0
   -2.1253    4.2735    3.6740 N   0  0  0  0  0  0  0  0  0  0  0  0
   -2.5915    3.0316    3.7666 C   0  0  0  0  0  0  0  0  0  0  0  0
   -1.5730    2.0456    3.7257 C   0  0  0  0  0  0  0  0  0  0  0  0
   -0.4365    2.7872    3.5750 C   0  0  0  0  0  0  0  0  0  0  0  0
    0.8784    2.2302    3.4437 C   0  0  0  0  0  0  0  0  0  0  0  0
    1.7977    2.5585    2.2919 C   0  0  0  0  0  0  0  0  0  0  0  0
    2.9887    1.8503    2.6895 N   0  0  0  0  0  0  0  0  0  0  0  0
    2.7992    1.0614    3.7394 C   0  0  0  0  0  0  0  0  0  0  0  0
    3.6736    0.3564    4.2422 O   0  0  0  0  0  0  0  0  0  0  0  0
    1.4308    1.2505    4.1890 C   0  0  0  0  0  0  0  0  0  0  0  0
    0.8914    0.6186    5.4109 C   0  0  0  0  0  0  0  0  0  0  0  0
    0.6459    1.4055    6.5516 C   0  0  0  0  0  0  0  0  0  0  0  0
    0.1215    0.7726    7.6890 C   0  0  0  0  0  0  0  0  0  0  0  0
   -0.1866   -0.5392    7.7187 N   0  0  0  0  0  0  0  0  0  0  0  0
    0.0877   -1.3299    6.6638 C   0  0  0  0  0  0  0  0  0  0  0  0
   -0.2256   -2.6385    6.7262 N   0  0  0  0  0  0  0  0  0  0  0  0
    0.0419   -3.4541    5.6821 C   0  0  0  0  0  0  0  0  0  0  0  0
    0.6177   -2.9975    4.4893 C   0  0  0  0  0  0  0  0  0  0  0  0
    0.9162   -1.6302    4.3818 C   0  0  0  0  0  0  0  0  0  0  0  0
    0.6370   -0.7743    5.4744 C   0  0  0  0  0  0  0  0  0  0  0  0
    3.9123    2.0786    2.3241 H   0  0  0  0  0  0  0  0  0  0  0  0
    0.9531    5.1521    2.9179 H   0  0  0  0  0  0  0  0  0  0  0  0
    0.2182    5.7744    4.3806 H   0  0  0  0  0  0  0  0  0  0  0  0
   -0.5149    6.0675    2.7734 H   0  0  0  0  0  0  0  0  0  0  0  0
   -3.6699    2.9270    3.8569 H   0  0  0  0  0  0  0  0  0  0  0  0
   -1.6690    0.9621    3.7497 H   0  0  0  0  0  0  0  0  0  0  0  0
    2.0645    3.5985    2.1299 H   0  0  0  0  0  0  0  0  0  0  0  0
    1.3873    2.1394    1.3729 H   0  0  0  0  0  0  0  0  0  0  0  0
    0.8765    2.4664    6.5749 H   0  0  0  0  0  0  0  0  0  0  0  0
   -0.0923    1.3296    8.5961 H   0  0  0  0  0  0  0  0  0  0  0  0
   -0.2119   -4.4973    5.8058 H   0  0  0  0  0  0  0  0  0  0  0  0
    0.8242   -3.6788    3.6617 H   0  0  0  0  0  0  0  0  0  0  0  0
    1.3474   -1.2617    3.4565 H   0  0  0  0  0  0  0  0  0  0  0  0
  1  2  1  0
  1 24  1  0
  1 25  1  0
  1 26  1  0
  2  6  1  0
  2  3  1  0
  3  4  2  0
  4  5  1  0
  4 27  1  0
  5  6  2  0
  5 28  1  0
  6  7  1  0
  7 12  2  0
  7  8  1  0
  8 29  1  0
  8 30  1  0
  8  9  1  0
  9 23  1  0
  9 10  1  0
 10 11  2  0
 10 12  1  0
 12 13  1  0
 13 22  1  0
 13 14  2  0
 14 15  1  0
 14 31  1  0
 15 16  2  0
 15 32  1  0
 16 17  1  0
 17 22  2  0
 17 18  1  0
 18 19  2  0
 19 20  1  0
 19 33  1  0
 20 21  2  0
 20 34  1  0
 21 22  1  0
 21 35  1  0
M  END
>  <i_m_ct_stereo_status>  (331) 
1

>  <s_m_source_file>  (331) 
/var/tmp/pbs.5076255.sched01/tmpu61_44ix/12937f0afz8.sdf

>  <i_m_source_file_index>  (331) 
12

>  <i_lp_mmshare_version>  (331) 
48012

>  <i_f3d_flags>  (331) 
0

>  <s_epik_input>  (331) 
W0NIM11uMW5bY0hdW2NIXWMxLWMyW2NIXVtuSF1jKFtPSF0pYzItYyhbY0hdW2NIXW4zKWMoYzM0KVtjSF1bY0hdW2NIXW40

>  <s_epik_cmdline>  (331) 
J2VwaWtfcHl0aG9uJywgJy1waHQnLCAnMi4wJywgJy1waCcsICc3LjAnLCAnLXRuJywgJzgnLCAnLW1hJywgJzIwMCcsICctaW1hZScsICc8aW5maWxlLm1hZT4nLCAnLW9tYWUnLCAnPG91dGZpbGUubWFlPic=

>  <r_lp_tautomer_probability>  (331) 
0.961759

>  <r_epik_Ionization_Penalty>  (331) 
0.0658706

>  <r_epik_Ionization_Penalty_Charging>  (331) 
0

>  <r_epik_Ionization_Penalty_Neutral>  (331) 
0.0658706

>  <r_epik_State_Penalty>  (331) 
0.0744404

>  <r_epik_Charging_Adjusted_Penalty>  (331) 
0.0744404

>  <i_epik_Tot_Q>  (331) 
0

>  <i_epik_Tot_abs_Q>  (331) 
0

>  <s_lp_Force_Field>  (331) 
OPLS3e

>  <r_lp_Energy>  (331) 
34.9797

>  <b_lp_Chiralities_Consistent>  (331) 
1

>  <s_lp_Variant>  (331) 
98:0-1

>  <s_i_glide_gridfile>  (331) 
pfpi4k_grid

>  <i_i_glide_lignum>  (331) 
12

>  <i_i_glide_rotatable_bonds>  (331) 
2

>  <r_i_docking_score>  (331) 
-4.07684

>  <r_i_glide_ligand_efficiency>  (331) 
-0.185311

>  <r_i_glide_ligand_efficiency_sa>  (331) 
-0.519248

>  <r_i_glide_ligand_efficiency_ln>  (331) 
-0.996528

>  <r_i_glide_gscore>  (331) 
-4.07684

>  <r_i_glide_lipo>  (331) 
-0.0260559

>  <r_i_glide_hbond>  (331) 
-0.463526

>  <r_i_glide_metal>  (331) 
-0

>  <r_i_glide_rewards>  (331) 
-1.4229

>  <r_i_glide_evdw>  (331) 
-16.7295

>  <r_i_glide_ecoul>  (331) 
-10.6227

>  <r_i_glide_erotb>  (331) 
0.42986

>  <r_i_glide_esite>  (331) 
-0.164332

>  <r_i_glide_emodel>  (331) 
-33.2331

>  <r_i_glide_energy>  (331) 
-27.3522

>  <r_i_glide_einternal>  (331) 
3.91252

>  <r_i_glide_intrahb_reward>  (331) 
-0

>  <i_i_glide_confnum>  (331) 
5

>  <i_i_glide_posenum>  (331) 
36

>  <r_i_glide_eff_state_penalty>  (331) 
0

>  <ligand_id>  (331) 
98

>  <original_smiles>  (331) 
Cn1nccc1-c1c[nH]c(O)c1-c1ccnc2ncccc12

>  <smiles>  (331) 
[H]c1nc2nc([H])c([H])c(C3=C(c4c([H])c([H])nn4C([H])([H])[H])C([H])([H])N([H])C3=O)c2c([H])c1[H]

$$$$
98:0:1
     RDKit          3D

 35 38  0  0  1  0  0  0  0  0999 V2000
    2.0944   -6.5935    5.2143 C   0  0  0  0  0  0  0  0  0  0  0  0
    3.4441   -7.1052    5.0134 N   0  0  0  0  0  0  0  0  0  0  0  0
    4.4562   -6.2105    5.0711 N   0  0  0  0  0  0  0  0  0  0  0  0
    5.5572   -6.9129    4.8861 C   0  0  0  0  0  0  0  0  0  0  0  0
    5.2924   -8.2955    4.6937 C   0  0  0  0  0  0  0  0  0  0  0  0
    3.9235   -8.3707    4.7299 C   0  0  0  0  0  0  0  0  0  0  0  0
    3.2144   -9.6003    4.4783 C   0  0  0  0  0  0  0  0  0  0  0  0
    3.7216  -10.9269    4.9941 C   0  0  0  0  0  0  0  0  0  0  0  0
    2.5843  -11.7738    4.6969 N   0  0  0  0  0  0  0  0  0  0  0  0
    1.6649  -11.1592    3.9666 C   0  0  0  0  0  0  0  0  0  0  0  0
    0.6339  -11.7022    3.5498 O   0  0  0  0  0  0  0  0  0  0  0  0
    2.0281   -9.7667    3.8459 C   0  0  0  0  0  0  0  0  0  0  0  0
    1.1902   -8.7850    3.1022 C   0  0  0  0  0  0  0  0  0  0  0  0
   -0.1999   -8.7596    3.3703 C   0  0  0  0  0  0  0  0  0  0  0  0
   -1.0031   -7.7933    2.7588 C   0  0  0  0  0  0  0  0  0  0  0  0
   -0.5148   -6.8458    1.9353 N   0  0  0  0  0  0  0  0  0  0  0  0
    0.8072   -6.8452    1.6231 C   0  0  0  0  0  0  0  0  0  0  0  0
    1.2677   -5.8706    0.8009 N   0  0  0  0  0  0  0  0  0  0  0  0
    2.5915   -5.7881    0.5277 C   0  0  0  0  0  0  0  0  0  0  0  0
    3.5314   -6.7105    1.0198 C   0  0  0  0  0  0  0  0  0  0  0  0
    3.0711   -7.7688    1.8039 C   0  0  0  0  0  0  0  0  0  0  0  0
    1.7025   -7.8268    2.1777 C   0  0  0  0  0  0  0  0  0  0  0  0
    2.4665  -12.7157    5.0560 H   0  0  0  0  0  0  0  0  0  0  0  0
    1.4325   -7.4096    5.4928 H   0  0  0  0  0  0  0  0  0  0  0  0
    1.7440   -6.1351    4.2907 H   0  0  0  0  0  0  0  0  0  0  0  0
    2.0624   -5.8314    5.9957 H   0  0  0  0  0  0  0  0  0  0  0  0
    6.4902   -6.3820    4.8502 H   0  0  0  0  0  0  0  0  0  0  0  0
    5.9765   -9.1146    4.4902 H   0  0  0  0  0  0  0  0  0  0  0  0
    3.9599  -10.9328    6.0545 H   0  0  0  0  0  0  0  0  0  0  0  0
    4.5810  -11.2542    4.4098 H   0  0  0  0  0  0  0  0  0  0  0  0
   -0.6495   -9.4559    4.0656 H   0  0  0  0  0  0  0  0  0  0  0  0
   -2.0729   -7.7726    2.9370 H   0  0  0  0  0  0  0  0  0  0  0  0
    2.9158   -4.9965   -0.1343 H   0  0  0  0  0  0  0  0  0  0  0  0
    4.5900   -6.6189    0.8159 H   0  0  0  0  0  0  0  0  0  0  0  0
    3.7783   -8.4958    2.1633 H   0  0  0  0  0  0  0  0  0  0  0  0
  1  2  1  0
  1 24  1  0
  1 25  1  0
  1 26  1  0
  2  6  1  0
  2  3  1  0
  3  4  2  0
  4  5  1  0
  4 27  1  0
  5  6  2  0
  5 28  1  0
  6  7  1  0
  7 12  2  0
  7  8  1  0
  8 29  1  0
  8 30  1  0
  8  9  1  0
  9 23  1  0
  9 10  1  0
 10 11  2  0
 10 12  1  0
 12 13  1  0
 13 22  1  0
 13 14  2  0
 14 15  1  0
 14 31  1  0
 15 16  2  0
 15 32  1  0
 16 17  1  0
 17 22  2  0
 17 18  1  0
 18 19  2  0
 19 20  1  0
 19 33  1  0
 20 21  2  0
 20 34  1  0
 21 22  1  0
 21 35  1  0
M  END
>  <i_m_ct_stereo_status>  (332) 
1

>  <s_m_source_file>  (332) 
/var/tmp/pbs.5076255.sched01/tmpu61_44ix/12937f0afz8.sdf

>  <i_m_source_file_index>  (332) 
12

>  <i_lp_mmshare_version>  (332) 
48012

>  <i_f3d_flags>  (332) 
0

>  <s_epik_input>  (332) 
W0NIM11uMW5bY0hdW2NIXWMxLWMyW2NIXVtuSF1jKFtPSF0pYzItYyhbY0hdW2NIXW4zKWMoYzM0KVtjSF1bY0hdW2NIXW40

>  <s_epik_cmdline>  (332) 
J2VwaWtfcHl0aG9uJywgJy1waHQnLCAnMi4wJywgJy1waCcsICc3LjAnLCAnLXRuJywgJzgnLCAnLW1hJywgJzIwMCcsICctaW1hZScsICc8aW5maWxlLm1hZT4nLCAnLW9tYWUnLCAnPG91dGZpbGUubWFlPic=

>  <r_lp_tautomer_probability>  (332) 
0.961759

>  <r_epik_Ionization_Penalty>  (332) 
0.0658706

>  <r_epik_Ionization_Penalty_Charging>  (332) 
0

>  <r_epik_Ionization_Penalty_Neutral>  (332) 
0.0658706

>  <r_epik_State_Penalty>  (332) 
0.0744404

>  <r_epik_Charging_Adjusted_Penalty>  (332) 
0.0744404

>  <i_epik_Tot_Q>  (332) 
0

>  <i_epik_Tot_abs_Q>  (332) 
0

>  <s_lp_Force_Field>  (332) 
OPLS3e

>  <r_lp_Energy>  (332) 
34.9797

>  <b_lp_Chiralities_Consistent>  (332) 
1

>  <s_lp_Variant>  (332) 
98:0-1

>  <s_i_glide_gridfile>  (332) 
pfpi4k_grid

>  <i_i_glide_lignum>  (332) 
12

>  <i_i_glide_rotatable_bonds>  (332) 
2

>  <r_i_docking_score>  (332) 
-3.81363

>  <r_i_glide_ligand_efficiency>  (332) 
-0.173347

>  <r_i_glide_ligand_efficiency_sa>  (332) 
-0.485725

>  <r_i_glide_ligand_efficiency_ln>  (332) 
-0.932191

>  <r_i_glide_gscore>  (332) 
-3.81363

>  <r_i_glide_lipo>  (332) 
-0.0616495

>  <r_i_glide_hbond>  (332) 
-0.32

>  <r_i_glide_metal>  (332) 
-0

>  <r_i_glide_rewards>  (332) 
-1.51615

>  <r_i_glide_evdw>  (332) 
-20.2448

>  <r_i_glide_ecoul>  (332) 
-8.02294

>  <r_i_glide_erotb>  (332) 
0.42986

>  <r_i_glide_esite>  (332) 
-0.130016

>  <r_i_glide_emodel>  (332) 
-34.3655

>  <r_i_glide_energy>  (332) 
-28.2678

>  <r_i_glide_einternal>  (332) 
2.31139

>  <r_i_glide_intrahb_reward>  (332) 
-0

>  <i_i_glide_confnum>  (332) 
4

>  <i_i_glide_posenum>  (332) 
33

>  <r_i_glide_eff_state_penalty>  (332) 
0

>  <ligand_id>  (332) 
98

>  <original_smiles>  (332) 
Cn1nccc1-c1c[nH]c(O)c1-c1ccnc2ncccc12

>  <smiles>  (332) 
[H]c1nc2nc([H])c([H])c(C3=C(c4c([H])c([H])nn4C([H])([H])[H])C([H])([H])N([H])C3=O)c2c([H])c1[H]

$$$$
98:0:2
     RDKit          3D

 35 38  0  0  1  0  0  0  0  0999 V2000
    2.3315   -0.0050    1.6492 C   0  0  0  0  0  0  0  0  0  0  0  0
    2.5264    0.6709    2.9235 N   0  0  0  0  0  0  0  0  0  0  0  0
    3.7427    0.5359    3.4930 N   0  0  0  0  0  0  0  0  0  0  0  0
    3.6826    1.2041    4.6310 C   0  0  0  0  0  0  0  0  0  0  0  0
    2.3914    1.7489    4.8734 C   0  0  0  0  0  0  0  0  0  0  0  0
    1.6817    1.4381    3.7363 C   0  0  0  0  0  0  0  0  0  0  0  0
    0.2973    1.8167    3.4697 C   0  0  0  0  0  0  0  0  0  0  0  0
   -0.4737    1.2388    2.3041 C   0  0  0  0  0  0  0  0  0  0  0  0
   -1.7892    1.7489    2.5343 N   0  0  0  0  0  0  0  0  0  0  0  0
   -1.8295    2.6775    3.4746 C   0  0  0  0  0  0  0  0  0  0  0  0
   -2.8285    3.3519    3.7286 O   0  0  0  0  0  0  0  0  0  0  0  0
   -0.5361    2.6675    4.1475 C   0  0  0  0  0  0  0  0  0  0  0  0
   -0.2188    3.5709    5.2704 C   0  0  0  0  0  0  0  0  0  0  0  0
    0.9187    4.3849    5.1319 C   0  0  0  0  0  0  0  0  0  0  0  0
    1.3024    5.1988    6.2047 C   0  0  0  0  0  0  0  0  0  0  0  0
    0.5919    5.2837    7.3414 N   0  0  0  0  0  0  0  0  0  0  0  0
   -0.5362    4.5727    7.4981 C   0  0  0  0  0  0  0  0  0  0  0  0
   -1.2511    4.7252    8.6294 N   0  0  0  0  0  0  0  0  0  0  0  0
   -2.3797    4.0321    8.8376 C   0  0  0  0  0  0  0  0  0  0  0  0
   -2.8782    3.0988    7.9101 C   0  0  0  0  0  0  0  0  0  0  0  0
   -2.1532    2.9124    6.7121 C   0  0  0  0  0  0  0  0  0  0  0  0
   -0.9828    3.6759    6.4788 C   0  0  0  0  0  0  0  0  0  0  0  0
   -2.6138    1.3896    2.0827 H   0  0  0  0  0  0  0  0  0  0  0  0
    1.5745    0.4697    1.0315 H   0  0  0  0  0  0  0  0  0  0  0  0
    2.0600   -1.0493    1.8333 H   0  0  0  0  0  0  0  0  0  0  0  0
    3.2635    0.0236    1.0800 H   0  0  0  0  0  0  0  0  0  0  0  0
    4.5678    1.2692    5.2473 H   0  0  0  0  0  0  0  0  0  0  0  0
    2.0928    2.2857    5.7641 H   0  0  0  0  0  0  0  0  0  0  0  0
   -0.4771    0.1491    2.2889 H   0  0  0  0  0  0  0  0  0  0  0  0
   -0.1548    1.6538    1.3462 H   0  0  0  0  0  0  0  0  0  0  0  0
    1.5182    4.3428    4.2244 H   0  0  0  0  0  0  0  0  0  0  0  0
    2.2440    5.7308    6.1584 H   0  0  0  0  0  0  0  0  0  0  0  0
   -2.9035    4.2089    9.7689 H   0  0  0  0  0  0  0  0  0  0  0  0
   -3.7996    2.5609    8.1020 H   0  0  0  0  0  0  0  0  0  0  0  0
   -2.5376    2.2035    5.9989 H   0  0  0  0  0  0  0  0  0  0  0  0
  1  2  1  0
  1 24  1  0
  1 25  1  0
  1 26  1  0
  2  6  1  0
  2  3  1  0
  3  4  2  0
  4  5  1  0
  4 27  1  0
  5  6  2  0
  5 28  1  0
  6  7  1  0
  7 12  2  0
  7  8  1  0
  8 29  1  0
  8 30  1  0
  8  9  1  0
  9 23  1  0
  9 10  1  0
 10 11  2  0
 10 12  1  0
 12 13  1  0
 13 22  1  0
 13 14  2  0
 14 15  1  0
 14 31  1  0
 15 16  2  0
 15 32  1  0
 16 17  1  0
 17 22  2  0
 17 18  1  0
 18 19  2  0
 19 20  1  0
 19 33  1  0
 20 21  2  0
 20 34  1  0
 21 22  1  0
 21 35  1  0
M  END
>  <i_m_ct_stereo_status>  (333) 
1

>  <s_m_source_file>  (333) 
/var/tmp/pbs.5076255.sched01/tmpu61_44ix/12937f0afz8.sdf

>  <i_m_source_file_index>  (333) 
12

>  <i_lp_mmshare_version>  (333) 
48012

>  <i_f3d_flags>  (333) 
0

>  <s_epik_input>  (333) 
W0NIM11uMW5bY0hdW2NIXWMxLWMyW2NIXVtuSF1jKFtPSF0pYzItYyhbY0hdW2NIXW4zKWMoYzM0KVtjSF1bY0hdW2NIXW40

>  <s_epik_cmdline>  (333) 
J2VwaWtfcHl0aG9uJywgJy1waHQnLCAnMi4wJywgJy1waCcsICc3LjAnLCAnLXRuJywgJzgnLCAnLW1hJywgJzIwMCcsICctaW1hZScsICc8aW5maWxlLm1hZT4nLCAnLW9tYWUnLCAnPG91dGZpbGUubWFlPic=

>  <r_lp_tautomer_probability>  (333) 
0.961759

>  <r_epik_Ionization_Penalty>  (333) 
0.0658706

>  <r_epik_Ionization_Penalty_Charging>  (333) 
0

>  <r_epik_Ionization_Penalty_Neutral>  (333) 
0.0658706

>  <r_epik_State_Penalty>  (333) 
0.0744404

>  <r_epik_Charging_Adjusted_Penalty>  (333) 
0.0744404

>  <i_epik_Tot_Q>  (333) 
0

>  <i_epik_Tot_abs_Q>  (333) 
0

>  <s_lp_Force_Field>  (333) 
OPLS3e

>  <r_lp_Energy>  (333) 
34.9797

>  <b_lp_Chiralities_Consistent>  (333) 
1

>  <s_lp_Variant>  (333) 
98:0-1

>  <s_i_glide_gridfile>  (333) 
pfpi4k_grid

>  <i_i_glide_lignum>  (333) 
12

>  <i_i_glide_rotatable_bonds>  (333) 
2

>  <r_i_docking_score>  (333) 
-3.2153

>  <r_i_glide_ligand_efficiency>  (333) 
-0.14615

>  <r_i_glide_ligand_efficiency_sa>  (333) 
-0.409518

>  <r_i_glide_ligand_efficiency_ln>  (333) 
-0.785936

>  <r_i_glide_gscore>  (333) 
-3.2153

>  <r_i_glide_lipo>  (333) 
-0.252149

>  <r_i_glide_hbond>  (333) 
-0.20777

>  <r_i_glide_metal>  (333) 
-0

>  <r_i_glide_rewards>  (333) 
-1.4229

>  <r_i_glide_evdw>  (333) 
-22.4504

>  <r_i_glide_ecoul>  (333) 
-4.00744

>  <r_i_glide_erotb>  (333) 
0.42986

>  <r_i_glide_esite>  (333) 
-0.0386971

>  <r_i_glide_emodel>  (333) 
-31.7865

>  <r_i_glide_energy>  (333) 
-26.4578

>  <r_i_glide_einternal>  (333) 
0.0434907

>  <r_i_glide_intrahb_reward>  (333) 
-0

>  <i_i_glide_confnum>  (333) 
1

>  <i_i_glide_posenum>  (333) 
3

>  <r_i_glide_eff_state_penalty>  (333) 
0

>  <ligand_id>  (333) 
98

>  <original_smiles>  (333) 
Cn1nccc1-c1c[nH]c(O)c1-c1ccnc2ncccc12

>  <smiles>  (333) 
[H]c1nc2nc([H])c([H])c(C3=C(c4c([H])c([H])nn4C([H])([H])[H])C([H])([H])N([H])C3=O)c2c([H])c1[H]

$$$$
98:1:0
     RDKit          3D

 36 39  0  0  1  0  0  0  0  0999 V2000
    3.9343    0.2247    3.4803 C   0  0  0  0  0  0  0  0  0  0  0  0
    2.7745    1.0939    3.2292 N   0  0  0  0  0  0  0  0  0  0  0  0
    3.0231    2.2739    2.6468 N   0  0  0  0  0  0  0  0  0  0  0  0
    1.8915    2.9853    2.4829 C   0  0  0  0  0  0  0  0  0  0  0  0
    0.9021    2.1793    2.9883 C   0  0  0  0  0  0  0  0  0  0  0  0
    1.4399    0.9792    3.4904 C   0  0  0  0  0  0  0  0  0  0  0  0
    0.7259   -0.1334    4.1658 C   0  0  0  0  0  0  0  0  0  0  0  0
    1.1252   -1.5716    3.9304 C   0  0  0  0  0  0  0  0  0  0  0  0
    0.2501   -2.2558    4.8316 N   0  0  0  0  0  0  0  0  0  0  0  0
   -0.6781   -1.4549    5.3513 C   0  0  0  0  0  0  0  0  0  0  0  0
   -1.5891   -1.8485    6.0705 O   0  0  0  0  0  0  0  0  0  0  0  0
   -0.3557   -0.0887    4.9729 C   0  0  0  0  0  0  0  0  0  0  0  0
   -1.1703    1.0894    5.3580 C   0  0  0  0  0  0  0  0  0  0  0  0
   -1.8717    1.7388    4.3320 C   0  0  0  0  0  0  0  0  0  0  0  0
   -2.5909    2.8971    4.6248 C   0  0  0  0  0  0  0  0  0  0  0  0
   -2.7444    3.3489    5.8767 N   0  0  0  0  0  0  0  0  0  0  0  0
   -2.1648    2.7119    6.9142 C   0  0  0  0  0  0  0  0  0  0  0  0
   -2.3796    3.1734    8.1633 N   0  0  0  0  0  0  0  0  0  0  0  0
   -1.7865    2.5835    9.2139 C   0  0  0  0  0  0  0  0  0  0  0  0
   -0.9338    1.4771    9.0817 C   0  0  0  0  0  0  0  0  0  0  0  0
   -0.6936    0.9614    7.7964 C   0  0  0  0  0  0  0  0  0  0  0  0
   -1.3312    1.5702    6.6883 C   0  0  0  0  0  0  0  0  0  0  0  0
    0.4822   -3.1698    5.1962 H   0  0  0  0  0  0  0  0  0  0  0  0
    3.6599   -0.8179    3.4665 H   0  0  0  0  0  0  0  0  0  0  0  0
    4.3743    0.4737    4.4487 H   0  0  0  0  0  0  0  0  0  0  0  0
    4.6490    0.3084    2.6620 H   0  0  0  0  0  0  0  0  0  0  0  0
    1.8256    3.9702    2.0028 H   0  0  0  0  0  0  0  0  0  0  0  0
   -0.0991    2.5385    2.9172 H   0  0  0  0  0  0  0  0  0  0  0  0
    2.1112   -1.8665    4.2709 H   0  0  0  0  0  0  0  0  0  0  0  0
    0.9700   -1.8457    2.8810 H   0  0  0  0  0  0  0  0  0  0  0  0
   -1.8526    1.3723    3.3167 H   0  0  0  0  0  0  0  0  0  0  0  0
   -3.0837    3.4509    3.8377 H   0  0  0  0  0  0  0  0  0  0  0  0
   -1.9973    3.0218   10.1791 H   0  0  0  0  0  0  0  0  0  0  0  0
   -0.4814    1.0486    9.9654 H   0  0  0  0  0  0  0  0  0  0  0  0
   -0.0420    0.1055    7.6896 H   0  0  0  0  0  0  0  0  0  0  0  0
    3.9684    2.5477    2.3768 H   0  0  0  0  0  0  0  0  0  0  0  0
  1  2  1  0
  1 24  1  0
  1 25  1  0
  1 26  1  0
  2  6  1  0
  2  3  1  0
  3  4  2  0
  3 36  1  0
  4  5  1  0
  4 27  1  0
  5  6  2  0
  5 28  1  0
  6  7  1  0
  7 12  2  0
  7  8  1  0
  8 29  1  0
  8 30  1  0
  8  9  1  0
  9 23  1  0
  9 10  1  0
 10 11  2  0
 10 12  1  0
 12 13  1  0
 13 22  1  0
 13 14  2  0
 14 15  1  0
 14 31  1  0
 15 16  2  0
 15 32  1  0
 16 17  1  0
 17 22  2  0
 17 18  1  0
 18 19  2  0
 19 20  1  0
 19 33  1  0
 20 21  2  0
 20 34  1  0
 21 22  1  0
 21 35  1  0
M  CHG  1   3   1
M  END
>  <i_m_ct_stereo_status>  (334) 
1

>  <s_m_source_file>  (334) 
/var/tmp/pbs.5076255.sched01/tmpu61_44ix/12937f0afz8.sdf

>  <i_m_source_file_index>  (334) 
13

>  <i_lp_mmshare_version>  (334) 
48012

>  <i_f3d_flags>  (334) 
0

>  <s_epik_input>  (334) 
W0NIM11uMW5bY0hdW2NIXWMxLWMyW2NIXVtuSF1jKFtPSF0pYzItYyhbY0hdW2NIXW4zKWMoYzM0KVtjSF1bY0hdW2NIXW40

>  <s_epik_cmdline>  (334) 
J2VwaWtfcHl0aG9uJywgJy1waHQnLCAnMi4wJywgJy1waCcsICc3LjAnLCAnLXRuJywgJzgnLCAnLW1hJywgJzIwMCcsICctaW1hZScsICc8aW5maWxlLm1hZT4nLCAnLW9tYWUnLCAnPG91dGZpbGUubWFlPic=

>  <r_lp_tautomer_probability>  (334) 
0.961759

>  <r_epik_Ionization_Penalty>  (334) 
1.33423

>  <r_epik_Ionization_Penalty_Charging>  (334) 
1.33417

>  <r_epik_Ionization_Penalty_Neutral>  (334) 
6.37274e-05

>  <r_epik_State_Penalty>  (334) 
1.42783

>  <r_epik_Charging_Adjusted_Penalty>  (334) 
2.762

>  <i_epik_Tot_Q>  (334) 
1

>  <i_epik_Tot_abs_Q>  (334) 
1

>  <s_lp_Force_Field>  (334) 
OPLS3e

>  <r_lp_Energy>  (334) 
43.9415

>  <b_lp_Chiralities_Consistent>  (334) 
1

>  <s_lp_Variant>  (334) 
98:0-2

>  <s_i_glide_gridfile>  (334) 
pfpi4k_grid

>  <i_i_glide_lignum>  (334) 
13

>  <i_i_glide_rotatable_bonds>  (334) 
2

>  <r_i_docking_score>  (334) 
-4.64377

>  <r_i_glide_ligand_efficiency>  (334) 
-0.21108

>  <r_i_glide_ligand_efficiency_sa>  (334) 
-0.591456

>  <r_i_glide_ligand_efficiency_ln>  (334) 
-1.13511

>  <r_i_glide_gscore>  (334) 
-4.64377

>  <r_i_glide_lipo>  (334) 
0

>  <r_i_glide_hbond>  (334) 
-0.00267305

>  <r_i_glide_metal>  (334) 
-0

>  <r_i_glide_rewards>  (334) 
-1.54567

>  <r_i_glide_evdw>  (334) 
-19.126

>  <r_i_glide_ecoul>  (334) 
-16.6329

>  <r_i_glide_erotb>  (334) 
0.427277

>  <r_i_glide_esite>  (334) 
-0.0714682

>  <r_i_glide_emodel>  (334) 
-45.9645

>  <r_i_glide_energy>  (334) 
-35.7589

>  <r_i_glide_einternal>  (334) 
1.1147

>  <r_i_glide_intrahb_reward>  (334) 
-0

>  <i_i_glide_confnum>  (334) 
2

>  <i_i_glide_posenum>  (334) 
3

>  <r_i_glide_eff_state_penalty>  (334) 
0

>  <ligand_id>  (334) 
98

>  <original_smiles>  (334) 
Cn1nccc1-c1c[nH]c(O)c1-c1ccnc2ncccc12

>  <smiles>  (334) 
[H]c1nc2nc([H])c([H])c(C3=C(c4c([H])c([H])[n+]([H])n4C([H])([H])[H])C([H])([H])N([H])C3=O)c2c([H])c1[H]

$$$$
98:1:1
     RDKit          3D

 36 39  0  0  1  0  0  0  0  0999 V2000
   -0.3467    1.6024    2.0828 C   0  0  0  0  0  0  0  0  0  0  0  0
    1.0168    1.1547    2.2752 N   0  0  0  0  0  0  0  0  0  0  0  0
    1.4649    0.0323    1.6861 N   0  0  0  0  0  0  0  0  0  0  0  0
    2.7676   -0.1870    1.9730 C   0  0  0  0  0  0  0  0  0  0  0  0
    3.1473    0.8985    2.7685 C   0  0  0  0  0  0  0  0  0  0  0  0
    2.0465    1.7295    2.9607 C   0  0  0  0  0  0  0  0  0  0  0  0
    2.0941    3.0258    3.6475 C   0  0  0  0  0  0  0  0  0  0  0  0
    2.6965    4.2878    3.0677 C   0  0  0  0  0  0  0  0  0  0  0  0
    2.2885    5.2602    4.0639 N   0  0  0  0  0  0  0  0  0  0  0  0
    1.7106    4.6957    5.1348 C   0  0  0  0  0  0  0  0  0  0  0  0
    1.3892    5.2904    6.1519 O   0  0  0  0  0  0  0  0  0  0  0  0
    1.5222    3.2781    4.8357 C   0  0  0  0  0  0  0  0  0  0  0  0
    0.9266    2.2601    5.7462 C   0  0  0  0  0  0  0  0  0  0  0  0
    1.7445    1.2040    6.1833 C   0  0  0  0  0  0  0  0  0  0  0  0
    1.2117    0.2763    7.0908 C   0  0  0  0  0  0  0  0  0  0  0  0
   -0.0539    0.3309    7.5479 N   0  0  0  0  0  0  0  0  0  0  0  0
   -0.8688    1.3315    7.1488 C   0  0  0  0  0  0  0  0  0  0  0  0
   -2.1307    1.3649    7.6334 N   0  0  0  0  0  0  0  0  0  0  0  0
   -2.9607    2.3507    7.2682 C   0  0  0  0  0  0  0  0  0  0  0  0
   -2.5968    3.3408    6.3489 C   0  0  0  0  0  0  0  0  0  0  0  0
   -1.2946    3.3297    5.8240 C   0  0  0  0  0  0  0  0  0  0  0  0
   -0.4076    2.3143    6.2223 C   0  0  0  0  0  0  0  0  0  0  0  0
    2.4604    6.2605    3.9917 H   0  0  0  0  0  0  0  0  0  0  0  0
   -0.4099    2.6879    2.2028 H   0  0  0  0  0  0  0  0  0  0  0  0
   -0.9895    1.1215    2.8231 H   0  0  0  0  0  0  0  0  0  0  0  0
   -0.6384    1.3448    1.0685 H   0  0  0  0  0  0  0  0  0  0  0  0
    3.3328   -1.0237    1.5700 H   0  0  0  0  0  0  0  0  0  0  0  0
    4.1301    1.1037    3.1305 H   0  0  0  0  0  0  0  0  0  0  0  0
    2.2761    4.4980    2.0876 H   0  0  0  0  0  0  0  0  0  0  0  0
    3.7843    4.2013    2.9979 H   0  0  0  0  0  0  0  0  0  0  0  0
    2.7796    1.1450    5.8689 H   0  0  0  0  0  0  0  0  0  0  0  0
    1.8189   -0.5285    7.4860 H   0  0  0  0  0  0  0  0  0  0  0  0
   -3.9693    2.3539    7.6763 H   0  0  0  0  0  0  0  0  0  0  0  0
   -3.3237    4.0824    6.0537 H   0  0  0  0  0  0  0  0  0  0  0  0
   -0.9865    4.0998    5.1310 H   0  0  0  0  0  0  0  0  0  0  0  0
    0.9236   -0.4550    0.9520 H   0  0  0  0  0  0  0  0  0  0  0  0
  1  2  1  0
  1 24  1  0
  1 25  1  0
  1 26  1  0
  2  6  1  0
  2  3  1  0
  3  4  2  0
  3 36  1  0
  4  5  1  0
  4 27  1  0
  5  6  2  0
  5 28  1  0
  6  7  1  0
  7 12  2  0
  7  8  1  0
  8 29  1  0
  8 30  1  0
  8  9  1  0
  9 23  1  0
  9 10  1  0
 10 11  2  0
 10 12  1  0
 12 13  1  0
 13 22  1  0
 13 14  2  0
 14 15  1  0
 14 31  1  0
 15 16  2  0
 15 32  1  0
 16 17  1  0
 17 22  2  0
 17 18  1  0
 18 19  2  0
 19 20  1  0
 19 33  1  0
 20 21  2  0
 20 34  1  0
 21 22  1  0
 21 35  1  0
M  CHG  1   3   1
M  END
>  <i_m_ct_stereo_status>  (335) 
1

>  <s_m_source_file>  (335) 
/var/tmp/pbs.5076255.sched01/tmpu61_44ix/12937f0afz8.sdf

>  <i_m_source_file_index>  (335) 
13

>  <i_lp_mmshare_version>  (335) 
48012

>  <i_f3d_flags>  (335) 
0

>  <s_epik_input>  (335) 
W0NIM11uMW5bY0hdW2NIXWMxLWMyW2NIXVtuSF1jKFtPSF0pYzItYyhbY0hdW2NIXW4zKWMoYzM0KVtjSF1bY0hdW2NIXW40

>  <s_epik_cmdline>  (335) 
J2VwaWtfcHl0aG9uJywgJy1waHQnLCAnMi4wJywgJy1waCcsICc3LjAnLCAnLXRuJywgJzgnLCAnLW1hJywgJzIwMCcsICctaW1hZScsICc8aW5maWxlLm1hZT4nLCAnLW9tYWUnLCAnPG91dGZpbGUubWFlPic=

>  <r_lp_tautomer_probability>  (335) 
0.961759

>  <r_epik_Ionization_Penalty>  (335) 
1.33423

>  <r_epik_Ionization_Penalty_Charging>  (335) 
1.33417

>  <r_epik_Ionization_Penalty_Neutral>  (335) 
6.37274e-05

>  <r_epik_State_Penalty>  (335) 
1.42783

>  <r_epik_Charging_Adjusted_Penalty>  (335) 
2.762

>  <i_epik_Tot_Q>  (335) 
1

>  <i_epik_Tot_abs_Q>  (335) 
1

>  <s_lp_Force_Field>  (335) 
OPLS3e

>  <r_lp_Energy>  (335) 
43.9415

>  <b_lp_Chiralities_Consistent>  (335) 
1

>  <s_lp_Variant>  (335) 
98:0-2

>  <s_i_glide_gridfile>  (335) 
pfpi4k_grid

>  <i_i_glide_lignum>  (335) 
13

>  <i_i_glide_rotatable_bonds>  (335) 
2

>  <r_i_docking_score>  (335) 
-4.10377

>  <r_i_glide_ligand_efficiency>  (335) 
-0.186535

>  <r_i_glide_ligand_efficiency_sa>  (335) 
-0.522679

>  <r_i_glide_ligand_efficiency_ln>  (335) 
-1.00311

>  <r_i_glide_gscore>  (335) 
-4.10377

>  <r_i_glide_lipo>  (335) 
-0.236405

>  <r_i_glide_hbond>  (335) 
-0.343365

>  <r_i_glide_metal>  (335) 
-0

>  <r_i_glide_rewards>  (335) 
-1.41603

>  <r_i_glide_evdw>  (335) 
-17.6403

>  <r_i_glide_ecoul>  (335) 
-9.69614

>  <r_i_glide_erotb>  (335) 
0.427277

>  <r_i_glide_esite>  (335) 
-0.198813

>  <r_i_glide_emodel>  (335) 
-36.0789

>  <r_i_glide_energy>  (335) 
-27.3364

>  <r_i_glide_einternal>  (335) 
3.96978

>  <r_i_glide_intrahb_reward>  (335) 
-0

>  <i_i_glide_confnum>  (335) 
4

>  <i_i_glide_posenum>  (335) 
20

>  <r_i_glide_eff_state_penalty>  (335) 
0

>  <ligand_id>  (335) 
98

>  <original_smiles>  (335) 
Cn1nccc1-c1c[nH]c(O)c1-c1ccnc2ncccc12

>  <smiles>  (335) 
[H]c1nc2nc([H])c([H])c(C3=C(c4c([H])c([H])[n+]([H])n4C([H])([H])[H])C([H])([H])N([H])C3=O)c2c([H])c1[H]

$$$$
98:1:2
     RDKit          3D

 36 39  0  0  1  0  0  0  0  0999 V2000
   -0.3332   -8.4311    3.2967 C   0  0  0  0  0  0  0  0  0  0  0  0
    0.5836   -9.5658    3.4069 N   0  0  0  0  0  0  0  0  0  0  0  0
    0.2126  -10.6607    4.0766 N   0  0  0  0  0  0  0  0  0  0  0  0
    1.1584  -11.6248    4.0630 C   0  0  0  0  0  0  0  0  0  0  0  0
    2.2106  -11.0567    3.3430 C   0  0  0  0  0  0  0  0  0  0  0  0
    1.8746   -9.7586    2.9878 C   0  0  0  0  0  0  0  0  0  0  0  0
    2.8162   -8.8223    2.3498 C   0  0  0  0  0  0  0  0  0  0  0  0
    3.7887   -9.2816    1.2812 C   0  0  0  0  0  0  0  0  0  0  0  0
    4.3035   -8.0048    0.8128 N   0  0  0  0  0  0  0  0  0  0  0  0
    3.9169   -6.9849    1.5793 C   0  0  0  0  0  0  0  0  0  0  0  0
    4.2589   -5.8115    1.4009 O   0  0  0  0  0  0  0  0  0  0  0  0
    2.9480   -7.4877    2.5404 C   0  0  0  0  0  0  0  0  0  0  0  0
    2.2661   -6.6121    3.5467 C   0  0  0  0  0  0  0  0  0  0  0  0
    1.7186   -5.3900    3.0994 C   0  0  0  0  0  0  0  0  0  0  0  0
    1.0136   -4.5671    4.0006 C   0  0  0  0  0  0  0  0  0  0  0  0
    0.8100   -4.9050    5.2859 N   0  0  0  0  0  0  0  0  0  0  0  0
    1.3136   -6.0556    5.7744 C   0  0  0  0  0  0  0  0  0  0  0  0
    1.0634   -6.3818    7.0604 N   0  0  0  0  0  0  0  0  0  0  0  0
    1.5138   -7.5458    7.5754 C   0  0  0  0  0  0  0  0  0  0  0  0
    2.2867   -8.4563    6.8295 C   0  0  0  0  0  0  0  0  0  0  0  0
    2.6160   -8.1252    5.5084 C   0  0  0  0  0  0  0  0  0  0  0  0
    2.0840   -6.9440    4.9287 C   0  0  0  0  0  0  0  0  0  0  0  0
    4.8402   -7.8719   -0.0383 H   0  0  0  0  0  0  0  0  0  0  0  0
   -0.0137   -7.7985    2.4616 H   0  0  0  0  0  0  0  0  0  0  0  0
   -0.2875   -7.8743    4.2354 H   0  0  0  0  0  0  0  0  0  0  0  0
   -1.3528   -8.7889    3.1379 H   0  0  0  0  0  0  0  0  0  0  0  0
    1.0512  -12.5678    4.5777 H   0  0  0  0  0  0  0  0  0  0  0  0
    3.1641  -11.5335    3.1854 H   0  0  0  0  0  0  0  0  0  0  0  0
    3.3167   -9.8350    0.4760 H   0  0  0  0  0  0  0  0  0  0  0  0
    4.5945   -9.8718    1.7247 H   0  0  0  0  0  0  0  0  0  0  0  0
    1.8181   -5.0772    2.0660 H   0  0  0  0  0  0  0  0  0  0  0  0
    0.6138   -3.6126    3.6788 H   0  0  0  0  0  0  0  0  0  0  0  0
    1.3006   -7.7590    8.6125 H   0  0  0  0  0  0  0  0  0  0  0  0
    2.6056   -9.4122    7.2356 H   0  0  0  0  0  0  0  0  0  0  0  0
    3.2186   -8.8152    4.9431 H   0  0  0  0  0  0  0  0  0  0  0  0
   -0.7194  -10.6980    4.5244 H   0  0  0  0  0  0  0  0  0  0  0  0
  1  2  1  0
  1 24  1  0
  1 25  1  0
  1 26  1  0
  2  6  1  0
  2  3  1  0
  3  4  2  0
  3 36  1  0
  4  5  1  0
  4 27  1  0
  5  6  2  0
  5 28  1  0
  6  7  1  0
  7 12  2  0
  7  8  1  0
  8 29  1  0
  8 30  1  0
  8  9  1  0
  9 23  1  0
  9 10  1  0
 10 11  2  0
 10 12  1  0
 12 13  1  0
 13 22  1  0
 13 14  2  0
 14 15  1  0
 14 31  1  0
 15 16  2  0
 15 32  1  0
 16 17  1  0
 17 22  2  0
 17 18  1  0
 18 19  2  0
 19 20  1  0
 19 33  1  0
 20 21  2  0
 20 34  1  0
 21 22  1  0
 21 35  1  0
M  CHG  1   3   1
M  END
>  <i_m_ct_stereo_status>  (336) 
1

>  <s_m_source_file>  (336) 
/var/tmp/pbs.5076255.sched01/tmpu61_44ix/12937f0afz8.sdf

>  <i_m_source_file_index>  (336) 
13

>  <i_lp_mmshare_version>  (336) 
48012

>  <i_f3d_flags>  (336) 
0

>  <s_epik_input>  (336) 
W0NIM11uMW5bY0hdW2NIXWMxLWMyW2NIXVtuSF1jKFtPSF0pYzItYyhbY0hdW2NIXW4zKWMoYzM0KVtjSF1bY0hdW2NIXW40

>  <s_epik_cmdline>  (336) 
J2VwaWtfcHl0aG9uJywgJy1waHQnLCAnMi4wJywgJy1waCcsICc3LjAnLCAnLXRuJywgJzgnLCAnLW1hJywgJzIwMCcsICctaW1hZScsICc8aW5maWxlLm1hZT4nLCAnLW9tYWUnLCAnPG91dGZpbGUubWFlPic=

>  <r_lp_tautomer_probability>  (336) 
0.961759

>  <r_epik_Ionization_Penalty>  (336) 
1.33423

>  <r_epik_Ionization_Penalty_Charging>  (336) 
1.33417

>  <r_epik_Ionization_Penalty_Neutral>  (336) 
6.37274e-05

>  <r_epik_State_Penalty>  (336) 
1.42783

>  <r_epik_Charging_Adjusted_Penalty>  (336) 
2.762

>  <i_epik_Tot_Q>  (336) 
1

>  <i_epik_Tot_abs_Q>  (336) 
1

>  <s_lp_Force_Field>  (336) 
OPLS3e

>  <r_lp_Energy>  (336) 
43.9415

>  <b_lp_Chiralities_Consistent>  (336) 
1

>  <s_lp_Variant>  (336) 
98:0-2

>  <s_i_glide_gridfile>  (336) 
pfpi4k_grid

>  <i_i_glide_lignum>  (336) 
13

>  <i_i_glide_rotatable_bonds>  (336) 
2

>  <r_i_docking_score>  (336) 
-3.8428

>  <r_i_glide_ligand_efficiency>  (336) 
-0.174673

>  <r_i_glide_ligand_efficiency_sa>  (336) 
-0.48944

>  <r_i_glide_ligand_efficiency_ln>  (336) 
-0.93932

>  <r_i_glide_gscore>  (336) 
-3.8428

>  <r_i_glide_lipo>  (336) 
-0.215342

>  <r_i_glide_hbond>  (336) 
-0.2

>  <r_i_glide_metal>  (336) 
-0

>  <r_i_glide_rewards>  (336) 
-1.4994

>  <r_i_glide_evdw>  (336) 
-20.5098

>  <r_i_glide_ecoul>  (336) 
-8.28271

>  <r_i_glide_erotb>  (336) 
0.427277

>  <r_i_glide_esite>  (336) 
-0.0874327

>  <r_i_glide_emodel>  (336) 
-37.2855

>  <r_i_glide_energy>  (336) 
-28.7925

>  <r_i_glide_einternal>  (336) 
2.26251

>  <r_i_glide_intrahb_reward>  (336) 
-0

>  <i_i_glide_confnum>  (336) 
3

>  <i_i_glide_posenum>  (336) 
25

>  <r_i_glide_eff_state_penalty>  (336) 
0

>  <ligand_id>  (336) 
98

>  <original_smiles>  (336) 
Cn1nccc1-c1c[nH]c(O)c1-c1ccnc2ncccc12

>  <smiles>  (336) 
[H]c1nc2nc([H])c([H])c(C3=C(c4c([H])c([H])[n+]([H])n4C([H])([H])[H])C([H])([H])N([H])C3=O)c2c([H])c1[H]

$$$$
98:2:0
     RDKit          3D

 35 38  0  0  1  0  0  0  0  0999 V2000
    0.2210   -6.8122    9.9466 C   0  0  0  0  0  0  0  0  0  0  0  0
    0.0441   -6.0980    8.6945 N   0  0  0  0  0  0  0  0  0  0  0  0
   -0.4757   -4.8545    8.7394 N   0  0  0  0  0  0  0  0  0  0  0  0
   -0.4985   -4.4540    7.4796 C   0  0  0  0  0  0  0  0  0  0  0  0
   -0.0101   -5.4357    6.5719 C   0  0  0  0  0  0  0  0  0  0  0  0
    0.3300   -6.4797    7.3911 C   0  0  0  0  0  0  0  0  0  0  0  0
    0.8691   -7.7221    6.8993 C   0  0  0  0  0  0  0  0  0  0  0  0
    1.0096   -8.8697    7.5849 C   0  0  0  0  0  0  0  0  0  0  0  0
    1.6598   -9.8409    6.8560 N   0  0  0  0  0  0  0  0  0  0  0  0
    1.9833   -9.3845    5.6486 C   0  0  0  0  0  0  0  0  0  0  0  0
    2.5179  -10.0093    4.7380 O   0  0  0  0  0  0  0  0  0  0  0  0
    1.5532   -7.9193    5.5619 C   0  0  1  0  0  0  0  0  0  0  0  0
    0.6953   -7.6702    4.3148 C   0  0  0  0  0  0  0  0  0  0  0  0
   -0.6750   -8.0078    4.3387 C   0  0  0  0  0  0  0  0  0  0  0  0
   -1.4634   -7.7289    3.2147 C   0  0  0  0  0  0  0  0  0  0  0  0
   -0.9768   -7.1218    2.1146 N   0  0  0  0  0  0  0  0  0  0  0  0
    0.3400   -6.8452    2.0211 C   0  0  0  0  0  0  0  0  0  0  0  0
    0.7934   -6.2569    0.8875 N   0  0  0  0  0  0  0  0  0  0  0  0
    2.0942   -5.9224    0.7773 C   0  0  0  0  0  0  0  0  0  0  0  0
    3.0261   -6.1247    1.8047 C   0  0  0  0  0  0  0  0  0  0  0  0
    2.5767   -6.7211    2.9944 C   0  0  0  0  0  0  0  0  0  0  0  0
    1.2134   -7.0821    3.1229 C   0  0  0  0  0  0  0  0  0  0  0  0
    1.7455  -10.8115    7.1855 H   0  0  0  0  0  0  0  0  0  0  0  0
    1.2863   -6.8896   10.1787 H   0  0  0  0  0  0  0  0  0  0  0  0
   -0.2053   -7.8085    9.8749 H   0  0  0  0  0  0  0  0  0  0  0  0
   -0.2911   -6.3017   10.7663 H   0  0  0  0  0  0  0  0  0  0  0  0
   -0.8800   -3.4618    7.2704 H   0  0  0  0  0  0  0  0  0  0  0  0
    0.0711   -5.3756    5.4956 H   0  0  0  0  0  0  0  0  0  0  0  0
    0.7316   -9.1396    8.5876 H   0  0  0  0  0  0  0  0  0  0  0  0
    2.4457   -7.3043    5.6019 H   0  0  0  0  0  0  0  0  0  0  0  0
   -1.1252   -8.4845    5.2036 H   0  0  0  0  0  0  0  0  0  0  0  0
   -2.5163   -7.9790    3.1997 H   0  0  0  0  0  0  0  0  0  0  0  0
    2.4014   -5.4751   -0.1575 H   0  0  0  0  0  0  0  0  0  0  0  0
    4.0661   -5.8476    1.6811 H   0  0  0  0  0  0  0  0  0  0  0  0
    3.3046   -6.8765    3.7761 H   0  0  0  0  0  0  0  0  0  0  0  0
  1  2  1  0
  1 24  1  0
  1 25  1  0
  1 26  1  0
  2  6  1  0
  2  3  1  0
  3  4  2  0
  4  5  1  0
  4 27  1  0
  5  6  2  0
  5 28  1  0
  6  7  1  0
  7 12  1  0
  7  8  2  0
  8 29  1  0
  8  9  1  0
  9 23  1  0
  9 10  1  0
 10 11  2  0
 10 12  1  0
 12 13  1  0
 12 30  1  1
 13 22  1  0
 13 14  2  0
 14 15  1  0
 14 31  1  0
 15 16  2  0
 15 32  1  0
 16 17  1  0
 17 22  2  0
 17 18  1  0
 18 19  2  0
 19 20  1  0
 19 33  1  0
 20 21  2  0
 20 34  1  0
 21 22  1  0
 21 35  1  0
M  END
>  <i_m_ct_stereo_status>  (337) 
1

>  <s_m_source_file>  (337) 
/var/tmp/pbs.5076255.sched01/tmpu61_44ix/12937f0afz8.sdf

>  <i_m_source_file_index>  (337) 
14

>  <i_lp_mmshare_version>  (337) 
48012

>  <i_f3d_flags>  (337) 
0

>  <s_epik_input>  (337) 
W0NIM11uMW5bY0hdW2NIXWMxLWMyW2NIXVtuSF1jKFtPSF0pYzItYyhbY0hdW2NIXW4zKWMoYzM0KVtjSF1bY0hdW2NIXW40

>  <s_epik_cmdline>  (337) 
J2VwaWtfcHl0aG9uJywgJy1waHQnLCAnMi4wJywgJy1waCcsICc3LjAnLCAnLXRuJywgJzgnLCAnLW1hJywgJzIwMCcsICctaW1hZScsICc8aW5maWxlLm1hZT4nLCAnLW9tYWUnLCAnPG91dGZpbGUubWFlPic=

>  <r_lp_tautomer_probability>  (337) 
0.0382384

>  <r_epik_Ionization_Penalty>  (337) 
0.000306472

>  <r_epik_Ionization_Penalty_Charging>  (337) 
0

>  <r_epik_Ionization_Penalty_Neutral>  (337) 
0.000306472

>  <r_epik_State_Penalty>  (337) 
2.11333

>  <r_epik_Charging_Adjusted_Penalty>  (337) 
2.11333

>  <i_epik_Tot_Q>  (337) 
0

>  <i_epik_Tot_abs_Q>  (337) 
0

>  <s_lp_Force_Field>  (337) 
OPLS3e

>  <r_lp_Energy>  (337) 
29.0361

>  <b_lp_Chiralities_Consistent>  (337) 
1

>  <s_lp_Variant>  (337) 
98:0-3

>  <s_i_glide_gridfile>  (337) 
pfpi4k_grid

>  <i_i_glide_lignum>  (337) 
14

>  <i_i_glide_rotatable_bonds>  (337) 
2

>  <r_i_docking_score>  (337) 
-4.09956

>  <r_i_glide_ligand_efficiency>  (337) 
-0.186344

>  <r_i_glide_ligand_efficiency_sa>  (337) 
-0.522143

>  <r_i_glide_ligand_efficiency_ln>  (337) 
-1.00208

>  <r_i_glide_gscore>  (337) 
-4.09956

>  <r_i_glide_lipo>  (337) 
-0.0219493

>  <r_i_glide_hbond>  (337) 
-0.48

>  <r_i_glide_metal>  (337) 
-0

>  <r_i_glide_rewards>  (337) 
-1.4229

>  <r_i_glide_evdw>  (337) 
-19.9616

>  <r_i_glide_ecoul>  (337) 
-9.05378

>  <r_i_glide_erotb>  (337) 
0.42986

>  <r_i_glide_esite>  (337) 
-0.248423

>  <r_i_glide_emodel>  (337) 
-36.9715

>  <r_i_glide_energy>  (337) 
-29.0154

>  <r_i_glide_einternal>  (337) 
0.584449

>  <r_i_glide_intrahb_reward>  (337) 
-0

>  <i_i_glide_confnum>  (337) 
6

>  <i_i_glide_posenum>  (337) 
17

>  <r_i_glide_eff_state_penalty>  (337) 
0

>  <ligand_id>  (337) 
98

>  <original_smiles>  (337) 
Cn1nccc1-c1c[nH]c(O)c1-c1ccnc2ncccc12

>  <smiles>  (337) 
[H]C1=C(c2c([H])c([H])nn2C([H])([H])[H])C([H])(c2c([H])c([H])nc3nc([H])c([H])c([H])c23)C(=O)N1[H]

$$$$
98:2:1
     RDKit          3D

 35 38  0  0  1  0  0  0  0  0999 V2000
    0.9124   -4.8154    5.3350 C   0  0  0  0  0  0  0  0  0  0  0  0
    0.4643   -5.1779    6.6637 N   0  0  0  0  0  0  0  0  0  0  0  0
   -0.0983   -4.2122    7.4064 N   0  0  0  0  0  0  0  0  0  0  0  0
   -0.3743   -4.7906    8.5562 C   0  0  0  0  0  0  0  0  0  0  0  0
   -0.0130   -6.1676    8.5932 C   0  0  0  0  0  0  0  0  0  0  0  0
    0.4926   -6.3967    7.3367 C   0  0  0  0  0  0  0  0  0  0  0  0
    0.9794   -7.6855    6.8829 C   0  0  0  0  0  0  0  0  0  0  0  0
    1.0436   -8.8189    7.6096 C   0  0  0  0  0  0  0  0  0  0  0  0
    1.6399   -9.8445    6.9100 N   0  0  0  0  0  0  0  0  0  0  0  0
    2.0012   -9.4507    5.6876 C   0  0  0  0  0  0  0  0  0  0  0  0
    2.5099  -10.1227    4.7895 O   0  0  0  0  0  0  0  0  0  0  0  0
    1.6353   -7.9711    5.5474 C   0  0  1  0  0  0  0  0  0  0  0  0
    0.7956   -7.7580    4.2821 C   0  0  0  0  0  0  0  0  0  0  0  0
   -0.5839   -8.0305    4.3107 C   0  0  0  0  0  0  0  0  0  0  0  0
   -1.3749   -7.6922    3.2043 C   0  0  0  0  0  0  0  0  0  0  0  0
   -0.8779   -7.0840    2.1089 N   0  0  0  0  0  0  0  0  0  0  0  0
    0.4492   -6.8858    1.9973 C   0  0  0  0  0  0  0  0  0  0  0  0
    0.9080   -6.2586    0.8765 N   0  0  0  0  0  0  0  0  0  0  0  0
    2.2142   -5.9504    0.7697 C   0  0  0  0  0  0  0  0  0  0  0  0
    3.1463   -6.2023    1.7850 C   0  0  0  0  0  0  0  0  0  0  0  0
    2.6980   -6.8448    2.9507 C   0  0  0  0  0  0  0  0  0  0  0  0
    1.3305   -7.1879    3.0832 C   0  0  0  0  0  0  0  0  0  0  0  0
    1.6750  -10.8214    7.2463 H   0  0  0  0  0  0  0  0  0  0  0  0
    0.1724   -5.1747    4.6152 H   0  0  0  0  0  0  0  0  0  0  0  0
    1.8976   -5.2404    5.1602 H   0  0  0  0  0  0  0  0  0  0  0  0
    0.9865   -3.7312    5.1967 H   0  0  0  0  0  0  0  0  0  0  0  0
   -0.8213   -4.1483    9.3050 H   0  0  0  0  0  0  0  0  0  0  0  0
   -0.1145   -6.8743    9.4099 H   0  0  0  0  0  0  0  0  0  0  0  0
    0.7320   -8.9848    8.6288 H   0  0  0  0  0  0  0  0  0  0  0  0
    2.5766   -7.4291    5.5705 H   0  0  0  0  0  0  0  0  0  0  0  0
   -1.0501   -8.4537    5.1996 H   0  0  0  0  0  0  0  0  0  0  0  0
   -2.4457   -7.8659    3.2109 H   0  0  0  0  0  0  0  0  0  0  0  0
    2.5381   -5.5013   -0.1638 H   0  0  0  0  0  0  0  0  0  0  0  0
    4.1903   -5.9210    1.6810 H   0  0  0  0  0  0  0  0  0  0  0  0
    3.4080   -6.9794    3.7460 H   0  0  0  0  0  0  0  0  0  0  0  0
  1  2  1  0
  1 24  1  0
  1 25  1  0
  1 26  1  0
  2  6  1  0
  2  3  1  0
  3  4  2  0
  4  5  1  0
  4 27  1  0
  5  6  2  0
  5 28  1  0
  6  7  1  0
  7 12  1  0
  7  8  2  0
  8 29  1  0
  8  9  1  0
  9 23  1  0
  9 10  1  0
 10 11  2  0
 10 12  1  0
 12 13  1  0
 12 30  1  6
 13 22  1  0
 13 14  2  0
 14 15  1  0
 14 31  1  0
 15 16  2  0
 15 32  1  0
 16 17  1  0
 17 22  2  0
 17 18  1  0
 18 19  2  0
 19 20  1  0
 19 33  1  0
 20 21  2  0
 20 34  1  0
 21 22  1  0
 21 35  1  0
M  END
>  <i_m_ct_stereo_status>  (338) 
1

>  <s_m_source_file>  (338) 
/var/tmp/pbs.5076255.sched01/tmpu61_44ix/12937f0afz8.sdf

>  <i_m_source_file_index>  (338) 
14

>  <i_lp_mmshare_version>  (338) 
48012

>  <i_f3d_flags>  (338) 
0

>  <s_epik_input>  (338) 
W0NIM11uMW5bY0hdW2NIXWMxLWMyW2NIXVtuSF1jKFtPSF0pYzItYyhbY0hdW2NIXW4zKWMoYzM0KVtjSF1bY0hdW2NIXW40

>  <s_epik_cmdline>  (338) 
J2VwaWtfcHl0aG9uJywgJy1waHQnLCAnMi4wJywgJy1waCcsICc3LjAnLCAnLXRuJywgJzgnLCAnLW1hJywgJzIwMCcsICctaW1hZScsICc8aW5maWxlLm1hZT4nLCAnLW9tYWUnLCAnPG91dGZpbGUubWFlPic=

>  <r_lp_tautomer_probability>  (338) 
0.0382384

>  <r_epik_Ionization_Penalty>  (338) 
0.000306472

>  <r_epik_Ionization_Penalty_Charging>  (338) 
0

>  <r_epik_Ionization_Penalty_Neutral>  (338) 
0.000306472

>  <r_epik_State_Penalty>  (338) 
2.11333

>  <r_epik_Charging_Adjusted_Penalty>  (338) 
2.11333

>  <i_epik_Tot_Q>  (338) 
0

>  <i_epik_Tot_abs_Q>  (338) 
0

>  <s_lp_Force_Field>  (338) 
OPLS3e

>  <r_lp_Energy>  (338) 
29.0361

>  <b_lp_Chiralities_Consistent>  (338) 
1

>  <s_lp_Variant>  (338) 
98:0-3

>  <s_i_glide_gridfile>  (338) 
pfpi4k_grid

>  <i_i_glide_lignum>  (338) 
14

>  <i_i_glide_rotatable_bonds>  (338) 
2

>  <r_i_docking_score>  (338) 
-4.09051

>  <r_i_glide_ligand_efficiency>  (338) 
-0.185932

>  <r_i_glide_ligand_efficiency_sa>  (338) 
-0.52099

>  <r_i_glide_ligand_efficiency_ln>  (338) 
-0.999871

>  <r_i_glide_gscore>  (338) 
-4.09051

>  <r_i_glide_lipo>  (338) 
-0.0275177

>  <r_i_glide_hbond>  (338) 
-0.48

>  <r_i_glide_metal>  (338) 
-0

>  <r_i_glide_rewards>  (338) 
-1.4229

>  <r_i_glide_evdw>  (338) 
-19.1995

>  <r_i_glide_ecoul>  (338) 
-9.36499

>  <r_i_glide_erotb>  (338) 
0.42986

>  <r_i_glide_esite>  (338) 
-0.225231

>  <r_i_glide_emodel>  (338) 
-35.7328

>  <r_i_glide_energy>  (338) 
-28.5644

>  <r_i_glide_einternal>  (338) 
1.53666

>  <r_i_glide_intrahb_reward>  (338) 
-0

>  <i_i_glide_confnum>  (338) 
6

>  <i_i_glide_posenum>  (338) 
1

>  <r_i_glide_eff_state_penalty>  (338) 
0

>  <ligand_id>  (338) 
98

>  <original_smiles>  (338) 
Cn1nccc1-c1c[nH]c(O)c1-c1ccnc2ncccc12

>  <smiles>  (338) 
[H]C1=C(c2c([H])c([H])nn2C([H])([H])[H])C([H])(c2c([H])c([H])nc3nc([H])c([H])c([H])c23)C(=O)N1[H]

$$$$
98:2:2
     RDKit          3D

 35 38  0  0  1  0  0  0  0  0999 V2000
    1.0859   -6.7197    4.1139 C   0  0  0  0  0  0  0  0  0  0  0  0
    0.1601   -7.6199    3.4854 N   0  0  0  0  0  0  0  0  0  0  0  0
   -0.9925   -7.0974    3.0054 N   0  0  0  0  0  0  0  0  0  0  0  0
   -1.6552   -8.1172    2.4945 C   0  0  0  0  0  0  0  0  0  0  0  0
   -0.9265   -9.3360    2.6198 C   0  0  0  0  0  0  0  0  0  0  0  0
    0.2463   -8.9792    3.2293 C   0  0  0  0  0  0  0  0  0  0  0  0
    1.3152   -9.9087    3.5592 C   0  0  0  0  0  0  0  0  0  0  0  0
    1.2259  -11.2506    3.5722 C   0  0  0  0  0  0  0  0  0  0  0  0
    2.4110  -11.8483    3.9823 N   0  0  0  0  0  0  0  0  0  0  0  0
    3.3421  -10.9265    4.2549 C   0  0  0  0  0  0  0  0  0  0  0  0
    4.5074  -11.1297    4.6123 O   0  0  0  0  0  0  0  0  0  0  0  0
    2.7115   -9.5382    4.0484 C   0  0  1  0  0  0  0  0  0  0  0  0
    3.5629   -8.6873    3.0981 C   0  0  0  0  0  0  0  0  0  0  0  0
    3.7273   -9.0824    1.7565 C   0  0  0  0  0  0  0  0  0  0  0  0
    4.4649   -8.2689    0.8794 C   0  0  0  0  0  0  0  0  0  0  0  0
    5.0326   -7.1102    1.2621 N   0  0  0  0  0  0  0  0  0  0  0  0
    4.9067   -6.6927    2.5307 C   0  0  0  0  0  0  0  0  0  0  0  0
    5.4714   -5.5110    2.8757 N   0  0  0  0  0  0  0  0  0  0  0  0
    5.3613   -5.0319    4.1220 C   0  0  0  0  0  0  0  0  0  0  0  0
    4.7051   -5.7430    5.1445 C   0  0  0  0  0  0  0  0  0  0  0  0
    4.1293   -6.9914    4.8349 C   0  0  0  0  0  0  0  0  0  0  0  0
    4.1956   -7.4688    3.5019 C   0  0  0  0  0  0  0  0  0  0  0  0
    2.5268  -12.8395    4.0484 H   0  0  0  0  0  0  0  0  0  0  0  0
    1.9229   -6.5495    3.4340 H   0  0  0  0  0  0  0  0  0  0  0  0
    1.4458   -7.1980    5.0242 H   0  0  0  0  0  0  0  0  0  0  0  0
    0.5785   -5.7882    4.3945 H   0  0  0  0  0  0  0  0  0  0  0  0
   -2.6250   -7.9158    2.0558 H   0  0  0  0  0  0  0  0  0  0  0  0
   -1.2318  -10.3083    2.2729 H   0  0  0  0  0  0  0  0  0  0  0  0
    0.3749  -11.8827    3.3616 H   0  0  0  0  0  0  0  0  0  0  0  0
    2.6038   -9.1366    5.0536 H   0  0  0  0  0  0  0  0  0  0  0  0
    3.2646   -9.9916    1.3864 H   0  0  0  0  0  0  0  0  0  0  0  0
    4.5747   -8.5543   -0.1640 H   0  0  0  0  0  0  0  0  0  0  0  0
    5.7758   -4.0453    4.3414 H   0  0  0  0  0  0  0  0  0  0  0  0
    4.5710   -5.3307    6.1346 H   0  0  0  0  0  0  0  0  0  0  0  0
    3.6590   -7.5527    5.6241 H   0  0  0  0  0  0  0  0  0  0  0  0
  1  2  1  0
  1 24  1  0
  1 25  1  0
  1 26  1  0
  2  6  1  0
  2  3  1  0
  3  4  2  0
  4  5  1  0
  4 27  1  0
  5  6  2  0
  5 28  1  0
  6  7  1  0
  7 12  1  0
  7  8  2  0
  8 29  1  0
  8  9  1  0
  9 23  1  0
  9 10  1  0
 10 11  2  0
 10 12  1  0
 12 13  1  0
 12 30  1  1
 13 22  1  0
 13 14  2  0
 14 15  1  0
 14 31  1  0
 15 16  2  0
 15 32  1  0
 16 17  1  0
 17 22  2  0
 17 18  1  0
 18 19  2  0
 19 20  1  0
 19 33  1  0
 20 21  2  0
 20 34  1  0
 21 22  1  0
 21 35  1  0
M  END
>  <i_m_ct_stereo_status>  (339) 
1

>  <s_m_source_file>  (339) 
/var/tmp/pbs.5076255.sched01/tmpu61_44ix/12937f0afz8.sdf

>  <i_m_source_file_index>  (339) 
14

>  <i_lp_mmshare_version>  (339) 
48012

>  <i_f3d_flags>  (339) 
0

>  <s_epik_input>  (339) 
W0NIM11uMW5bY0hdW2NIXWMxLWMyW2NIXVtuSF1jKFtPSF0pYzItYyhbY0hdW2NIXW4zKWMoYzM0KVtjSF1bY0hdW2NIXW40

>  <s_epik_cmdline>  (339) 
J2VwaWtfcHl0aG9uJywgJy1waHQnLCAnMi4wJywgJy1waCcsICc3LjAnLCAnLXRuJywgJzgnLCAnLW1hJywgJzIwMCcsICctaW1hZScsICc8aW5maWxlLm1hZT4nLCAnLW9tYWUnLCAnPG91dGZpbGUubWFlPic=

>  <r_lp_tautomer_probability>  (339) 
0.0382384

>  <r_epik_Ionization_Penalty>  (339) 
0.000306472

>  <r_epik_Ionization_Penalty_Charging>  (339) 
0

>  <r_epik_Ionization_Penalty_Neutral>  (339) 
0.000306472

>  <r_epik_State_Penalty>  (339) 
2.11333

>  <r_epik_Charging_Adjusted_Penalty>  (339) 
2.11333

>  <i_epik_Tot_Q>  (339) 
0

>  <i_epik_Tot_abs_Q>  (339) 
0

>  <s_lp_Force_Field>  (339) 
OPLS3e

>  <r_lp_Energy>  (339) 
29.0361

>  <b_lp_Chiralities_Consistent>  (339) 
1

>  <s_lp_Variant>  (339) 
98:0-3

>  <s_i_glide_gridfile>  (339) 
pfpi4k_grid

>  <i_i_glide_lignum>  (339) 
14

>  <i_i_glide_rotatable_bonds>  (339) 
2

>  <r_i_docking_score>  (339) 
-3.55571

>  <r_i_glide_ligand_efficiency>  (339) 
-0.161623

>  <r_i_glide_ligand_efficiency_sa>  (339) 
-0.452874

>  <r_i_glide_ligand_efficiency_ln>  (339) 
-0.869145

>  <r_i_glide_gscore>  (339) 
-3.55571

>  <r_i_glide_lipo>  (339) 
-0.385469

>  <r_i_glide_hbond>  (339) 
-0.426124

>  <r_i_glide_metal>  (339) 
-0

>  <r_i_glide_rewards>  (339) 
-1.4229

>  <r_i_glide_evdw>  (339) 
-23.0778

>  <r_i_glide_ecoul>  (339) 
-3.44737

>  <r_i_glide_erotb>  (339) 
0.42986

>  <r_i_glide_esite>  (339) 
-0.0800733

>  <r_i_glide_emodel>  (339) 
-32.3009

>  <r_i_glide_energy>  (339) 
-26.5252

>  <r_i_glide_einternal>  (339) 
1.66229

>  <r_i_glide_intrahb_reward>  (339) 
-0

>  <i_i_glide_confnum>  (339) 
6

>  <i_i_glide_posenum>  (339) 
2

>  <r_i_glide_eff_state_penalty>  (339) 
0

>  <ligand_id>  (339) 
98

>  <original_smiles>  (339) 
Cn1nccc1-c1c[nH]c(O)c1-c1ccnc2ncccc12

>  <smiles>  (339) 
[H]C1=C(c2c([H])c([H])nn2C([H])([H])[H])C([H])(c2c([H])c([H])nc3nc([H])c([H])c([H])c23)C(=O)N1[H]

$$$$
99:0:0
     RDKit          3D

 41 47  0  0  1  0  0  0  0  0999 V2000
   -1.3076   -8.9307    2.6744 C   0  0  0  0  0  0  0  0  0  0  0  0
    0.0927   -8.4055    2.4938 C   0  0  0  0  0  0  0  0  0  0  0  0
    0.2794   -7.1476    2.4042 N   0  0  0  0  0  0  0  0  0  0  0  0
    1.5519   -6.6025    2.2201 C   0  0  0  0  0  0  0  0  0  0  0  0
    1.6453   -5.4246    1.8854 O   0  0  0  0  0  0  0  0  0  0  0  0
    2.6712   -7.3649    2.4555 N   0  0  0  0  0  0  0  0  0  0  0  0
    3.9677   -6.8523    2.1535 C   0  0  0  0  0  0  0  0  0  0  0  0
    4.9711   -6.9676    3.0349 N   0  0  0  0  0  0  0  0  0  0  0  0
    6.1193   -6.3748    2.5174 C   0  0  0  0  0  0  0  0  0  0  0  0
    7.3975   -6.3089    3.1301 C   0  0  0  0  0  0  0  0  0  0  0  0
    8.4793   -5.6727    2.4771 C   0  0  0  0  0  0  0  0  0  0  0  0
    8.2900   -5.0510    1.2311 C   0  0  0  0  0  0  0  0  0  0  0  0
    7.0265   -5.0892    0.6197 C   0  0  0  0  0  0  0  0  0  0  0  0
    5.9677   -5.7715    1.2371 C   0  0  0  0  0  0  0  0  0  0  0  0
    4.3437   -6.0410    0.6178 S   0  0  0  0  0  0  0  0  0  0  0  0
    2.5272   -8.7159    3.0299 C   0  0  1  0  0  0  0  0  0  0  0  0
    3.6139   -9.7639    2.8292 C   0  0  0  0  0  0  0  0  0  0  0  0
    2.7321  -10.9827    3.2542 C   0  0  1  0  0  0  0  0  0  0  0  0
    2.2596  -11.5809    4.2437 C   0  0  1  0  0  0  0  0  0  0  0  0
    2.4020  -10.2537    5.0716 C   0  0  2  0  0  0  0  0  0  0  0  0
    2.5894   -8.7564    4.6099 C   0  0  0  0  0  0  0  0  0  0  0  0
    1.1993  -10.4900    4.3177 C   0  0  1  0  0  0  0  0  0  0  0  0
    1.1549  -10.8952    3.0829 C   0  0  1  0  0  0  0  0  0  0  0  0
    1.2403   -9.4051    2.3747 C   0  0  1  0  0  0  0  0  0  0  0  0
   -1.5899   -9.5450    1.8204 H   0  0  0  0  0  0  0  0  0  0  0  0
   -1.9974   -8.0831    2.7292 H   0  0  0  0  0  0  0  0  0  0  0  0
   -1.4014   -9.4856    3.6108 H   0  0  0  0  0  0  0  0  0  0  0  0
    7.5346   -6.7634    4.0990 H   0  0  0  0  0  0  0  0  0  0  0  0
    9.4457   -5.6398    2.9605 H   0  0  0  0  0  0  0  0  0  0  0  0
    9.0990   -4.5391    0.7312 H   0  0  0  0  0  0  0  0  0  0  0  0
    6.8416   -4.6209   -0.3231 H   0  0  0  0  0  0  0  0  0  0  0  0
    3.9236   -9.8477    1.7838 H   0  0  0  0  0  0  0  0  0  0  0  0
    4.5213   -9.6501    3.4356 H   0  0  0  0  0  0  0  0  0  0  0  0
    2.9541  -11.8633    2.5976 H   0  0  0  0  0  0  0  0  0  0  0  0
    2.5582  -12.6193    4.4287 H   0  0  0  0  0  0  0  0  0  0  0  0
    2.2119  -10.4058    6.1376 H   0  0  0  0  0  0  0  0  0  0  0  0
    3.5181   -8.3458    5.0100 H   0  0  0  0  0  0  0  0  0  0  0  0
    1.7879   -8.1463    5.0244 H   0  0  0  0  0  0  0  0  0  0  0  0
    0.3874  -11.0351    4.8782 H   0  0  0  0  0  0  0  0  0  0  0  0
    0.2472  -11.4700    2.8814 H   0  0  0  0  0  0  0  0  0  0  0  0
    1.4315   -9.5370    1.3072 H   0  0  0  0  0  0  0  0  0  0  0  0
  1  2  1  0
  1 25  1  0
  1 26  1  0
  1 27  1  0
  2 24  1  0
  2  3  2  0
  3  4  1  0
  4  5  2  0
  4  6  1  0
  6  7  1  0
 16  6  1  6
  7 15  1  0
  7  8  2  0
  8  9  1  0
  9 14  2  0
  9 10  1  0
 10 11  2  0
 10 28  1  0
 11 12  1  0
 11 29  1  0
 12 13  2  0
 12 30  1  0
 13 14  1  0
 13 31  1  0
 14 15  1  0
 16 21  1  0
 16 24  1  0
 16 17  1  0
 17 18  1  0
 17 32  1  0
 17 33  1  0
 18 22  1  0
 18 19  1  0
 18 34  1  6
 19 23  1  0
 19 20  1  0
 19 35  1  1
 20 21  1  0
 20 22  1  0
 20 36  1  1
 21 37  1  0
 21 38  1  0
 22 23  1  0
 22 39  1  1
 23 24  1  0
 23 40  1  1
 24 41  1  6
M  END
>  <i_m_ct_stereo_status>  (340) 
1

>  <s_m_source_file>  (340) 
/var/tmp/pbs.5076255.sched01/tmpu61_44ix/12937f0afz8.sdf

>  <i_m_source_file_index>  (340) 
15

>  <i_lp_mmshare_version>  (340) 
48012

>  <i_f3d_flags>  (340) 
0

>  <s_epik_input>  (340) 
W0NIMl0xW0NASF0yW0NAQEhdM1tDQEBIXShbQ0gyXTQpW0NIXTJbQ0hdM1tDQEhdKFtDQEBdMTQ1KUMoW0NIM10pPU5DKD1PKU41YyhuNilzYyhjNjcpW2NIXVtjSF1bY0hdW2NIXTc=

>  <s_epik_cmdline>  (340) 
J2VwaWtfcHl0aG9uJywgJy1waHQnLCAnMi4wJywgJy1waCcsICc3LjAnLCAnLXRuJywgJzgnLCAnLW1hJywgJzIwMCcsICctaW1hZScsICc8aW5maWxlLm1hZT4nLCAnLW9tYWUnLCAnPG91dGZpbGUubWFlPic=

>  <r_lp_tautomer_probability>  (340) 
1

>  <r_epik_Ionization_Penalty>  (340) 
3.85518e-05

>  <r_epik_Ionization_Penalty_Charging>  (340) 
0

>  <r_epik_Ionization_Penalty_Neutral>  (340) 
3.85518e-05

>  <r_epik_State_Penalty>  (340) 
-0

>  <r_epik_Charging_Adjusted_Penalty>  (340) 
0

>  <i_epik_Tot_Q>  (340) 
0

>  <i_epik_Tot_abs_Q>  (340) 
0

>  <s_epik_Chemistry_Notes>  (340) 
This compound has an imine and may undergo hydrolysis.

>  <s_lp_Force_Field>  (340) 
OPLS3e

>  <r_lp_Energy>  (340) 
450.697

>  <b_lp_Chiralities_Consistent>  (340) 
1

>  <s_lp_Variant>  (340) 
99:0-1

>  <s_i_glide_gridfile>  (340) 
pfpi4k_grid

>  <i_i_glide_lignum>  (340) 
15

>  <i_i_glide_rotatable_bonds>  (340) 
1

>  <r_i_docking_score>  (340) 
-3.32772

>  <r_i_glide_ligand_efficiency>  (340) 
-0.138655

>  <r_i_glide_ligand_efficiency_sa>  (340) 
-0.399951

>  <r_i_glide_ligand_efficiency_ln>  (340) 
-0.796477

>  <r_i_glide_gscore>  (340) 
-3.32772

>  <r_i_glide_lipo>  (340) 
-0.715293

>  <r_i_glide_hbond>  (340) 
-0.0474228

>  <r_i_glide_metal>  (340) 
-0

>  <r_i_glide_rewards>  (340) 
-1.12211

>  <r_i_glide_evdw>  (340) 
-24.8993

>  <r_i_glide_ecoul>  (340) 
-1.91054

>  <r_i_glide_erotb>  (340) 
0.167749

>  <r_i_glide_esite>  (340) 
-0.0791019

>  <r_i_glide_emodel>  (340) 
-31.5414

>  <r_i_glide_energy>  (340) 
-26.8098

>  <r_i_glide_einternal>  (340) 
1.74108

>  <r_i_glide_intrahb_reward>  (340) 
-0

>  <i_i_glide_confnum>  (340) 
4

>  <i_i_glide_posenum>  (340) 
22

>  <r_i_glide_eff_state_penalty>  (340) 
0

>  <ligand_id>  (340) 
99

>  <original_smiles>  (340) 
CC1=NC(=O)N(c2nc3ccccc3s2)C23CC4C5C(C2)C4C5C13

>  <smiles>  (340) 
[H]c1c([H])c([H])c2sc(N3C(=O)N=C(C([H])([H])[H])C4([H])C5([H])C6([H])C7([H])C([H])([H])C34C([H])([H])C6([H])C75[H])nc2c1[H]

$$$$
99:0:1
     RDKit          3D

 41 47  0  0  1  0  0  0  0  0999 V2000
    2.7030   -7.2530    4.8602 C   0  0  0  0  0  0  0  0  0  0  0  0
    2.8964   -6.3583    3.6618 C   0  0  0  0  0  0  0  0  0  0  0  0
    2.6353   -5.1122    3.7435 N   0  0  0  0  0  0  0  0  0  0  0  0
    2.7943   -4.2357    2.6603 C   0  0  0  0  0  0  0  0  0  0  0  0
    2.2502   -3.1267    2.6689 O   0  0  0  0  0  0  0  0  0  0  0  0
    3.5639   -4.6200    1.5989 N   0  0  0  0  0  0  0  0  0  0  0  0
    3.6974   -3.7610    0.4875 C   0  0  0  0  0  0  0  0  0  0  0  0
    2.9009   -3.9137   -0.5747 N   0  0  0  0  0  0  0  0  0  0  0  0
    3.2108   -2.9488   -1.5237 C   0  0  0  0  0  0  0  0  0  0  0  0
    2.6273   -2.8047   -2.8038 C   0  0  0  0  0  0  0  0  0  0  0  0
    3.0174   -1.7569   -3.6605 C   0  0  0  0  0  0  0  0  0  0  0  0
    3.9994   -0.8389   -3.2567 C   0  0  0  0  0  0  0  0  0  0  0  0
    4.6079   -0.9741   -1.9969 C   0  0  0  0  0  0  0  0  0  0  0  0
    4.2241   -2.0200   -1.1454 C   0  0  0  0  0  0  0  0  0  0  0  0
    4.8327   -2.4047    0.4662 S   0  0  0  0  0  0  0  0  0  0  0  0
    4.2678   -5.9025    1.6125 C   0  0  1  0  0  0  0  0  0  0  0  0
    4.6414   -6.5918    0.3140 C   0  0  0  0  0  0  0  0  0  0  0  0
    4.9666   -7.9782    0.9588 C   0  0  1  0  0  0  0  0  0  0  0  0
    5.8269   -8.6081    1.6037 C   0  0  1  0  0  0  0  0  0  0  0  0
    6.3984   -7.2317    2.1065 C   0  0  2  0  0  0  0  0  0  0  0  0
    5.7536   -5.7908    2.1346 C   0  0  0  0  0  0  0  0  0  0  0  0
    5.3426   -7.8693    2.8512 C   0  0  1  0  0  0  0  0  0  0  0  0
    4.2594   -8.3768    2.3379 C   0  0  1  0  0  0  0  0  0  0  0  0
    3.3533   -6.9941    2.3563 C   0  0  1  0  0  0  0  0  0  0  0  0
    1.9323   -7.9982    4.6510 H   0  0  0  0  0  0  0  0  0  0  0  0
    2.3662   -6.6508    5.7087 H   0  0  0  0  0  0  0  0  0  0  0  0
    3.6312   -7.7512    5.1557 H   0  0  0  0  0  0  0  0  0  0  0  0
    1.8636   -3.5049   -3.1076 H   0  0  0  0  0  0  0  0  0  0  0  0
    2.5422   -1.6453   -4.6228 H   0  0  0  0  0  0  0  0  0  0  0  0
    4.2715   -0.0159   -3.9008 H   0  0  0  0  0  0  0  0  0  0  0  0
    5.3397   -0.2668   -1.6541 H   0  0  0  0  0  0  0  0  0  0  0  0
    3.7900   -6.6569   -0.3599 H   0  0  0  0  0  0  0  0  0  0  0  0
    5.4690   -6.1418   -0.2467 H   0  0  0  0  0  0  0  0  0  0  0  0
    4.5903   -8.8064    0.3033 H   0  0  0  0  0  0  0  0  0  0  0  0
    6.2790   -9.4917    1.1518 H   0  0  0  0  0  0  0  0  0  0  0  0
    7.3465   -7.3292    2.6402 H   0  0  0  0  0  0  0  0  0  0  0  0
    6.3426   -5.0848    1.5476 H   0  0  0  0  0  0  0  0  0  0  0  0
    5.7492   -5.4044    3.1530 H   0  0  0  0  0  0  0  0  0  0  0  0
    5.6954   -8.5779    3.6571 H   0  0  0  0  0  0  0  0  0  0  0  0
    3.8823   -9.2153    2.9338 H   0  0  0  0  0  0  0  0  0  0  0  0
    2.4485   -7.1663    1.7647 H   0  0  0  0  0  0  0  0  0  0  0  0
  1  2  1  0
  1 25  1  0
  1 26  1  0
  1 27  1  0
  2 24  1  0
  2  3  2  0
  3  4  1  0
  4  5  2  0
  4  6  1  0
  6  7  1  0
 16  6  1  6
  7 15  1  0
  7  8  2  0
  8  9  1  0
  9 14  2  0
  9 10  1  0
 10 11  2  0
 10 28  1  0
 11 12  1  0
 11 29  1  0
 12 13  2  0
 12 30  1  0
 13 14  1  0
 13 31  1  0
 14 15  1  0
 16 21  1  0
 16 24  1  0
 16 17  1  0
 17 18  1  0
 17 32  1  0
 17 33  1  0
 18 22  1  0
 18 19  1  0
 18 34  1  1
 19 23  1  0
 19 20  1  0
 19 35  1  6
 20 21  1  0
 20 22  1  0
 20 36  1  1
 21 37  1  0
 21 38  1  0
 22 23  1  0
 22 39  1  6
 23 24  1  0
 23 40  1  1
 24 41  1  6
M  END
>  <i_m_ct_stereo_status>  (341) 
1

>  <s_m_source_file>  (341) 
/var/tmp/pbs.5076255.sched01/tmpu61_44ix/12937f0afz8.sdf

>  <i_m_source_file_index>  (341) 
15

>  <i_lp_mmshare_version>  (341) 
48012

>  <i_f3d_flags>  (341) 
0

>  <s_epik_input>  (341) 
W0NIMl0xW0NASF0yW0NAQEhdM1tDQEBIXShbQ0gyXTQpW0NIXTJbQ0hdM1tDQEhdKFtDQEBdMTQ1KUMoW0NIM10pPU5DKD1PKU41YyhuNilzYyhjNjcpW2NIXVtjSF1bY0hdW2NIXTc=

>  <s_epik_cmdline>  (341) 
J2VwaWtfcHl0aG9uJywgJy1waHQnLCAnMi4wJywgJy1waCcsICc3LjAnLCAnLXRuJywgJzgnLCAnLW1hJywgJzIwMCcsICctaW1hZScsICc8aW5maWxlLm1hZT4nLCAnLW9tYWUnLCAnPG91dGZpbGUubWFlPic=

>  <r_lp_tautomer_probability>  (341) 
1

>  <r_epik_Ionization_Penalty>  (341) 
3.85518e-05

>  <r_epik_Ionization_Penalty_Charging>  (341) 
0

>  <r_epik_Ionization_Penalty_Neutral>  (341) 
3.85518e-05

>  <r_epik_State_Penalty>  (341) 
-0

>  <r_epik_Charging_Adjusted_Penalty>  (341) 
0

>  <i_epik_Tot_Q>  (341) 
0

>  <i_epik_Tot_abs_Q>  (341) 
0

>  <s_epik_Chemistry_Notes>  (341) 
This compound has an imine and may undergo hydrolysis.

>  <s_lp_Force_Field>  (341) 
OPLS3e

>  <r_lp_Energy>  (341) 
450.697

>  <b_lp_Chiralities_Consistent>  (341) 
1

>  <s_lp_Variant>  (341) 
99:0-1

>  <s_i_glide_gridfile>  (341) 
pfpi4k_grid

>  <i_i_glide_lignum>  (341) 
15

>  <i_i_glide_rotatable_bonds>  (341) 
1

>  <r_i_docking_score>  (341) 
-3.05566

>  <r_i_glide_ligand_efficiency>  (341) 
-0.127319

>  <r_i_glide_ligand_efficiency_sa>  (341) 
-0.367252

>  <r_i_glide_ligand_efficiency_ln>  (341) 
-0.731359

>  <r_i_glide_gscore>  (341) 
-3.05566

>  <r_i_glide_lipo>  (341) 
-0.752323

>  <r_i_glide_hbond>  (341) 
0

>  <r_i_glide_metal>  (341) 
-0

>  <r_i_glide_rewards>  (341) 
-1.132

>  <r_i_glide_evdw>  (341) 
-25.4064

>  <r_i_glide_ecoul>  (341) 
-0.44062

>  <r_i_glide_erotb>  (341) 
0.167749

>  <r_i_glide_esite>  (341) 
-0.00267312

>  <r_i_glide_emodel>  (341) 
-30.9416

>  <r_i_glide_energy>  (341) 
-25.847

>  <r_i_glide_einternal>  (341) 
0.373221

>  <r_i_glide_intrahb_reward>  (341) 
-0

>  <i_i_glide_confnum>  (341) 
3

>  <i_i_glide_posenum>  (341) 
1

>  <r_i_glide_eff_state_penalty>  (341) 
0

>  <ligand_id>  (341) 
99

>  <original_smiles>  (341) 
CC1=NC(=O)N(c2nc3ccccc3s2)C23CC4C5C(C2)C4C5C13

>  <smiles>  (341) 
[H]c1c([H])c([H])c2sc(N3C(=O)N=C(C([H])([H])[H])C4([H])C5([H])C6([H])C7([H])C([H])([H])C34C([H])([H])C6([H])C75[H])nc2c1[H]

$$$$
99:0:2
     RDKit          3D

 41 47  0  0  1  0  0  0  0  0999 V2000
   -1.5240   -8.4143    3.3804 C   0  0  0  0  0  0  0  0  0  0  0  0
   -0.1133   -7.9619    3.0980 C   0  0  0  0  0  0  0  0  0  0  0  0
    0.1583   -6.7197    3.0802 N   0  0  0  0  0  0  0  0  0  0  0  0
    1.4531   -6.2379    2.8507 C   0  0  0  0  0  0  0  0  0  0  0  0
    1.6064   -5.0458    2.6166 O   0  0  0  0  0  0  0  0  0  0  0  0
    2.5318   -7.1004    2.9339 N   0  0  0  0  0  0  0  0  0  0  0  0
    3.8532   -6.6631    2.6210 C   0  0  0  0  0  0  0  0  0  0  0  0
    4.0966   -6.0173    1.4703 N   0  0  0  0  0  0  0  0  0  0  0  0
    5.4377   -5.6442    1.4261 C   0  0  0  0  0  0  0  0  0  0  0  0
    6.0603   -4.8791    0.4200 C   0  0  0  0  0  0  0  0  0  0  0  0
    7.4460   -4.5986    0.4745 C   0  0  0  0  0  0  0  0  0  0  0  0
    8.2295   -5.0940    1.5277 C   0  0  0  0  0  0  0  0  0  0  0  0
    7.6264   -5.8520    2.5505 C   0  0  0  0  0  0  0  0  0  0  0  0
    6.2438   -6.0988    2.5076 C   0  0  0  0  0  0  0  0  0  0  0  0
    5.2496   -6.9359    3.6885 S   0  0  0  0  0  0  0  0  0  0  0  0
    2.3274   -8.4802    3.3718 C   0  0  1  0  0  0  0  0  0  0  0  0
    3.3045   -9.5735    2.9542 C   0  0  0  0  0  0  0  0  0  0  0  0
    2.3756  -10.7609    3.3461 C   0  0  1  0  0  0  0  0  0  0  0  0
    1.9675  -11.4258    4.3133 C   0  0  1  0  0  0  0  0  0  0  0  0
    2.2801  -10.2044    5.2473 C   0  0  2  0  0  0  0  0  0  0  0  0
    2.5297   -8.6906    4.9252 C   0  0  0  0  0  0  0  0  0  0  0  0
    0.9962  -10.2907    4.6046 C   0  0  1  0  0  0  0  0  0  0  0  0
    0.8073  -10.5525    3.3461 C   0  0  1  0  0  0  0  0  0  0  0  0
    0.9365   -9.0113    2.7787 C   0  0  1  0  0  0  0  0  0  0  0  0
   -1.9312   -8.9134    2.5021 H   0  0  0  0  0  0  0  0  0  0  0  0
   -2.1422   -7.5377    3.5932 H   0  0  0  0  0  0  0  0  0  0  0  0
   -1.5692   -9.0659    4.2521 H   0  0  0  0  0  0  0  0  0  0  0  0
    5.4560   -4.5284   -0.4029 H   0  0  0  0  0  0  0  0  0  0  0  0
    7.8946   -4.0300   -0.3276 H   0  0  0  0  0  0  0  0  0  0  0  0
    9.2911   -4.8921    1.5839 H   0  0  0  0  0  0  0  0  0  0  0  0
    8.1915   -6.2207    3.3842 H   0  0  0  0  0  0  0  0  0  0  0  0
    3.5061   -9.5644    1.8811 H   0  0  0  0  0  0  0  0  0  0  0  0
    4.2680   -9.5998    3.4752 H   0  0  0  0  0  0  0  0  0  0  0  0
    2.4775  -11.5940    2.6040 H   0  0  0  0  0  0  0  0  0  0  0  0
    2.2012  -12.4915    4.3685 H   0  0  0  0  0  0  0  0  0  0  0  0
    2.1831  -10.4597    6.3025 H   0  0  0  0  0  0  0  0  0  0  0  0
    3.5146   -8.3893    5.2776 H   0  0  0  0  0  0  0  0  0  0  0  0
    1.8141   -8.0769    5.4672 H   0  0  0  0  0  0  0  0  0  0  0  0
    0.2152  -10.8515    5.1900 H   0  0  0  0  0  0  0  0  0  0  0  0
   -0.1528  -11.0503    3.1950 H   0  0  0  0  0  0  0  0  0  0  0  0
    1.0115   -9.0461    1.6890 H   0  0  0  0  0  0  0  0  0  0  0  0
  1  2  1  0
  1 25  1  0
  1 26  1  0
  1 27  1  0
  2 24  1  0
  2  3  2  0
  3  4  1  0
  4  5  2  0
  4  6  1  0
  6  7  1  0
 16  6  1  6
  7 15  1  0
  7  8  2  0
  8  9  1  0
  9 14  2  0
  9 10  1  0
 10 11  2  0
 10 28  1  0
 11 12  1  0
 11 29  1  0
 12 13  2  0
 12 30  1  0
 13 14  1  0
 13 31  1  0
 14 15  1  0
 16 21  1  0
 16 24  1  0
 16 17  1  0
 17 18  1  0
 17 32  1  0
 17 33  1  0
 18 22  1  0
 18 19  1  0
 18 34  1  6
 19 23  1  0
 19 20  1  0
 19 35  1  1
 20 21  1  0
 20 22  1  0
 20 36  1  1
 21 37  1  0
 21 38  1  0
 22 23  1  0
 22 39  1  1
 23 24  1  0
 23 40  1  1
 24 41  1  6
M  END
>  <i_m_ct_stereo_status>  (342) 
1

>  <s_m_source_file>  (342) 
/var/tmp/pbs.5076255.sched01/tmpu61_44ix/12937f0afz8.sdf

>  <i_m_source_file_index>  (342) 
15

>  <i_lp_mmshare_version>  (342) 
48012

>  <i_f3d_flags>  (342) 
0

>  <s_epik_input>  (342) 
W0NIMl0xW0NASF0yW0NAQEhdM1tDQEBIXShbQ0gyXTQpW0NIXTJbQ0hdM1tDQEhdKFtDQEBdMTQ1KUMoW0NIM10pPU5DKD1PKU41YyhuNilzYyhjNjcpW2NIXVtjSF1bY0hdW2NIXTc=

>  <s_epik_cmdline>  (342) 
J2VwaWtfcHl0aG9uJywgJy1waHQnLCAnMi4wJywgJy1waCcsICc3LjAnLCAnLXRuJywgJzgnLCAnLW1hJywgJzIwMCcsICctaW1hZScsICc8aW5maWxlLm1hZT4nLCAnLW9tYWUnLCAnPG91dGZpbGUubWFlPic=

>  <r_lp_tautomer_probability>  (342) 
1

>  <r_epik_Ionization_Penalty>  (342) 
3.85518e-05

>  <r_epik_Ionization_Penalty_Charging>  (342) 
0

>  <r_epik_Ionization_Penalty_Neutral>  (342) 
3.85518e-05

>  <r_epik_State_Penalty>  (342) 
-0

>  <r_epik_Charging_Adjusted_Penalty>  (342) 
0

>  <i_epik_Tot_Q>  (342) 
0

>  <i_epik_Tot_abs_Q>  (342) 
0

>  <s_epik_Chemistry_Notes>  (342) 
This compound has an imine and may undergo hydrolysis.

>  <s_lp_Force_Field>  (342) 
OPLS3e

>  <r_lp_Energy>  (342) 
450.697

>  <b_lp_Chiralities_Consistent>  (342) 
1

>  <s_lp_Variant>  (342) 
99:0-1

>  <s_i_glide_gridfile>  (342) 
pfpi4k_grid

>  <i_i_glide_lignum>  (342) 
15

>  <i_i_glide_rotatable_bonds>  (342) 
1

>  <r_i_docking_score>  (342) 
-2.98516

>  <r_i_glide_ligand_efficiency>  (342) 
-0.124382

>  <r_i_glide_ligand_efficiency_sa>  (342) 
-0.358778

>  <r_i_glide_ligand_efficiency_ln>  (342) 
-0.714485

>  <r_i_glide_gscore>  (342) 
-2.98516

>  <r_i_glide_lipo>  (342) 
-0.539441

>  <r_i_glide_hbond>  (342) 
-0.0385158

>  <r_i_glide_metal>  (342) 
-0

>  <r_i_glide_rewards>  (342) 
-1.12211

>  <r_i_glide_evdw>  (342) 
-22.9006

>  <r_i_glide_ecoul>  (342) 
-1.54881

>  <r_i_glide_erotb>  (342) 
0.167749

>  <r_i_glide_esite>  (342) 
-0.0754854

>  <r_i_glide_emodel>  (342) 
-29.2476

>  <r_i_glide_energy>  (342) 
-24.4494

>  <r_i_glide_einternal>  (342) 
0.495419

>  <r_i_glide_intrahb_reward>  (342) 
-0

>  <i_i_glide_confnum>  (342) 
4

>  <i_i_glide_posenum>  (342) 
34

>  <r_i_glide_eff_state_penalty>  (342) 
0

>  <ligand_id>  (342) 
99

>  <original_smiles>  (342) 
CC1=NC(=O)N(c2nc3ccccc3s2)C23CC4C5C(C2)C4C5C13

>  <smiles>  (342) 
[H]c1c([H])c([H])c2sc(N3C(=O)N=C(C([H])([H])[H])C4([H])C5([H])C6([H])C7([H])C([H])([H])C34C([H])([H])C6([H])C75[H])nc2c1[H]

$$$$
101:0:0
     RDKit          3D

 31 33  0  0  1  0  0  0  0  0999 V2000
    9.4762   -2.5639    0.4984 F   0  0  0  0  0  0  0  0  0  0  0  0
    8.4859   -3.4786    0.5020 C   0  0  0  0  0  0  0  0  0  0  0  0
    8.5752   -4.6591    1.2639 C   0  0  0  0  0  0  0  0  0  0  0  0
    7.6020   -5.5969    1.2828 N   0  0  0  0  0  0  0  0  0  0  0  0
    6.4966   -5.3817    0.5407 C   0  0  0  0  0  0  0  0  0  0  0  0
    6.3076   -4.2332   -0.2598 C   0  0  0  0  0  0  0  0  0  0  0  0
    5.0576   -4.0694   -1.1172 C   0  0  2  0  0  0  0  0  0  0  0  0
    5.3063   -3.4504   -2.5264 C   0  0  0  0  0  0  0  0  0  0  0  0
    4.4870   -2.1380   -2.5106 C   0  0  1  0  0  0  0  0  0  0  0  0
    3.0617   -2.3628   -3.0338 C   0  0  0  0  0  0  0  0  0  0  0  0
    2.3740   -3.4526   -2.2962 N   0  0  0  0  0  0  0  0  0  0  0  0
    2.5812   -3.4495   -0.8277 C   0  0  0  0  0  0  0  0  0  0  0  0
    4.0352   -3.1269   -0.4429 C   0  0  2  0  0  0  0  0  0  0  0  0
    4.3858   -1.7538   -1.0253 C   0  0  0  0  0  0  0  0  0  0  0  0
    7.3311   -3.2586   -0.2580 C   0  0  0  0  0  0  0  0  0  0  0  0
    9.4471   -4.8443    1.8739 H   0  0  0  0  0  0  0  0  0  0  0  0
    5.7631   -6.1799    0.5603 H   0  0  0  0  0  0  0  0  0  0  0  0
    4.6178   -5.0594   -1.2360 H   0  0  0  0  0  0  0  0  0  0  0  0
    6.3552   -3.2482   -2.7653 H   0  0  0  0  0  0  0  0  0  0  0  0
    4.9780   -4.1345   -3.3181 H   0  0  0  0  0  0  0  0  0  0  0  0
    4.9833   -1.3568   -3.0820 H   0  0  0  0  0  0  0  0  0  0  0  0
    2.4910   -1.4483   -2.9119 H   0  0  0  0  0  0  0  0  0  0  0  0
    3.0686   -2.6258   -4.0850 H   0  0  0  0  0  0  0  0  0  0  0  0
    1.3882   -3.3570   -2.4856 H   0  0  0  0  0  0  0  0  0  0  0  0
    1.9484   -2.6849   -0.3958 H   0  0  0  0  0  0  0  0  0  0  0  0
    2.2573   -4.4130   -0.4460 H   0  0  0  0  0  0  0  0  0  0  0  0
    4.1100   -3.1466    0.6456 H   0  0  0  0  0  0  0  0  0  0  0  0
    5.3276   -1.3714   -0.6187 H   0  0  0  0  0  0  0  0  0  0  0  0
    3.6283   -0.9927   -0.8169 H   0  0  0  0  0  0  0  0  0  0  0  0
    7.2737   -2.3560   -0.8412 H   0  0  0  0  0  0  0  0  0  0  0  0
    2.7110   -4.3508   -2.6247 H   0  0  0  0  0  0  0  0  0  0  0  0
  1  2  1  0
  2 15  2  0
  2  3  1  0
  3  4  2  0
  3 16  1  0
  4  5  1  0
  5  6  2  0
  5 17  1  0
  6  7  1  0
  6 15  1  0
  7 13  1  0
  7  8  1  0
  7 18  1  6
  8  9  1  0
  8 19  1  0
  8 20  1  0
  9 14  1  0
  9 10  1  0
  9 21  1  6
 10 11  1  0
 10 22  1  0
 10 23  1  0
 11 12  1  0
 11 24  1  0
 11 31  1  0
 12 13  1  0
 12 25  1  0
 12 26  1  0
 13 14  1  0
 13 27  1  1
 14 28  1  0
 14 29  1  0
 15 30  1  0
M  CHG  1  11   1
M  END
>  <i_m_ct_stereo_status>  (343) 
1

>  <s_m_source_file>  (343) 
/var/tmp/pbs.5076255.sched01/tmpu61_44ix/12937f0afz8.sdf

>  <i_m_source_file_index>  (343) 
17

>  <i_lp_mmshare_version>  (343) 
48012

>  <i_f3d_flags>  (343) 
0

>  <s_epik_input>  (343) 
RmMxW2NIXW5bY0hdYyhbY0hdMSlbQ0BIXShbQ0gyXVtDQEBIXTIzKVtDQEBIXShbQ0gyXTMpW0NIMl1bTkhdW0NIMl0y

>  <s_epik_cmdline>  (343) 
J2VwaWtfcHl0aG9uJywgJy1waHQnLCAnMi4wJywgJy1waCcsICc3LjAnLCAnLXRuJywgJzgnLCAnLW1hJywgJzIwMCcsICctaW1hZScsICc8aW5maWxlLm1hZT4nLCAnLW9tYWUnLCAnPG91dGZpbGUubWFlPic=

>  <r_lp_tautomer_probability>  (343) 
1

>  <r_epik_Ionization_Penalty>  (343) 
0.00026174

>  <r_epik_Ionization_Penalty_Charging>  (343) 
7.49122e-05

>  <r_epik_Ionization_Penalty_Neutral>  (343) 
0.000186828

>  <r_epik_State_Penalty>  (343) 
-0

>  <r_epik_Charging_Adjusted_Penalty>  (343) 
7.49122e-05

>  <i_epik_Tot_Q>  (343) 
1

>  <i_epik_Tot_abs_Q>  (343) 
1

>  <s_lp_Force_Field>  (343) 
OPLS3e

>  <r_lp_Energy>  (343) 
37.6105

>  <b_lp_Chiralities_Consistent>  (343) 
1

>  <s_lp_Variant>  (343) 
101:0-1

>  <s_i_glide_gridfile>  (343) 
pfpi4k_grid

>  <i_i_glide_lignum>  (343) 
17

>  <i_i_glide_rotatable_bonds>  (343) 
1

>  <r_i_docking_score>  (343) 
-4.50737

>  <r_i_glide_ligand_efficiency>  (343) 
-0.300492

>  <r_i_glide_ligand_efficiency_sa>  (343) 
-0.741076

>  <r_i_glide_ligand_efficiency_ln>  (343) 
-1.21556

>  <r_i_glide_gscore>  (343) 
-4.50737

>  <r_i_glide_lipo>  (343) 
-0.796996

>  <r_i_glide_hbond>  (343) 
0

>  <r_i_glide_metal>  (343) 
-0

>  <r_i_glide_rewards>  (343) 
-1.99591

>  <r_i_glide_evdw>  (343) 
-20.1685

>  <r_i_glide_ecoul>  (343) 
-6.82756

>  <r_i_glide_erotb>  (343) 
0.384697

>  <r_i_glide_esite>  (343) 
-0.0666132

>  <r_i_glide_emodel>  (343) 
-34.6295

>  <r_i_glide_energy>  (343) 
-26.996

>  <r_i_glide_einternal>  (343) 
0.701432

>  <r_i_glide_intrahb_reward>  (343) 
-0

>  <i_i_glide_confnum>  (343) 
4

>  <i_i_glide_posenum>  (343) 
13

>  <r_i_glide_eff_state_penalty>  (343) 
0

>  <ligand_id>  (343) 
101

>  <original_smiles>  (343) 
Fc1cncc(C2CC3CNCC2C3)c1

>  <smiles>  (343) 
[H]c1nc([H])c(C2([H])C([H])([H])C3([H])C([H])([H])C2([H])C([H])([H])[N+]([H])([H])C3([H])[H])c([H])c1F

$$$$
101:0:1
     RDKit          3D

 31 33  0  0  1  0  0  0  0  0999 V2000
    4.9916   -7.2788    0.8585 F   0  0  0  0  0  0  0  0  0  0  0  0
    4.3462   -6.1247    1.1478 C   0  0  0  0  0  0  0  0  0  0  0  0
    3.9310   -5.8456    2.4549 C   0  0  0  0  0  0  0  0  0  0  0  0
    3.2777   -4.7063    2.7906 N   0  0  0  0  0  0  0  0  0  0  0  0
    3.0469   -3.7976    1.8150 C   0  0  0  0  0  0  0  0  0  0  0  0
    3.4230   -3.9771    0.4677 C   0  0  0  0  0  0  0  0  0  0  0  0
    3.1375   -2.9145   -0.5980 C   0  0  2  0  0  0  0  0  0  0  0  0
    2.2440   -3.4517   -1.7387 C   0  0  0  0  0  0  0  0  0  0  0  0
    3.0856   -3.2702   -3.0278 C   0  0  1  0  0  0  0  0  0  0  0  0
    2.8506   -1.9044   -3.6874 C   0  0  0  0  0  0  0  0  0  0  0  0
    3.0802   -0.7983   -2.7179 N   0  0  0  0  0  0  0  0  0  0  0  0
    4.2741   -0.9701   -1.8314 C   0  0  0  0  0  0  0  0  0  0  0  0
    4.4162   -2.4221   -1.3206 C   0  0  2  0  0  0  0  0  0  0  0  0
    4.5475   -3.3174   -2.5647 C   0  0  0  0  0  0  0  0  0  0  0  0
    4.0825   -5.1918    0.1259 C   0  0  0  0  0  0  0  0  0  0  0  0
    4.1146   -6.5580    3.2510 H   0  0  0  0  0  0  0  0  0  0  0  0
    2.5173   -2.9018    2.1306 H   0  0  0  0  0  0  0  0  0  0  0  0
    2.6316   -2.0768   -0.1123 H   0  0  0  0  0  0  0  0  0  0  0  0
    1.9881   -4.4917   -1.5411 H   0  0  0  0  0  0  0  0  0  0  0  0
    1.2690   -2.9717   -1.8143 H   0  0  0  0  0  0  0  0  0  0  0  0
    2.8597   -4.0450   -3.7501 H   0  0  0  0  0  0  0  0  0  0  0  0
    3.5304   -1.7749   -4.5257 H   0  0  0  0  0  0  0  0  0  0  0  0
    1.8359   -1.8486   -4.0758 H   0  0  0  0  0  0  0  0  0  0  0  0
    3.1589    0.0816   -3.2193 H   0  0  0  0  0  0  0  0  0  0  0  0
    5.1570   -0.6935   -2.4032 H   0  0  0  0  0  0  0  0  0  0  0  0
    4.1997   -0.2592   -1.0078 H   0  0  0  0  0  0  0  0  0  0  0  0
    5.2865   -2.4718   -0.6756 H   0  0  0  0  0  0  0  0  0  0  0  0
    4.8522   -4.3329   -2.3383 H   0  0  0  0  0  0  0  0  0  0  0  0
    5.2363   -2.8889   -3.3127 H   0  0  0  0  0  0  0  0  0  0  0  0
    4.3663   -5.4273   -0.8824 H   0  0  0  0  0  0  0  0  0  0  0  0
    2.2673   -0.7649   -2.0950 H   0  0  0  0  0  0  0  0  0  0  0  0
  1  2  1  0
  2 15  2  0
  2  3  1  0
  3  4  2  0
  3 16  1  0
  4  5  1  0
  5  6  2  0
  5 17  1  0
  6  7  1  0
  6 15  1  0
  7 13  1  0
  7  8  1  0
  7 18  1  1
  8  9  1  0
  8 19  1  0
  8 20  1  0
  9 14  1  0
  9 10  1  0
  9 21  1  6
 10 11  1  0
 10 22  1  0
 10 23  1  0
 11 12  1  0
 11 24  1  0
 11 31  1  0
 12 13  1  0
 12 25  1  0
 12 26  1  0
 13 14  1  0
 13 27  1  1
 14 28  1  0
 14 29  1  0
 15 30  1  0
M  CHG  1  11   1
M  END
>  <i_m_ct_stereo_status>  (344) 
1

>  <s_m_source_file>  (344) 
/var/tmp/pbs.5076255.sched01/tmpu61_44ix/12937f0afz8.sdf

>  <i_m_source_file_index>  (344) 
17

>  <i_lp_mmshare_version>  (344) 
48012

>  <i_f3d_flags>  (344) 
0

>  <s_epik_input>  (344) 
RmMxW2NIXW5bY0hdYyhbY0hdMSlbQ0BIXShbQ0gyXVtDQEBIXTIzKVtDQEBIXShbQ0gyXTMpW0NIMl1bTkhdW0NIMl0y

>  <s_epik_cmdline>  (344) 
J2VwaWtfcHl0aG9uJywgJy1waHQnLCAnMi4wJywgJy1waCcsICc3LjAnLCAnLXRuJywgJzgnLCAnLW1hJywgJzIwMCcsICctaW1hZScsICc8aW5maWxlLm1hZT4nLCAnLW9tYWUnLCAnPG91dGZpbGUubWFlPic=

>  <r_lp_tautomer_probability>  (344) 
1

>  <r_epik_Ionization_Penalty>  (344) 
0.00026174

>  <r_epik_Ionization_Penalty_Charging>  (344) 
7.49122e-05

>  <r_epik_Ionization_Penalty_Neutral>  (344) 
0.000186828

>  <r_epik_State_Penalty>  (344) 
-0

>  <r_epik_Charging_Adjusted_Penalty>  (344) 
7.49122e-05

>  <i_epik_Tot_Q>  (344) 
1

>  <i_epik_Tot_abs_Q>  (344) 
1

>  <s_lp_Force_Field>  (344) 
OPLS3e

>  <r_lp_Energy>  (344) 
37.6105

>  <b_lp_Chiralities_Consistent>  (344) 
1

>  <s_lp_Variant>  (344) 
101:0-1

>  <s_i_glide_gridfile>  (344) 
pfpi4k_grid

>  <i_i_glide_lignum>  (344) 
17

>  <i_i_glide_rotatable_bonds>  (344) 
1

>  <r_i_docking_score>  (344) 
-4.01581

>  <r_i_glide_ligand_efficiency>  (344) 
-0.267721

>  <r_i_glide_ligand_efficiency_sa>  (344) 
-0.660256

>  <r_i_glide_ligand_efficiency_ln>  (344) 
-1.083

>  <r_i_glide_gscore>  (344) 
-4.01581

>  <r_i_glide_lipo>  (344) 
-0.465249

>  <r_i_glide_hbond>  (344) 
-0.2

>  <r_i_glide_metal>  (344) 
-0

>  <r_i_glide_rewards>  (344) 
-2.08195

>  <r_i_glide_evdw>  (344) 
-15.8869

>  <r_i_glide_ecoul>  (344) 
-5.39935

>  <r_i_glide_erotb>  (344) 
0.384697

>  <r_i_glide_esite>  (344) 
-0.049066

>  <r_i_glide_emodel>  (344) 
-27.8202

>  <r_i_glide_energy>  (344) 
-21.2863

>  <r_i_glide_einternal>  (344) 
0.152454

>  <r_i_glide_intrahb_reward>  (344) 
-0

>  <i_i_glide_confnum>  (344) 
1

>  <i_i_glide_posenum>  (344) 
2

>  <r_i_glide_eff_state_penalty>  (344) 
0

>  <ligand_id>  (344) 
101

>  <original_smiles>  (344) 
Fc1cncc(C2CC3CNCC2C3)c1

>  <smiles>  (344) 
[H]c1nc([H])c(C2([H])C([H])([H])C3([H])C([H])([H])C2([H])C([H])([H])[N+]([H])([H])C3([H])[H])c([H])c1F

$$$$
101:0:2
     RDKit          3D

 31 33  0  0  1  0  0  0  0  0999 V2000
    3.5230    0.3301    2.9626 F   0  0  0  0  0  0  0  0  0  0  0  0
    3.9724   -0.8402    2.4583 C   0  0  0  0  0  0  0  0  0  0  0  0
    4.8753   -1.6369    3.1928 C   0  0  0  0  0  0  0  0  0  0  0  0
    5.3331   -2.8172    2.7412 N   0  0  0  0  0  0  0  0  0  0  0  0
    4.9362   -3.2437    1.5250 C   0  0  0  0  0  0  0  0  0  0  0  0
    4.0683   -2.5065    0.6831 C   0  0  0  0  0  0  0  0  0  0  0  0
    3.7118   -3.0119   -0.7201 C   0  0  2  0  0  0  0  0  0  0  0  0
    4.8756   -3.8096   -1.3872 C   0  0  0  0  0  0  0  0  0  0  0  0
    5.2043   -3.0482   -2.6804 C   0  0  1  0  0  0  0  0  0  0  0  0
    4.3611   -3.5333   -3.8766 C   0  0  0  0  0  0  0  0  0  0  0  0
    2.9054   -3.4759   -3.5936 N   0  0  0  0  0  0  0  0  0  0  0  0
    2.4599   -2.2772   -2.8587 C   0  0  0  0  0  0  0  0  0  0  0  0
    3.4290   -1.8649   -1.7337 C   0  0  2  0  0  0  0  0  0  0  0  0
    4.8015   -1.6139   -2.3430 C   0  0  0  0  0  0  0  0  0  0  0  0
    3.5548   -1.2928    1.1964 C   0  0  0  0  0  0  0  0  0  0  0  0
    5.2160   -1.3255    4.1703 H   0  0  0  0  0  0  0  0  0  0  0  0
    5.3377   -4.1997    1.2239 H   0  0  0  0  0  0  0  0  0  0  0  0
    2.8280   -3.6438   -0.6118 H   0  0  0  0  0  0  0  0  0  0  0  0
    5.7884   -3.8122   -0.7908 H   0  0  0  0  0  0  0  0  0  0  0  0
    4.6189   -4.8578   -1.5653 H   0  0  0  0  0  0  0  0  0  0  0  0
    6.2694   -3.1193   -2.9128 H   0  0  0  0  0  0  0  0  0  0  0  0
    4.5743   -2.8944   -4.7196 H   0  0  0  0  0  0  0  0  0  0  0  0
    4.6335   -4.5598   -4.1408 H   0  0  0  0  0  0  0  0  0  0  0  0
    2.3680   -3.5509   -4.4474 H   0  0  0  0  0  0  0  0  0  0  0  0
    2.3580   -1.4585   -3.5695 H   0  0  0  0  0  0  0  0  0  0  0  0
    1.4742   -2.4896   -2.4497 H   0  0  0  0  0  0  0  0  0  0  0  0
    3.0196   -0.9562   -1.2977 H   0  0  0  0  0  0  0  0  0  0  0  0
    5.4682   -1.1739   -1.5975 H   0  0  0  0  0  0  0  0  0  0  0  0
    4.7685   -0.9501   -3.2085 H   0  0  0  0  0  0  0  0  0  0  0  0
    2.8533   -0.6833    0.6402 H   0  0  0  0  0  0  0  0  0  0  0  0
    2.7008   -4.2928   -3.0207 H   0  0  0  0  0  0  0  0  0  0  0  0
  1  2  1  0
  2 15  2  0
  2  3  1  0
  3  4  2  0
  3 16  1  0
  4  5  1  0
  5  6  2  0
  5 17  1  0
  6  7  1  0
  6 15  1  0
  7 13  1  0
  7  8  1  0
  7 18  1  1
  8  9  1  0
  8 19  1  0
  8 20  1  0
  9 14  1  0
  9 10  1  0
  9 21  1  6
 10 11  1  0
 10 22  1  0
 10 23  1  0
 11 12  1  0
 11 24  1  0
 11 31  1  0
 12 13  1  0
 12 25  1  0
 12 26  1  0
 13 14  1  0
 13 27  1  1
 14 28  1  0
 14 29  1  0
 15 30  1  0
M  CHG  1  11   1
M  END
>  <i_m_ct_stereo_status>  (345) 
1

>  <s_m_source_file>  (345) 
/var/tmp/pbs.5076255.sched01/tmpu61_44ix/12937f0afz8.sdf

>  <i_m_source_file_index>  (345) 
17

>  <i_lp_mmshare_version>  (345) 
48012

>  <i_f3d_flags>  (345) 
0

>  <s_epik_input>  (345) 
RmMxW2NIXW5bY0hdYyhbY0hdMSlbQ0BIXShbQ0gyXVtDQEBIXTIzKVtDQEBIXShbQ0gyXTMpW0NIMl1bTkhdW0NIMl0y

>  <s_epik_cmdline>  (345) 
J2VwaWtfcHl0aG9uJywgJy1waHQnLCAnMi4wJywgJy1waCcsICc3LjAnLCAnLXRuJywgJzgnLCAnLW1hJywgJzIwMCcsICctaW1hZScsICc8aW5maWxlLm1hZT4nLCAnLW9tYWUnLCAnPG91dGZpbGUubWFlPic=

>  <r_lp_tautomer_probability>  (345) 
1

>  <r_epik_Ionization_Penalty>  (345) 
0.00026174

>  <r_epik_Ionization_Penalty_Charging>  (345) 
7.49122e-05

>  <r_epik_Ionization_Penalty_Neutral>  (345) 
0.000186828

>  <r_epik_State_Penalty>  (345) 
-0

>  <r_epik_Charging_Adjusted_Penalty>  (345) 
7.49122e-05

>  <i_epik_Tot_Q>  (345) 
1

>  <i_epik_Tot_abs_Q>  (345) 
1

>  <s_lp_Force_Field>  (345) 
OPLS3e

>  <r_lp_Energy>  (345) 
37.6105

>  <b_lp_Chiralities_Consistent>  (345) 
1

>  <s_lp_Variant>  (345) 
101:0-1

>  <s_i_glide_gridfile>  (345) 
pfpi4k_grid

>  <i_i_glide_lignum>  (345) 
17

>  <i_i_glide_rotatable_bonds>  (345) 
1

>  <r_i_docking_score>  (345) 
-3.669

>  <r_i_glide_ligand_efficiency>  (345) 
-0.2446

>  <r_i_glide_ligand_efficiency_sa>  (345) 
-0.603236

>  <r_i_glide_ligand_efficiency_ln>  (345) 
-0.98947

>  <r_i_glide_gscore>  (345) 
-3.669

>  <r_i_glide_lipo>  (345) 
-0.384871

>  <r_i_glide_hbond>  (345) 
0

>  <r_i_glide_metal>  (345) 
-0

>  <r_i_glide_rewards>  (345) 
-2.00459

>  <r_i_glide_evdw>  (345) 
-17.8594

>  <r_i_glide_ecoul>  (345) 
-5.14179

>  <r_i_glide_erotb>  (345) 
0.384697

>  <r_i_glide_esite>  (345) 
0

>  <r_i_glide_emodel>  (345) 
-25.9896

>  <r_i_glide_energy>  (345) 
-23.0012

>  <r_i_glide_einternal>  (345) 
6.77396

>  <r_i_glide_intrahb_reward>  (345) 
-0

>  <i_i_glide_confnum>  (345) 
2

>  <i_i_glide_posenum>  (345) 
1

>  <r_i_glide_eff_state_penalty>  (345) 
0

>  <ligand_id>  (345) 
101

>  <original_smiles>  (345) 
Fc1cncc(C2CC3CNCC2C3)c1

>  <smiles>  (345) 
[H]c1nc([H])c(C2([H])C([H])([H])C3([H])C([H])([H])C2([H])C([H])([H])[N+]([H])([H])C3([H])[H])c([H])c1F

$$$$
102:0:0
     RDKit          3D

 47 49  0  0  1  0  0  0  0  0999 V2000
    3.1245   -4.0309    1.1387 O   0  0  0  0  0  0  0  0  0  0  0  0
    3.0830   -2.8365    1.3018 C   0  0  0  0  0  0  0  0  0  0  0  0
    2.2224   -2.2973    2.2219 O   0  0  0  0  0  0  0  0  0  0  0  0
    2.2776   -0.9966    2.8036 C   0  0  2  0  0  0  0  0  0  0  0  0
    2.9434   -0.0300    1.8401 C   0  0  0  0  0  0  0  0  0  0  0  0
    3.6510   -0.5065    0.8137 C   0  0  0  0  0  0  0  0  0  0  0  0
    3.8203   -1.8526    0.5777 N   0  0  0  0  0  0  0  0  0  0  0  0
    4.7396   -2.3109   -0.4642 C   0  0  0  0  0  0  0  0  0  0  0  0
    4.0116   -2.7780   -1.7351 C   0  0  0  0  0  0  0  0  0  0  0  0
    4.9564   -3.3776   -2.7815 C   0  0  0  0  0  0  0  0  0  0  0  0
    4.2175   -3.8448   -3.8883 O   0  0  0  0  0  0  0  0  0  0  0  0
    3.1238   -1.1326    4.0929 C   0  0  0  0  0  0  0  0  0  0  0  0
    2.3669   -1.8211    5.2201 C   0  0  0  0  0  0  0  0  0  0  0  0
    1.0522   -2.0946    5.1887 C   0  0  0  0  0  0  0  0  0  0  0  0
    0.1472   -1.6785    4.0455 C   0  0  0  0  0  0  0  0  0  0  0  0
    0.8190   -0.5595    3.1769 C   0  0  1  0  0  0  0  0  0  0  0  0
    0.7860    0.8707    3.8351 C   0  0  2  0  0  0  0  0  0  0  0  0
    0.0856    0.9281    5.2026 C   0  0  0  0  0  0  0  0  0  0  0  0
   -0.6991    1.9316    5.6102 C   0  0  0  0  0  0  0  0  0  0  0  0
   -0.9204    3.1940    4.8038 C   0  0  0  0  0  0  0  0  0  0  0  0
    0.0871    3.3130    3.6434 C   0  0  0  0  0  0  0  0  0  0  0  0
    0.2505    1.9794    2.8885 C   0  0  0  0  0  0  0  0  0  0  0  0
    2.8493    1.0344    1.9889 H   0  0  0  0  0  0  0  0  0  0  0  0
    4.1602    0.1317    0.1207 H   0  0  0  0  0  0  0  0  0  0  0  0
    5.4354   -1.5110   -0.6973 H   0  0  0  0  0  0  0  0  0  0  0  0
    5.3585   -3.1088   -0.0592 H   0  0  0  0  0  0  0  0  0  0  0  0
    3.2715   -3.5303   -1.4718 H   0  0  0  0  0  0  0  0  0  0  0  0
    3.4556   -1.9472   -2.1612 H   0  0  0  0  0  0  0  0  0  0  0  0
    5.6847   -2.6389   -3.1228 H   0  0  0  0  0  0  0  0  0  0  0  0
    5.5149   -4.2156   -2.3581 H   0  0  0  0  0  0  0  0  0  0  0  0
    3.6359   -4.5334   -3.5639 H   0  0  0  0  0  0  0  0  0  0  0  0
    4.0501   -1.6735    3.8842 H   0  0  0  0  0  0  0  0  0  0  0  0
    3.4385   -0.1593    4.4703 H   0  0  0  0  0  0  0  0  0  0  0  0
    2.9549   -2.0894    6.0910 H   0  0  0  0  0  0  0  0  0  0  0  0
    0.5928   -2.5887    6.0303 H   0  0  0  0  0  0  0  0  0  0  0  0
   -0.0795   -2.5731    3.4478 H   0  0  0  0  0  0  0  0  0  0  0  0
   -0.8252   -1.3550    4.4286 H   0  0  0  0  0  0  0  0  0  0  0  0
    0.2387   -0.5174    2.2497 H   0  0  0  0  0  0  0  0  0  0  0  0
    1.7985    1.1988    4.0688 H   0  0  0  0  0  0  0  0  0  0  0  0
    0.2648    0.1346    5.9194 H   0  0  0  0  0  0  0  0  0  0  0  0
   -1.1889    1.8650    6.5765 H   0  0  0  0  0  0  0  0  0  0  0  0
   -1.9382    3.1721    4.4289 H   0  0  0  0  0  0  0  0  0  0  0  0
   -0.8183    4.0389    5.4821 H   0  0  0  0  0  0  0  0  0  0  0  0
   -0.2148    4.1112    2.9605 H   0  0  0  0  0  0  0  0  0  0  0  0
    1.0663    3.6011    4.0355 H   0  0  0  0  0  0  0  0  0  0  0  0
    0.9259    2.1404    2.0494 H   0  0  0  0  0  0  0  0  0  0  0  0
   -0.6994    1.6960    2.4359 H   0  0  0  0  0  0  0  0  0  0  0  0
  1  2  2  0
  2  7  1  0
  2  3  1  0
  4  3  1  6
  4 16  1  0
  4  5  1  0
  4 12  1  0
  5  6  2  0
  5 23  1  0
  6  7  1  0
  6 24  1  0
  7  8  1  0
  8  9  1  0
  8 25  1  0
  8 26  1  0
  9 10  1  0
  9 27  1  0
  9 28  1  0
 10 11  1  0
 10 29  1  0
 10 30  1  0
 11 31  1  0
 12 13  1  0
 12 32  1  0
 12 33  1  0
 13 14  2  0
 13 34  1  0
 14 15  1  0
 14 35  1  0
 15 16  1  0
 15 36  1  0
 15 37  1  0
 16 17  1  0
 16 38  1  6
 17 22  1  0
 17 18  1  0
 17 39  1  1
 18 19  2  0
 18 40  1  0
 19 20  1  0
 19 41  1  0
 20 21  1  0
 20 42  1  0
 20 43  1  0
 21 22  1  0
 21 44  1  0
 21 45  1  0
 22 46  1  0
 22 47  1  0
M  END
>  <i_m_ct_stereo_status>  (346) 
1

>  <s_m_source_file>  (346) 
/var/tmp/pbs.5076255.sched01/tmpu61_44ix/12937f0afz8.sdf

>  <i_m_source_file_index>  (346) 
18

>  <i_lp_mmshare_version>  (346) 
48012

>  <i_f3d_flags>  (346) 
0

>  <s_epik_input>  (346) 
W09IXVtDSDJdW0NIMl1bQ0gyXU4oW0NIXT1bQ0hdMSlDKD1PKU9bQ0BAXTEyW0NIMl1bQ0hdPVtDSF1bQ0gyXVtDQEhdMltDQEBIXTNbQ0hdPVtDSF1bQ0gyXVtDSDJdW0NIMl0z

>  <s_epik_cmdline>  (346) 
J2VwaWtfcHl0aG9uJywgJy1waHQnLCAnMi4wJywgJy1waCcsICc3LjAnLCAnLXRuJywgJzgnLCAnLW1hJywgJzIwMCcsICctaW1hZScsICc8aW5maWxlLm1hZT4nLCAnLW9tYWUnLCAnPG91dGZpbGUubWFlPic=

>  <r_lp_tautomer_probability>  (346) 
1

>  <r_epik_Ionization_Penalty>  (346) 
1.87331e-07

>  <r_epik_Ionization_Penalty_Charging>  (346) 
0

>  <r_epik_Ionization_Penalty_Neutral>  (346) 
1.87331e-07

>  <r_epik_State_Penalty>  (346) 
-0

>  <r_epik_Charging_Adjusted_Penalty>  (346) 
0

>  <i_epik_Tot_Q>  (346) 
0

>  <i_epik_Tot_abs_Q>  (346) 
0

>  <s_epik_Chemistry_Notes>  (346) 
This compound has an ester and may undergo hydrolysis at high or low pH.

>  <s_lp_Force_Field>  (346) 
OPLS3e

>  <r_lp_Energy>  (346) 
23.3936

>  <b_lp_Chiralities_Consistent>  (346) 
1

>  <s_lp_Variant>  (346) 
102:0-1

>  <s_i_glide_gridfile>  (346) 
pfpi4k_grid

>  <i_i_glide_lignum>  (346) 
18

>  <i_i_glide_rotatable_bonds>  (346) 
5

>  <r_i_docking_score>  (346) 
-2.80244

>  <r_i_glide_ligand_efficiency>  (346) 
-0.127384

>  <r_i_glide_ligand_efficiency_sa>  (346) 
-0.356934

>  <r_i_glide_ligand_efficiency_ln>  (346) 
-0.685019

>  <r_i_glide_gscore>  (346) 
-2.80244

>  <r_i_glide_lipo>  (346) 
-0.170801

>  <r_i_glide_hbond>  (346) 
-0.32

>  <r_i_glide_metal>  (346) 
-0

>  <r_i_glide_rewards>  (346) 
-1.34048

>  <r_i_glide_evdw>  (346) 
-21.8326

>  <r_i_glide_ecoul>  (346) 
-4.27006

>  <r_i_glide_erotb>  (346) 
0.800727

>  <r_i_glide_esite>  (346) 
-0.0397491

>  <r_i_glide_emodel>  (346) 
-30.0392

>  <r_i_glide_energy>  (346) 
-26.1026

>  <r_i_glide_einternal>  (346) 
1.42615

>  <r_i_glide_intrahb_reward>  (346) 
-0

>  <i_i_glide_confnum>  (346) 
2

>  <i_i_glide_posenum>  (346) 
3

>  <r_i_glide_eff_state_penalty>  (346) 
0

>  <ligand_id>  (346) 
102

>  <original_smiles>  (346) 
O=C1OC2(C=CN1CCCO)CC=CCC2C1C=CCCC1

>  <smiles>  (346) 
[H]OC([H])([H])C([H])([H])C([H])([H])N1C(=O)OC2(C([H])=C1[H])C([H])([H])C([H])=C([H])C([H])([H])C2([H])C1([H])C([H])=C([H])C([H])([H])C([H])([H])C1([H])[H]

$$$$
102:0:1
     RDKit          3D

 47 49  0  0  1  0  0  0  0  0999 V2000
    5.9021   -4.5101   -0.2850 O   0  0  0  0  0  0  0  0  0  0  0  0
    5.1095   -4.7758    0.6007 C   0  0  0  0  0  0  0  0  0  0  0  0
    4.6771   -6.0624    0.7719 O   0  0  0  0  0  0  0  0  0  0  0  0
    4.1520   -6.6245    1.9765 C   0  0  2  0  0  0  0  0  0  0  0  0
    3.3808   -5.5574    2.7414 C   0  0  0  0  0  0  0  0  0  0  0  0
    3.5764   -4.2706    2.4627 C   0  0  0  0  0  0  0  0  0  0  0  0
    4.4803   -3.8605    1.4863 N   0  0  0  0  0  0  0  0  0  0  0  0
    4.7625   -2.4390    1.3628 C   0  0  0  0  0  0  0  0  0  0  0  0
    3.8189   -1.7297    0.3703 C   0  0  0  0  0  0  0  0  0  0  0  0
    3.8062   -2.3417   -1.0439 C   0  0  0  0  0  0  0  0  0  0  0  0
    3.0303   -1.5155   -1.8876 O   0  0  0  0  0  0  0  0  0  0  0  0
    5.4074   -7.0931    2.7470 C   0  0  0  0  0  0  0  0  0  0  0  0
    6.0452   -8.3482    2.1508 C   0  0  0  0  0  0  0  0  0  0  0  0
    5.4264   -9.1459    1.2486 C   0  0  0  0  0  0  0  0  0  0  0  0
    4.0581   -8.8379    0.6851 C   0  0  0  0  0  0  0  0  0  0  0  0
    3.2552   -7.8541    1.5962 C   0  0  1  0  0  0  0  0  0  0  0  0
    2.5986   -8.5569    2.8635 C   0  0  2  0  0  0  0  0  0  0  0  0
    3.5027   -9.6176    3.5259 C   0  0  0  0  0  0  0  0  0  0  0  0
    3.0644  -10.7819    4.0085 C   0  0  0  0  0  0  0  0  0  0  0  0
    1.6071  -11.1837    4.0600 C   0  0  0  0  0  0  0  0  0  0  0  0
    0.6840   -9.9691    3.7831 C   0  0  0  0  0  0  0  0  0  0  0  0
    1.1754   -9.1232    2.5820 C   0  0  0  0  0  0  0  0  0  0  0  0
    2.6774   -5.8005    3.5150 H   0  0  0  0  0  0  0  0  0  0  0  0
    3.0735   -3.4654    2.9885 H   0  0  0  0  0  0  0  0  0  0  0  0
    4.6591   -1.9731    2.3434 H   0  0  0  0  0  0  0  0  0  0  0  0
    5.8035   -2.2686    1.0933 H   0  0  0  0  0  0  0  0  0  0  0  0
    2.8044   -1.6975    0.7549 H   0  0  0  0  0  0  0  0  0  0  0  0
    4.1436   -0.6981    0.2833 H   0  0  0  0  0  0  0  0  0  0  0  0
    4.8116   -2.4011   -1.4525 H   0  0  0  0  0  0  0  0  0  0  0  0
    3.3661   -3.3462   -1.0441 H   0  0  0  0  0  0  0  0  0  0  0  0
    2.1496   -1.4533   -1.5543 H   0  0  0  0  0  0  0  0  0  0  0  0
    6.1312   -6.2933    2.8851 H   0  0  0  0  0  0  0  0  0  0  0  0
    5.1111   -7.3718    3.7443 H   0  0  0  0  0  0  0  0  0  0  0  0
    7.0056   -8.6381    2.5160 H   0  0  0  0  0  0  0  0  0  0  0  0
    5.9274  -10.0074    0.8672 H   0  0  0  0  0  0  0  0  0  0  0  0
    4.2170   -8.4869   -0.3438 H   0  0  0  0  0  0  0  0  0  0  0  0
    3.5379   -9.7847    0.5967 H   0  0  0  0  0  0  0  0  0  0  0  0
    2.4662   -7.4576    0.9655 H   0  0  0  0  0  0  0  0  0  0  0  0
    2.4006   -7.8525    3.6712 H   0  0  0  0  0  0  0  0  0  0  0  0
    4.5535   -9.4261    3.6998 H   0  0  0  0  0  0  0  0  0  0  0  0
    3.7825  -11.4736    4.4066 H   0  0  0  0  0  0  0  0  0  0  0  0
    1.4565  -11.9817    3.3274 H   0  0  0  0  0  0  0  0  0  0  0  0
    1.4443  -11.5739    5.0685 H   0  0  0  0  0  0  0  0  0  0  0  0
   -0.3521  -10.3049    3.6409 H   0  0  0  0  0  0  0  0  0  0  0  0
    0.6928   -9.3062    4.6556 H   0  0  0  0  0  0  0  0  0  0  0  0
    0.4710   -8.3074    2.3789 H   0  0  0  0  0  0  0  0  0  0  0  0
    1.1587   -9.7573    1.7003 H   0  0  0  0  0  0  0  0  0  0  0  0
  1  2  2  0
  2  7  1  0
  2  3  1  0
  4  3  1  6
  4 16  1  0
  4  5  1  0
  4 12  1  0
  5  6  2  0
  5 23  1  0
  6  7  1  0
  6 24  1  0
  7  8  1  0
  8  9  1  0
  8 25  1  0
  8 26  1  0
  9 10  1  0
  9 27  1  0
  9 28  1  0
 10 11  1  0
 10 29  1  0
 10 30  1  0
 11 31  1  0
 12 13  1  0
 12 32  1  0
 12 33  1  0
 13 14  2  0
 13 34  1  0
 14 15  1  0
 14 35  1  0
 15 16  1  0
 15 36  1  0
 15 37  1  0
 16 17  1  0
 16 38  1  6
 17 22  1  0
 17 18  1  0
 17 39  1  1
 18 19  2  0
 18 40  1  0
 19 20  1  0
 19 41  1  0
 20 21  1  0
 20 42  1  0
 20 43  1  0
 21 22  1  0
 21 44  1  0
 21 45  1  0
 22 46  1  0
 22 47  1  0
M  END
>  <i_m_ct_stereo_status>  (347) 
1

>  <s_m_source_file>  (347) 
/var/tmp/pbs.5076255.sched01/tmpu61_44ix/12937f0afz8.sdf

>  <i_m_source_file_index>  (347) 
18

>  <i_lp_mmshare_version>  (347) 
48012

>  <i_f3d_flags>  (347) 
0

>  <s_epik_input>  (347) 
W09IXVtDSDJdW0NIMl1bQ0gyXU4oW0NIXT1bQ0hdMSlDKD1PKU9bQ0BAXTEyW0NIMl1bQ0hdPVtDSF1bQ0gyXVtDQEhdMltDQEBIXTNbQ0hdPVtDSF1bQ0gyXVtDSDJdW0NIMl0z

>  <s_epik_cmdline>  (347) 
J2VwaWtfcHl0aG9uJywgJy1waHQnLCAnMi4wJywgJy1waCcsICc3LjAnLCAnLXRuJywgJzgnLCAnLW1hJywgJzIwMCcsICctaW1hZScsICc8aW5maWxlLm1hZT4nLCAnLW9tYWUnLCAnPG91dGZpbGUubWFlPic=

>  <r_lp_tautomer_probability>  (347) 
1

>  <r_epik_Ionization_Penalty>  (347) 
1.87331e-07

>  <r_epik_Ionization_Penalty_Charging>  (347) 
0

>  <r_epik_Ionization_Penalty_Neutral>  (347) 
1.87331e-07

>  <r_epik_State_Penalty>  (347) 
-0

>  <r_epik_Charging_Adjusted_Penalty>  (347) 
0

>  <i_epik_Tot_Q>  (347) 
0

>  <i_epik_Tot_abs_Q>  (347) 
0

>  <s_epik_Chemistry_Notes>  (347) 
This compound has an ester and may undergo hydrolysis at high or low pH.

>  <s_lp_Force_Field>  (347) 
OPLS3e

>  <r_lp_Energy>  (347) 
23.3936

>  <b_lp_Chiralities_Consistent>  (347) 
1

>  <s_lp_Variant>  (347) 
102:0-1

>  <s_i_glide_gridfile>  (347) 
pfpi4k_grid

>  <i_i_glide_lignum>  (347) 
18

>  <i_i_glide_rotatable_bonds>  (347) 
5

>  <r_i_docking_score>  (347) 
-2.73779

>  <r_i_glide_ligand_efficiency>  (347) 
-0.124445

>  <r_i_glide_ligand_efficiency_sa>  (347) 
-0.3487

>  <r_i_glide_ligand_efficiency_ln>  (347) 
-0.669216

>  <r_i_glide_gscore>  (347) 
-2.73779

>  <r_i_glide_lipo>  (347) 
-0.207943

>  <r_i_glide_hbond>  (347) 
-0.16

>  <r_i_glide_metal>  (347) 
-0

>  <r_i_glide_rewards>  (347) 
-1.45544

>  <r_i_glide_evdw>  (347) 
-19.397

>  <r_i_glide_ecoul>  (347) 
-4.96855

>  <r_i_glide_erotb>  (347) 
0.800727

>  <r_i_glide_esite>  (347) 
0

>  <r_i_glide_emodel>  (347) 
-27.0107

>  <r_i_glide_energy>  (347) 
-24.3656

>  <r_i_glide_einternal>  (347) 
1.85614

>  <r_i_glide_intrahb_reward>  (347) 
-0

>  <i_i_glide_confnum>  (347) 
4

>  <i_i_glide_posenum>  (347) 
2

>  <r_i_glide_eff_state_penalty>  (347) 
0

>  <ligand_id>  (347) 
102

>  <original_smiles>  (347) 
O=C1OC2(C=CN1CCCO)CC=CCC2C1C=CCCC1

>  <smiles>  (347) 
[H]OC([H])([H])C([H])([H])C([H])([H])N1C(=O)OC2(C([H])=C1[H])C([H])([H])C([H])=C([H])C([H])([H])C2([H])C1([H])C([H])=C([H])C([H])([H])C([H])([H])C1([H])[H]

$$$$
102:0:2
     RDKit          3D

 47 49  0  0  1  0  0  0  0  0999 V2000
    6.0999   -4.2328   -0.2872 O   0  0  0  0  0  0  0  0  0  0  0  0
    5.0595   -4.6825    0.2264 C   0  0  0  0  0  0  0  0  0  0  0  0
    5.0189   -5.9881    0.6410 O   0  0  0  0  0  0  0  0  0  0  0  0
    4.2138   -6.4743    1.7247 C   0  0  2  0  0  0  0  0  0  0  0  0
    2.8765   -5.7744    1.7195 C   0  0  0  0  0  0  0  0  0  0  0  0
    2.7704   -4.6036    1.0450 C   0  0  0  0  0  0  0  0  0  0  0  0
    3.8270   -4.0365    0.3569 N   0  0  0  0  0  0  0  0  0  0  0  0
    3.6230   -2.7039   -0.2171 C   0  0  0  0  0  0  0  0  0  0  0  0
    3.2181   -2.7333   -1.7052 C   0  0  0  0  0  0  0  0  0  0  0  0
    4.2870   -3.3072   -2.6560 C   0  0  0  0  0  0  0  0  0  0  0  0
    3.7630   -3.3607   -3.9573 O   0  0  0  0  0  0  0  0  0  0  0  0
    5.0332   -6.1287    2.9897 C   0  0  0  0  0  0  0  0  0  0  0  0
    6.2490   -7.0501    3.1676 C   0  0  0  0  0  0  0  0  0  0  0  0
    6.4058   -8.2091    2.5194 C   0  0  0  0  0  0  0  0  0  0  0  0
    5.4371   -8.7170    1.4666 C   0  0  0  0  0  0  0  0  0  0  0  0
    4.0483   -8.0283    1.5833 C   0  0  1  0  0  0  0  0  0  0  0  0
    3.1587   -8.6739    2.7134 C   0  0  2  0  0  0  0  0  0  0  0  0
    3.9620   -8.9803    3.9918 C   0  0  0  0  0  0  0  0  0  0  0  0
    3.7728  -10.1043    4.7374 C   0  0  0  0  0  0  0  0  0  0  0  0
    2.7171  -11.1431    4.4439 C   0  0  0  0  0  0  0  0  0  0  0  0
    1.6849  -10.6357    3.4026 C   0  0  0  0  0  0  0  0  0  0  0  0
    2.3730   -9.9167    2.2117 C   0  0  0  0  0  0  0  0  0  0  0  0
    2.0329   -6.1447    2.2554 H   0  0  0  0  0  0  0  0  0  0  0  0
    1.8907   -4.0029    1.0459 H   0  0  0  0  0  0  0  0  0  0  0  0
    2.8369   -2.2071    0.3468 H   0  0  0  0  0  0  0  0  0  0  0  0
    4.4974   -2.0784   -0.0440 H   0  0  0  0  0  0  0  0  0  0  0  0
    2.2770   -3.2716   -1.8178 H   0  0  0  0  0  0  0  0  0  0  0  0
    2.9944   -1.7088   -1.9996 H   0  0  0  0  0  0  0  0  0  0  0  0
    5.1968   -2.7033   -2.6232 H   0  0  0  0  0  0  0  0  0  0  0  0
    4.5590   -4.3309   -2.4015 H   0  0  0  0  0  0  0  0  0  0  0  0
    3.0983   -4.0391   -3.9262 H   0  0  0  0  0  0  0  0  0  0  0  0
    5.3098   -5.0804    3.0205 H   0  0  0  0  0  0  0  0  0  0  0  0
    4.4194   -6.2857    3.8590 H   0  0  0  0  0  0  0  0  0  0  0  0
    6.9747   -6.7610    3.8968 H   0  0  0  0  0  0  0  0  0  0  0  0
    7.3174   -8.7643    2.6402 H   0  0  0  0  0  0  0  0  0  0  0  0
    5.9024   -8.5687    0.5001 H   0  0  0  0  0  0  0  0  0  0  0  0
    5.3786   -9.7909    1.5698 H   0  0  0  0  0  0  0  0  0  0  0  0
    3.5894   -8.1870    0.6168 H   0  0  0  0  0  0  0  0  0  0  0  0
    2.3611   -7.9942    3.0231 H   0  0  0  0  0  0  0  0  0  0  0  0
    4.6783   -8.2723    4.3944 H   0  0  0  0  0  0  0  0  0  0  0  0
    4.3834  -10.2618    5.5980 H   0  0  0  0  0  0  0  0  0  0  0  0
    3.2137  -12.0516    4.0903 H   0  0  0  0  0  0  0  0  0  0  0  0
    2.2254  -11.3660    5.3955 H   0  0  0  0  0  0  0  0  0  0  0  0
    1.0302  -11.4589    3.0633 H   0  0  0  0  0  0  0  0  0  0  0  0
    1.0338   -9.8903    3.8812 H   0  0  0  0  0  0  0  0  0  0  0  0
    1.6217   -9.6174    1.4800 H   0  0  0  0  0  0  0  0  0  0  0  0
    3.0079  -10.6416    1.6967 H   0  0  0  0  0  0  0  0  0  0  0  0
  1  2  2  0
  2  7  1  0
  2  3  1  0
  4  3  1  6
  4 16  1  0
  4  5  1  0
  4 12  1  0
  5  6  2  0
  5 23  1  0
  6  7  1  0
  6 24  1  0
  7  8  1  0
  8  9  1  0
  8 25  1  0
  8 26  1  0
  9 10  1  0
  9 27  1  0
  9 28  1  0
 10 11  1  0
 10 29  1  0
 10 30  1  0
 11 31  1  0
 12 13  1  0
 12 32  1  0
 12 33  1  0
 13 14  2  0
 13 34  1  0
 14 15  1  0
 14 35  1  0
 15 16  1  0
 15 36  1  0
 15 37  1  0
 16 17  1  0
 16 38  1  6
 17 22  1  0
 17 18  1  0
 17 39  1  1
 18 19  2  0
 18 40  1  0
 19 20  1  0
 19 41  1  0
 20 21  1  0
 20 42  1  0
 20 43  1  0
 21 22  1  0
 21 44  1  0
 21 45  1  0
 22 46  1  0
 22 47  1  0
M  END
>  <i_m_ct_stereo_status>  (348) 
1

>  <s_m_source_file>  (348) 
/var/tmp/pbs.5076255.sched01/tmpu61_44ix/12937f0afz8.sdf

>  <i_m_source_file_index>  (348) 
18

>  <i_lp_mmshare_version>  (348) 
48012

>  <i_f3d_flags>  (348) 
0

>  <s_epik_input>  (348) 
W09IXVtDSDJdW0NIMl1bQ0gyXU4oW0NIXT1bQ0hdMSlDKD1PKU9bQ0BAXTEyW0NIMl1bQ0hdPVtDSF1bQ0gyXVtDQEhdMltDQEBIXTNbQ0hdPVtDSF1bQ0gyXVtDSDJdW0NIMl0z

>  <s_epik_cmdline>  (348) 
J2VwaWtfcHl0aG9uJywgJy1waHQnLCAnMi4wJywgJy1waCcsICc3LjAnLCAnLXRuJywgJzgnLCAnLW1hJywgJzIwMCcsICctaW1hZScsICc8aW5maWxlLm1hZT4nLCAnLW9tYWUnLCAnPG91dGZpbGUubWFlPic=

>  <r_lp_tautomer_probability>  (348) 
1

>  <r_epik_Ionization_Penalty>  (348) 
1.87331e-07

>  <r_epik_Ionization_Penalty_Charging>  (348) 
0

>  <r_epik_Ionization_Penalty_Neutral>  (348) 
1.87331e-07

>  <r_epik_State_Penalty>  (348) 
-0

>  <r_epik_Charging_Adjusted_Penalty>  (348) 
0

>  <i_epik_Tot_Q>  (348) 
0

>  <i_epik_Tot_abs_Q>  (348) 
0

>  <s_epik_Chemistry_Notes>  (348) 
This compound has an ester and may undergo hydrolysis at high or low pH.

>  <s_lp_Force_Field>  (348) 
OPLS3e

>  <r_lp_Energy>  (348) 
23.3936

>  <b_lp_Chiralities_Consistent>  (348) 
1

>  <s_lp_Variant>  (348) 
102:0-1

>  <s_i_glide_gridfile>  (348) 
pfpi4k_grid

>  <i_i_glide_lignum>  (348) 
18

>  <i_i_glide_rotatable_bonds>  (348) 
5

>  <r_i_docking_score>  (348) 
-2.63621

>  <r_i_glide_ligand_efficiency>  (348) 
-0.119828

>  <r_i_glide_ligand_efficiency_sa>  (348) 
-0.335762

>  <r_i_glide_ligand_efficiency_ln>  (348) 
-0.644385

>  <r_i_glide_gscore>  (348) 
-2.63621

>  <r_i_glide_lipo>  (348) 
-0.229849

>  <r_i_glide_hbond>  (348) 
-0.0233816

>  <r_i_glide_metal>  (348) 
-0

>  <r_i_glide_rewards>  (348) 
-1.42538

>  <r_i_glide_evdw>  (348) 
-21.9305

>  <r_i_glide_ecoul>  (348) 
-4.41201

>  <r_i_glide_erotb>  (348) 
0.800727

>  <r_i_glide_esite>  (348) 
0

>  <r_i_glide_emodel>  (348) 
-28.1215

>  <r_i_glide_energy>  (348) 
-26.3425

>  <r_i_glide_einternal>  (348) 
1.71016

>  <r_i_glide_intrahb_reward>  (348) 
-0

>  <i_i_glide_confnum>  (348) 
4

>  <i_i_glide_posenum>  (348) 
24

>  <r_i_glide_eff_state_penalty>  (348) 
0

>  <ligand_id>  (348) 
102

>  <original_smiles>  (348) 
O=C1OC2(C=CN1CCCO)CC=CCC2C1C=CCCC1

>  <smiles>  (348) 
[H]OC([H])([H])C([H])([H])C([H])([H])N1C(=O)OC2(C([H])=C1[H])C([H])([H])C([H])=C([H])C([H])([H])C2([H])C1([H])C([H])=C([H])C([H])([H])C([H])([H])C1([H])[H]

$$$$
103:0:0
     RDKit          3D

 74 80  0  0  1  0  0  0  0  0999 V2000
    7.3982   -9.6265    4.2122 C   0  0  0  0  0  0  0  0  0  0  0  0
    6.1876   -8.7299    3.9640 C   0  0  0  0  0  0  0  0  0  0  0  0
    5.1010   -9.0874    3.2765 C   0  0  0  0  0  0  0  0  0  0  0  0
    3.9720   -8.0420    3.3506 C   0  0  2  0  0  0  0  0  0  0  0  0
    4.7599   -6.9921    4.0522 C   0  0  0  0  0  0  0  0  0  0  0  0
    6.0225   -7.3688    4.4161 C   0  0  0  0  0  0  0  0  0  0  0  0
    4.0065   -5.6813    4.0841 C   0  0  2  0  0  0  0  0  0  0  0  0
    4.7752   -4.4444    4.6158 C   0  0  0  0  0  0  0  0  0  0  0  0
    2.6625   -6.0173    5.0876 C   0  0  1  0  0  0  0  0  0  0  0  0
    2.7523   -5.1078    6.3621 C   0  0  0  0  0  0  0  0  0  0  0  0
    1.1079   -5.6556    4.6305 C   0  0  1  0  0  0  0  0  0  0  0  0
    0.8848   -4.3309    4.1968 O   0  0  0  0  0  0  0  0  0  0  0  0
    0.7832   -6.7120    3.5826 C   0  0  2  0  0  0  0  0  0  0  0  0
   -0.3521   -6.8970    2.7979 O   0  0  0  0  0  0  0  0  0  0  0  0
   -0.1346   -8.2096    2.1455 C   0  0  1  0  0  0  0  0  0  0  0  0
    1.2219   -8.5984    2.2646 O   0  0  0  0  0  0  0  0  0  0  0  0
    1.3953   -8.7597    3.6601 C   0  0  1  0  0  0  0  0  0  0  0  0
    0.7379   -7.8037    4.3104 O   0  0  0  0  0  0  0  0  0  0  0  0
    0.4663   -9.9293    3.8217 C   0  0  1  0  0  0  0  0  0  0  0  0
    0.2200  -10.3154    5.1552 O   0  0  0  0  0  0  0  0  0  0  0  0
   -0.7467   -9.3864    2.9624 C   0  0  1  0  0  0  0  0  0  0  0  0
   -1.9072   -9.0111    3.6829 O   0  0  0  0  0  0  0  0  0  0  0  0
    2.8370   -8.5582    4.3416 C   0  0  2  0  0  0  0  0  0  0  0  0
    2.7476   -7.5574    5.6394 C   0  0  0  0  0  0  0  0  0  0  0  0
    3.9890   -7.8221    6.5932 C   0  0  0  0  0  0  0  0  0  0  0  0
    1.6812   -7.9518    6.7343 C   0  0  0  0  0  0  0  0  0  0  0  0
    3.9720   -5.6334    2.4545 C   0  0  2  0  0  0  0  0  0  0  0  0
    2.8277   -4.7009    1.9376 C   0  0  0  0  0  0  0  0  0  0  0  0
    2.0243   -5.1315    1.0672 O   0  0  0  0  0  0  0  0  0  0  0  0
    2.7958   -3.5397    2.4274 O   0  0  0  0  0  0  0  0  0  0  0  0
    3.7734   -7.1711    2.0278 C   0  0  1  0  0  0  0  0  0  0  0  0
    4.6776   -7.4651    0.8364 C   0  0  0  0  0  0  0  0  0  0  0  0
    5.0982   -6.1079    0.3138 C   0  0  0  0  0  0  0  0  0  0  0  0
    5.2774   -5.1981    1.5277 C   0  0  1  0  0  0  0  0  0  0  0  0
    5.3589   -3.7307    0.9938 C   0  0  0  0  0  0  0  0  0  0  0  0
    6.7170   -5.5100    2.0701 C   0  0  0  0  0  0  0  0  0  0  0  0
    7.7853   -5.2423    1.1809 O   0  0  0  0  0  0  0  0  0  0  0  0
    7.9251   -9.3112    5.1015 H   0  0  0  0  0  0  0  0  0  0  0  0
    8.0895   -9.5949    3.3758 H   0  0  0  0  0  0  0  0  0  0  0  0
    7.0972  -10.6631    4.3597 H   0  0  0  0  0  0  0  0  0  0  0  0
    4.9268  -10.0701    2.8500 H   0  0  0  0  0  0  0  0  0  0  0  0
    6.7589   -6.7727    4.8932 H   0  0  0  0  0  0  0  0  0  0  0  0
    4.1024   -3.6242    4.8211 H   0  0  0  0  0  0  0  0  0  0  0  0
    5.4046   -3.9659    3.8915 H   0  0  0  0  0  0  0  0  0  0  0  0
    5.3724   -4.6602    5.4951 H   0  0  0  0  0  0  0  0  0  0  0  0
    1.9916   -5.3649    7.0979 H   0  0  0  0  0  0  0  0  0  0  0  0
    2.5854   -4.0484    6.1592 H   0  0  0  0  0  0  0  0  0  0  0  0
    3.7037   -5.1815    6.8886 H   0  0  0  0  0  0  0  0  0  0  0  0
    0.4128   -5.7908    5.4626 H   0  0  0  0  0  0  0  0  0  0  0  0
    1.1871   -3.7335    4.8434 H   0  0  0  0  0  0  0  0  0  0  0  0
    1.5873   -6.5938    2.9342 H   0  0  0  0  0  0  0  0  0  0  0  0
   -0.4986   -8.1842    1.1222 H   0  0  0  0  0  0  0  0  0  0  0  0
    0.8966  -10.7781    3.2960 H   0  0  0  0  0  0  0  0  0  0  0  0
   -0.6639  -10.6511    5.2077 H   0  0  0  0  0  0  0  0  0  0  0  0
   -1.0544  -10.1751    2.2812 H   0  0  0  0  0  0  0  0  0  0  0  0
   -2.1520   -9.7330    4.2631 H   0  0  0  0  0  0  0  0  0  0  0  0
    3.1160   -9.5528    4.7081 H   0  0  0  0  0  0  0  0  0  0  0  0
    4.5043   -8.7324    6.2952 H   0  0  0  0  0  0  0  0  0  0  0  0
    3.8018   -7.9400    7.6611 H   0  0  0  0  0  0  0  0  0  0  0  0
    4.7198   -7.0178    6.5774 H   0  0  0  0  0  0  0  0  0  0  0  0
    1.6997   -9.0339    6.8913 H   0  0  0  0  0  0  0  0  0  0  0  0
    0.6459   -7.6859    6.5284 H   0  0  0  0  0  0  0  0  0  0  0  0
    1.8466   -7.4796    7.7067 H   0  0  0  0  0  0  0  0  0  0  0  0
    2.8277   -7.3005    1.5325 H   0  0  0  0  0  0  0  0  0  0  0  0
    5.5648   -8.0497    1.0616 H   0  0  0  0  0  0  0  0  0  0  0  0
    4.1216   -8.0311    0.0938 H   0  0  0  0  0  0  0  0  0  0  0  0
    6.0090   -6.1930   -0.2601 H   0  0  0  0  0  0  0  0  0  0  0  0
    4.3086   -5.7207   -0.3301 H   0  0  0  0  0  0  0  0  0  0  0  0
    6.2155   -3.5614    0.3435 H   0  0  0  0  0  0  0  0  0  0  0  0
    5.4251   -3.0028    1.7974 H   0  0  0  0  0  0  0  0  0  0  0  0
    4.5200   -3.4682    0.3494 H   0  0  0  0  0  0  0  0  0  0  0  0
    6.9778   -4.9764    2.9687 H   0  0  0  0  0  0  0  0  0  0  0  0
    6.8844   -6.5708    2.1692 H   0  0  0  0  0  0  0  0  0  0  0  0
    8.5732   -5.3838    1.6698 H   0  0  0  0  0  0  0  0  0  0  0  0
  1  2  1  0
  1 38  1  0
  1 39  1  0
  1 40  1  0
  2  6  1  0
  2  3  2  0
  4  3  1  6
  3 41  1  0
  4 23  1  0
  4 31  1  0
  4  5  1  0
  5  6  2  0
  5  7  1  0
  6 42  1  0
  7  8  1  1
  7  9  1  0
  7 27  1  0
  8 43  1  0
  8 44  1  0
  8 45  1  0
  9 24  1  0
  9 10  1  1
  9 11  1  0
 10 46  1  0
 10 47  1  0
 10 48  1  0
 11 12  1  0
 11 13  1  0
 11 49  1  1
 12 50  1  0
 13 18  1  0
 13 14  1  0
 13 51  1  6
 14 15  1  0
 15 21  1  0
 15 16  1  0
 15 52  1  6
 17 16  1  6
 17 18  1  0
 17 19  1  0
 17 23  1  0
 19 20  1  0
 19 21  1  0
 19 53  1  6
 20 54  1  0
 21 22  1  0
 21 55  1  6
 22 56  1  0
 23 24  1  0
 23 57  1  1
 24 25  1  0
 24 26  1  0
 25 58  1  0
 25 59  1  0
 25 60  1  0
 26 61  1  0
 26 62  1  0
 26 63  1  0
 27 34  1  0
 27 28  1  1
 27 31  1  0
 28 29  2  0
 28 30  1  0
 31 32  1  0
 31 64  1  6
 32 33  1  0
 32 65  1  0
 32 66  1  0
 33 34  1  0
 33 67  1  0
 33 68  1  0
 34 35  1  6
 34 36  1  0
 35 69  1  0
 35 70  1  0
 35 71  1  0
 36 37  1  0
 36 72  1  0
 36 73  1  0
 37 74  1  0
M  CHG  1  30  -1
M  END
>  <i_m_ct_stereo_status>  (349) 
1

>  <s_m_source_file>  (349) 
/var/tmp/pbs.5076255.sched01/tmpu61_44ix/12937f0afz8.sdf

>  <i_m_source_file_index>  (349) 
19

>  <i_lp_mmshare_version>  (349) 
48012

>  <i_f3d_flags>  (349) 
0

>  <s_epik_input>  (349) 
W09IXVtDSDJdW0NAQF0xKFtDSDNdKVtDSDJdW0NIMl1bQ0BASF0yW0NAQF0xKEMoPU8pW09IXSlbQ0BdKFtDSDNdKShDKFtDQEBdMjM0KT1bQ0hdQyhbQ0gzXSk9W0NIXTMpW0NAQF01KFtDSDNdKVtDQEBIXShbT0hdKVtDQEBIXTZPW0NASF03T1tDQEBdKE82KShbQ0BASF0oW09IXSlbQ0BIXTdbT0hdKVtDQEBIXTRDNShbQ0gzXSlbQ0gzXQ==

>  <s_epik_cmdline>  (349) 
J2VwaWtfcHl0aG9uJywgJy1waHQnLCAnMi4wJywgJy1waCcsICc3LjAnLCAnLXRuJywgJzgnLCAnLW1hJywgJzIwMCcsICctaW1hZScsICc8aW5maWxlLm1hZT4nLCAnLW9tYWUnLCAnPG91dGZpbGUubWFlPic=

>  <r_epik_Ionization_Penalty>  (349) 
0.00218921

>  <r_epik_Ionization_Penalty_Charging>  (349) 
0.00217681

>  <r_epik_Ionization_Penalty_Neutral>  (349) 
1.2402e-05

>  <r_epik_State_Penalty>  (349) 
0.00149552

>  <r_epik_Charging_Adjusted_Penalty>  (349) 
0.00367233

>  <i_epik_Tot_Q>  (349) 
-1

>  <i_epik_Tot_abs_Q>  (349) 
1

>  <s_epik_Chemistry_Notes>  (349) 
This compound contains an acetal/aminal-like group ( X-CH(R)-Y where X, Y are N, S, or O) that may be acid/base labile, releasing an aldehyde.

>  <s_lp_Force_Field>  (349) 
OPLS3e

>  <r_lp_Energy>  (349) 
242.064

>  <b_lp_Chiralities_Consistent>  (349) 
1

>  <s_lp_Variant>  (349) 
103:0-1

>  <s_i_glide_gridfile>  (349) 
pfpi4k_grid

>  <i_i_glide_lignum>  (349) 
19

>  <i_i_glide_rotatable_bonds>  (349) 
6

>  <r_i_docking_score>  (349) 
-3.02045

>  <r_i_glide_ligand_efficiency>  (349) 
-0.0816337

>  <r_i_glide_ligand_efficiency_sa>  (349) 
-0.272022

>  <r_i_glide_ligand_efficiency_ln>  (349) 
-0.655064

>  <r_i_glide_gscore>  (349) 
-3.02045

>  <r_i_glide_lipo>  (349) 
-0.399037

>  <r_i_glide_hbond>  (349) 
-0.194962

>  <r_i_glide_metal>  (349) 
-0

>  <r_i_glide_rewards>  (349) 
0

>  <r_i_glide_evdw>  (349) 
-17.2069

>  <r_i_glide_ecoul>  (349) 
-10.2364

>  <r_i_glide_erotb>  (349) 
0.0766449

>  <r_i_glide_esite>  (349) 
-0.107294

>  <r_i_glide_emodel>  (349) 
-33.072

>  <r_i_glide_energy>  (349) 
-27.4433

>  <r_i_glide_einternal>  (349) 
3.1445

>  <r_i_glide_intrahb_reward>  (349) 
-0

>  <i_i_glide_confnum>  (349) 
3

>  <i_i_glide_posenum>  (349) 
31

>  <r_i_glide_eff_state_penalty>  (349) 
0

>  <ligand_id>  (349) 
103

>  <original_smiles>  (349) 
CC1=CC23C(=C1)C(C)(C1(C)C(O)C4OC5OC(O4)(C(O)C5O)C2C1(C)C)C1(C(=O)O)C3CCC1(C)CO

>  <smiles>  (349) 
[H]OC([H])([H])C1(C([H])([H])[H])C([H])([H])C([H])([H])C2([H])C34C([H])=C(C([H])([H])[H])C([H])=C3C(C([H])([H])[H])(C21C(=O)[O-])C1(C([H])([H])[H])C([H])(O[H])C2([H])OC3([H])OC(O2)(C([H])(O[H])C3([H])O[H])C4([H])C1(C([H])([H])[H])C([H])([H])[H]

$$$$
103:0:1
     RDKit          3D

 74 80  0  0  1  0  0  0  0  0999 V2000
    2.8914   -2.0571    9.4324 C   0  0  0  0  0  0  0  0  0  0  0  0
    2.8093   -0.6778    8.8184 C   0  0  0  0  0  0  0  0  0  0  0  0
    2.6854   -0.4212    7.5083 C   0  0  0  0  0  0  0  0  0  0  0  0
    2.4704    1.0555    7.1994 C   0  0  2  0  0  0  0  0  0  0  0  0
    2.6415    1.5623    8.6051 C   0  0  0  0  0  0  0  0  0  0  0  0
    2.8225    0.5878    9.5082 C   0  0  0  0  0  0  0  0  0  0  0  0
    2.6531    3.0827    8.6143 C   0  0  2  0  0  0  0  0  0  0  0  0
    3.0093    3.7360    9.9830 C   0  0  0  0  0  0  0  0  0  0  0  0
    1.0756    3.5464    8.1467 C   0  0  1  0  0  0  0  0  0  0  0  0
    0.3764    4.2971    9.3311 C   0  0  0  0  0  0  0  0  0  0  0  0
    0.8214    4.6498    6.9345 C   0  0  1  0  0  0  0  0  0  0  0  0
    1.4662    5.9085    7.0576 O   0  0  0  0  0  0  0  0  0  0  0  0
    1.1522    3.9144    5.6500 C   0  0  2  0  0  0  0  0  0  0  0  0
    1.1327    4.3011    4.3152 O   0  0  0  0  0  0  0  0  0  0  0  0
    1.3272    3.0640    3.5400 C   0  0  1  0  0  0  0  0  0  0  0  0
    1.7800    2.0125    4.3996 O   0  0  0  0  0  0  0  0  0  0  0  0
    0.6904    1.8302    5.2916 C   0  0  1  0  0  0  0  0  0  0  0  0
    0.1798    3.0168    5.6138 O   0  0  0  0  0  0  0  0  0  0  0  0
   -0.2833    1.3098    4.2368 C   0  0  1  0  0  0  0  0  0  0  0  0
   -1.6250    1.1091    4.6487 O   0  0  0  0  0  0  0  0  0  0  0  0
   -0.0271    2.3764    3.1175 C   0  0  1  0  0  0  0  0  0  0  0  0
   -1.0757    3.2965    2.8904 O   0  0  0  0  0  0  0  0  0  0  0  0
    0.9383    1.2718    6.7750 C   0  0  2  0  0  0  0  0  0  0  0  0
    0.1619    2.1919    7.9004 C   0  0  0  0  0  0  0  0  0  0  0  0
   -0.0842    1.3384    9.2113 C   0  0  0  0  0  0  0  0  0  0  0  0
   -1.3768    2.4600    7.6209 C   0  0  0  0  0  0  0  0  0  0  0  0
    3.9737    3.0916    7.6561 C   0  0  2  0  0  0  0  0  0  0  0  0
    4.1400    4.4638    6.9540 C   0  0  0  0  0  0  0  0  0  0  0  0
    4.4696    4.4732    5.7380 O   0  0  0  0  0  0  0  0  0  0  0  0
    3.9746    5.4795    7.6531 O   0  0  0  0  0  0  0  0  0  0  0  0
    3.7042    1.8895    6.6378 C   0  0  1  0  0  0  0  0  0  0  0  0
    5.0198    1.1318    6.4166 C   0  0  0  0  0  0  0  0  0  0  0  0
    6.1085    2.0203    6.9882 C   0  0  0  0  0  0  0  0  0  0  0  0
    5.4914    2.7361    8.2137 C   0  0  1  0  0  0  0  0  0  0  0  0
    6.4269    3.9567    8.5404 C   0  0  0  0  0  0  0  0  0  0  0  0
    5.6605    1.7624    9.4523 C   0  0  0  0  0  0  0  0  0  0  0  0
    7.0006    1.4775    9.8194 O   0  0  0  0  0  0  0  0  0  0  0  0
    2.5361   -2.0399   10.4580 H   0  0  0  0  0  0  0  0  0  0  0  0
    3.9157   -2.4196    9.4346 H   0  0  0  0  0  0  0  0  0  0  0  0
    2.2854   -2.7771    8.8843 H   0  0  0  0  0  0  0  0  0  0  0  0
    2.6271   -1.1712    6.7245 H   0  0  0  0  0  0  0  0  0  0  0  0
    2.9780    0.7187   10.5663 H   0  0  0  0  0  0  0  0  0  0  0  0
    2.7735    4.7933    9.9808 H   0  0  0  0  0  0  0  0  0  0  0  0
    4.0586    3.7808   10.1995 H   0  0  0  0  0  0  0  0  0  0  0  0
    2.5130    3.2646   10.8314 H   0  0  0  0  0  0  0  0  0  0  0  0
   -0.6706    4.5059    9.1245 H   0  0  0  0  0  0  0  0  0  0  0  0
    0.8144    5.2796    9.5213 H   0  0  0  0  0  0  0  0  0  0  0  0
    0.3941    3.7534   10.2747 H   0  0  0  0  0  0  0  0  0  0  0  0
   -0.2381    4.9130    6.8796 H   0  0  0  0  0  0  0  0  0  0  0  0
    2.4126    5.7771    7.1383 H   0  0  0  0  0  0  0  0  0  0  0  0
    2.1408    3.6010    5.8302 H   0  0  0  0  0  0  0  0  0  0  0  0
    2.0137    3.2341    2.7090 H   0  0  0  0  0  0  0  0  0  0  0  0
    0.1038    0.3514    3.8861 H   0  0  0  0  0  0  0  0  0  0  0  0
   -2.1424    1.0077    3.8554 H   0  0  0  0  0  0  0  0  0  0  0  0
    0.1423    1.8707    2.1673 H   0  0  0  0  0  0  0  0  0  0  0  0
   -0.7500    3.8480    2.1884 H   0  0  0  0  0  0  0  0  0  0  0  0
    0.4336    0.3005    6.7671 H   0  0  0  0  0  0  0  0  0  0  0  0
    0.1074    0.2837    9.0209 H   0  0  0  0  0  0  0  0  0  0  0  0
   -1.0755    1.3745    9.6633 H   0  0  0  0  0  0  0  0  0  0  0  0
    0.5504    1.6366   10.0393 H   0  0  0  0  0  0  0  0  0  0  0  0
   -1.8563    1.5404    7.2779 H   0  0  0  0  0  0  0  0  0  0  0  0
   -1.6222    3.2349    6.8957 H   0  0  0  0  0  0  0  0  0  0  0  0
   -1.9260    2.7982    8.5039 H   0  0  0  0  0  0  0  0  0  0  0  0
    3.5926    2.2717    5.6397 H   0  0  0  0  0  0  0  0  0  0  0  0
    5.0660    0.1663    6.9078 H   0  0  0  0  0  0  0  0  0  0  0  0
    5.1880    0.9566    5.3508 H   0  0  0  0  0  0  0  0  0  0  0  0
    7.0120    1.4523    7.2078 H   0  0  0  0  0  0  0  0  0  0  0  0
    6.3744    2.7536    6.2268 H   0  0  0  0  0  0  0  0  0  0  0  0
    7.4315    3.6457    8.8189 H   0  0  0  0  0  0  0  0  0  0  0  0
    6.0395    4.5633    9.3575 H   0  0  0  0  0  0  0  0  0  0  0  0
    6.6104    4.6094    7.6867 H   0  0  0  0  0  0  0  0  0  0  0  0
    5.2190    2.1405   10.3765 H   0  0  0  0  0  0  0  0  0  0  0  0
    5.2612    0.7785    9.2079 H   0  0  0  0  0  0  0  0  0  0  0  0
    7.3668    0.9454    9.1259 H   0  0  0  0  0  0  0  0  0  0  0  0
  1  2  1  0
  1 38  1  0
  1 39  1  0
  1 40  1  0
  2  6  1  0
  2  3  2  0
  4  3  1  1
  3 41  1  0
  4 23  1  0
  4 31  1  0
  4  5  1  0
  5  6  2  0
  5  7  1  0
  6 42  1  0
  7  8  1  1
  7  9  1  0
  7 27  1  0
  8 43  1  0
  8 44  1  0
  8 45  1  0
  9 24  1  0
  9 10  1  1
  9 11  1  0
 10 46  1  0
 10 47  1  0
 10 48  1  0
 11 12  1  0
 11 13  1  0
 11 49  1  6
 12 50  1  0
 13 18  1  0
 13 14  1  0
 13 51  1  1
 14 15  1  0
 15 21  1  0
 15 16  1  0
 15 52  1  6
 17 16  1  6
 17 18  1  0
 17 19  1  0
 17 23  1  0
 19 20  1  0
 19 21  1  0
 19 53  1  6
 20 54  1  0
 21 22  1  0
 21 55  1  6
 22 56  1  0
 23 24  1  0
 23 57  1  6
 24 25  1  0
 24 26  1  0
 25 58  1  0
 25 59  1  0
 25 60  1  0
 26 61  1  0
 26 62  1  0
 26 63  1  0
 27 34  1  0
 27 28  1  6
 27 31  1  0
 28 29  2  0
 28 30  1  0
 31 32  1  0
 31 64  1  6
 32 33  1  0
 32 65  1  0
 32 66  1  0
 33 34  1  0
 33 67  1  0
 33 68  1  0
 34 35  1  1
 34 36  1  0
 35 69  1  0
 35 70  1  0
 35 71  1  0
 36 37  1  0
 36 72  1  0
 36 73  1  0
 37 74  1  0
M  CHG  1  30  -1
M  END
>  <i_m_ct_stereo_status>  (350) 
1

>  <s_m_source_file>  (350) 
/var/tmp/pbs.5076255.sched01/tmpu61_44ix/12937f0afz8.sdf

>  <i_m_source_file_index>  (350) 
19

>  <i_lp_mmshare_version>  (350) 
48012

>  <i_f3d_flags>  (350) 
0

>  <s_epik_input>  (350) 
W09IXVtDSDJdW0NAQF0xKFtDSDNdKVtDSDJdW0NIMl1bQ0BASF0yW0NAQF0xKEMoPU8pW09IXSlbQ0BdKFtDSDNdKShDKFtDQEBdMjM0KT1bQ0hdQyhbQ0gzXSk9W0NIXTMpW0NAQF01KFtDSDNdKVtDQEBIXShbT0hdKVtDQEBIXTZPW0NASF03T1tDQEBdKE82KShbQ0BASF0oW09IXSlbQ0BIXTdbT0hdKVtDQEBIXTRDNShbQ0gzXSlbQ0gzXQ==

>  <s_epik_cmdline>  (350) 
J2VwaWtfcHl0aG9uJywgJy1waHQnLCAnMi4wJywgJy1waCcsICc3LjAnLCAnLXRuJywgJzgnLCAnLW1hJywgJzIwMCcsICctaW1hZScsICc8aW5maWxlLm1hZT4nLCAnLW9tYWUnLCAnPG91dGZpbGUubWFlPic=

>  <r_epik_Ionization_Penalty>  (350) 
0.00218921

>  <r_epik_Ionization_Penalty_Charging>  (350) 
0.00217681

>  <r_epik_Ionization_Penalty_Neutral>  (350) 
1.2402e-05

>  <r_epik_State_Penalty>  (350) 
0.00149552

>  <r_epik_Charging_Adjusted_Penalty>  (350) 
0.00367233

>  <i_epik_Tot_Q>  (350) 
-1

>  <i_epik_Tot_abs_Q>  (350) 
1

>  <s_epik_Chemistry_Notes>  (350) 
This compound contains an acetal/aminal-like group ( X-CH(R)-Y where X, Y are N, S, or O) that may be acid/base labile, releasing an aldehyde.

>  <s_lp_Force_Field>  (350) 
OPLS3e

>  <r_lp_Energy>  (350) 
242.064

>  <b_lp_Chiralities_Consistent>  (350) 
1

>  <s_lp_Variant>  (350) 
103:0-1

>  <s_i_glide_gridfile>  (350) 
pfpi4k_grid

>  <i_i_glide_lignum>  (350) 
19

>  <i_i_glide_rotatable_bonds>  (350) 
6

>  <r_i_docking_score>  (350) 
-2.46902

>  <r_i_glide_ligand_efficiency>  (350) 
-0.0667302

>  <r_i_glide_ligand_efficiency_sa>  (350) 
-0.22236

>  <r_i_glide_ligand_efficiency_ln>  (350) 
-0.535472

>  <r_i_glide_gscore>  (350) 
-2.46902

>  <r_i_glide_lipo>  (350) 
-0.0231448

>  <r_i_glide_hbond>  (350) 
-0.0511813

>  <r_i_glide_metal>  (350) 
-0

>  <r_i_glide_rewards>  (350) 
-0.50002

>  <r_i_glide_evdw>  (350) 
-12.8023

>  <r_i_glide_ecoul>  (350) 
-8.50625

>  <r_i_glide_erotb>  (350) 
0.0766449

>  <r_i_glide_esite>  (350) 
-0.0552649

>  <r_i_glide_emodel>  (350) 
-31.686

>  <r_i_glide_energy>  (350) 
-21.3085

>  <r_i_glide_einternal>  (350) 
0.775965

>  <r_i_glide_intrahb_reward>  (350) 
-0.5

>  <i_i_glide_confnum>  (350) 
4

>  <i_i_glide_posenum>  (350) 
27

>  <r_i_glide_eff_state_penalty>  (350) 
0

>  <ligand_id>  (350) 
103

>  <original_smiles>  (350) 
CC1=CC23C(=C1)C(C)(C1(C)C(O)C4OC5OC(O4)(C(O)C5O)C2C1(C)C)C1(C(=O)O)C3CCC1(C)CO

>  <smiles>  (350) 
[H]OC([H])([H])C1(C([H])([H])[H])C([H])([H])C([H])([H])C2([H])C34C([H])=C(C([H])([H])[H])C([H])=C3C(C([H])([H])[H])(C21C(=O)[O-])C1(C([H])([H])[H])C([H])(O[H])C2([H])OC3([H])OC(O2)(C([H])(O[H])C3([H])O[H])C4([H])C1(C([H])([H])[H])C([H])([H])[H]

$$$$
103:0:2
     RDKit          3D

 74 80  0  0  1  0  0  0  0  0999 V2000
   -1.1659   -3.8620    7.2824 C   0  0  0  0  0  0  0  0  0  0  0  0
   -0.2777   -2.7913    6.6819 C   0  0  0  0  0  0  0  0  0  0  0  0
   -0.5777   -2.0576    5.6172 C   0  0  0  0  0  0  0  0  0  0  0  0
    0.4421   -0.9483    5.3415 C   0  0  2  0  0  0  0  0  0  0  0  0
    1.4241   -1.3522    6.4053 C   0  0  0  0  0  0  0  0  0  0  0  0
    1.0260   -2.3734    7.1684 C   0  0  0  0  0  0  0  0  0  0  0  0
    2.7020   -0.5239    6.2672 C   0  0  2  0  0  0  0  0  0  0  0  0
    3.8712   -0.9618    7.1873 C   0  0  0  0  0  0  0  0  0  0  0  0
    2.2296    1.0793    6.6447 C   0  0  1  0  0  0  0  0  0  0  0  0
    2.9709    1.5374    7.9446 C   0  0  0  0  0  0  0  0  0  0  0  0
    2.6056    2.3603    5.6573 C   0  0  1  0  0  0  0  0  0  0  0  0
    3.9552    2.5602    5.3027 O   0  0  0  0  0  0  0  0  0  0  0  0
    1.6854    2.1923    4.4544 C   0  0  2  0  0  0  0  0  0  0  0  0
    1.5245    2.9560    3.3104 O   0  0  0  0  0  0  0  0  0  0  0  0
    0.3179    2.4134    2.6685 C   0  0  1  0  0  0  0  0  0  0  0  0
   -0.0558    1.1715    3.2596 O   0  0  0  0  0  0  0  0  0  0  0  0
   -0.3707    1.5331    4.5735 C   0  0  1  0  0  0  0  0  0  0  0  0
    0.5061    2.4322    5.0243 O   0  0  0  0  0  0  0  0  0  0  0  0
   -1.5932    2.3854    4.2263 C   0  0  1  0  0  0  0  0  0  0  0  0
   -2.1965    3.1116    5.2834 O   0  0  0  0  0  0  0  0  0  0  0  0
   -0.9960    3.2036    3.0487 C   0  0  1  0  0  0  0  0  0  0  0  0
   -0.7927    4.5948    3.2881 O   0  0  0  0  0  0  0  0  0  0  0  0
   -0.2062    0.4495    5.7629 C   0  0  2  0  0  0  0  0  0  0  0  0
    0.6254    1.1005    7.0385 C   0  0  0  0  0  0  0  0  0  0  0  0
    0.2708    0.2964    8.3631 C   0  0  0  0  0  0  0  0  0  0  0  0
    0.0744    2.4850    7.5840 C   0  0  0  0  0  0  0  0  0  0  0  0
    2.9419   -1.1184    4.7749 C   0  0  2  0  0  0  0  0  0  0  0  0
    3.9057   -0.2201    3.9595 C   0  0  0  0  0  0  0  0  0  0  0  0
    3.6262    0.0193    2.7631 O   0  0  0  0  0  0  0  0  0  0  0  0
    4.9376    0.1805    4.5389 O   0  0  0  0  0  0  0  0  0  0  0  0
    1.4743   -1.1896    4.1441 C   0  0  1  0  0  0  0  0  0  0  0  0
    1.3401   -2.4834    3.3566 C   0  0  0  0  0  0  0  0  0  0  0  0
    2.7514   -3.0242    3.1934 C   0  0  0  0  0  0  0  0  0  0  0  0
    3.5054   -2.6496    4.4820 C   0  0  1  0  0  0  0  0  0  0  0  0
    5.0361   -2.7884    4.1746 C   0  0  0  0  0  0  0  0  0  0  0  0
    3.1969   -3.7962    5.5278 C   0  0  0  0  0  0  0  0  0  0  0  0
    3.6592   -5.0742    5.1316 O   0  0  0  0  0  0  0  0  0  0  0  0
   -0.9481   -3.9970    8.3452 H   0  0  0  0  0  0  0  0  0  0  0  0
   -1.0136   -4.8206    6.7856 H   0  0  0  0  0  0  0  0  0  0  0  0
   -2.2273   -3.6110    7.1884 H   0  0  0  0  0  0  0  0  0  0  0  0
   -1.4774   -2.1276    5.0331 H   0  0  0  0  0  0  0  0  0  0  0  0
    1.5802   -2.8325    7.9659 H   0  0  0  0  0  0  0  0  0  0  0  0
    4.6502   -0.2051    7.2188 H   0  0  0  0  0  0  0  0  0  0  0  0
    4.4430   -1.7965    6.8228 H   0  0  0  0  0  0  0  0  0  0  0  0
    3.5658   -1.1902    8.2167 H   0  0  0  0  0  0  0  0  0  0  0  0
    2.6102    2.5035    8.2975 H   0  0  0  0  0  0  0  0  0  0  0  0
    4.0364    1.6867    7.7856 H   0  0  0  0  0  0  0  0  0  0  0  0
    2.8574    0.8521    8.7809 H   0  0  0  0  0  0  0  0  0  0  0  0
    2.3150    3.2960    6.1335 H   0  0  0  0  0  0  0  0  0  0  0  0
    4.2999    1.7825    4.8615 H   0  0  0  0  0  0  0  0  0  0  0  0
    1.9335    1.2296    4.1171 H   0  0  0  0  0  0  0  0  0  0  0  0
    0.4852    2.2710    1.5963 H   0  0  0  0  0  0  0  0  0  0  0  0
   -2.3363    1.7065    3.8136 H   0  0  0  0  0  0  0  0  0  0  0  0
   -2.3790    2.4988    5.9594 H   0  0  0  0  0  0  0  0  0  0  0  0
   -1.6741    3.1478    2.2034 H   0  0  0  0  0  0  0  0  0  0  0  0
   -0.2395    4.8718    2.5761 H   0  0  0  0  0  0  0  0  0  0  0  0
   -1.2311    0.2806    6.0993 H   0  0  0  0  0  0  0  0  0  0  0  0
   -0.5859   -0.3418    8.1821 H   0  0  0  0  0  0  0  0  0  0  0  0
    0.0247    0.8721    9.2471 H   0  0  0  0  0  0  0  0  0  0  0  0
    1.0896   -0.3215    8.7029 H   0  0  0  0  0  0  0  0  0  0  0  0
   -1.0130    2.4569    7.6264 H   0  0  0  0  0  0  0  0  0  0  0  0
    0.3478    3.3741    7.0191 H   0  0  0  0  0  0  0  0  0  0  0  0
    0.4354    2.7275    8.5725 H   0  0  0  0  0  0  0  0  0  0  0  0
    1.3945   -0.5046    3.3181 H   0  0  0  0  0  0  0  0  0  0  0  0
    0.7251   -3.2578    3.8264 H   0  0  0  0  0  0  0  0  0  0  0  0
    0.9013   -2.2800    2.3714 H   0  0  0  0  0  0  0  0  0  0  0  0
    2.7405   -4.0842    2.9553 H   0  0  0  0  0  0  0  0  0  0  0  0
    3.1978   -2.5173    2.3387 H   0  0  0  0  0  0  0  0  0  0  0  0
    5.3218   -3.8080    3.9164 H   0  0  0  0  0  0  0  0  0  0  0  0
    5.6577   -2.4881    5.0159 H   0  0  0  0  0  0  0  0  0  0  0  0
    5.3648   -2.2281    3.2963 H   0  0  0  0  0  0  0  0  0  0  0  0
    3.6400   -3.6417    6.5017 H   0  0  0  0  0  0  0  0  0  0  0  0
    2.1260   -3.9551    5.5886 H   0  0  0  0  0  0  0  0  0  0  0  0
    3.1455   -5.3356    4.3919 H   0  0  0  0  0  0  0  0  0  0  0  0
  1  2  1  0
  1 38  1  0
  1 39  1  0
  1 40  1  0
  2  6  1  0
  2  3  2  0
  4  3  1  6
  3 41  1  0
  4 23  1  0
  4 31  1  0
  4  5  1  0
  5  6  2  0
  5  7  1  0
  6 42  1  0
  7  8  1  1
  7  9  1  0
  7 27  1  0
  8 43  1  0
  8 44  1  0
  8 45  1  0
  9 24  1  0
  9 10  1  1
  9 11  1  0
 10 46  1  0
 10 47  1  0
 10 48  1  0
 11 12  1  0
 11 13  1  0
 11 49  1  1
 12 50  1  0
 13 18  1  0
 13 14  1  0
 13 51  1  6
 14 15  1  0
 15 21  1  0
 15 16  1  0
 15 52  1  6
 17 16  1  6
 17 18  1  0
 17 19  1  0
 17 23  1  0
 19 20  1  0
 19 21  1  0
 19 53  1  6
 20 54  1  0
 21 22  1  0
 21 55  1  6
 22 56  1  0
 23 24  1  0
 23 57  1  1
 24 25  1  0
 24 26  1  0
 25 58  1  0
 25 59  1  0
 25 60  1  0
 26 61  1  0
 26 62  1  0
 26 63  1  0
 27 34  1  0
 27 28  1  6
 27 31  1  0
 28 29  2  0
 28 30  1  0
 31 32  1  0
 31 64  1  6
 32 33  1  0
 32 65  1  0
 32 66  1  0
 33 34  1  0
 33 67  1  0
 33 68  1  0
 34 35  1  6
 34 36  1  0
 35 69  1  0
 35 70  1  0
 35 71  1  0
 36 37  1  0
 36 72  1  0
 36 73  1  0
 37 74  1  0
M  CHG  1  30  -1
M  END
>  <i_m_ct_stereo_status>  (351) 
1

>  <s_m_source_file>  (351) 
/var/tmp/pbs.5076255.sched01/tmpu61_44ix/12937f0afz8.sdf

>  <i_m_source_file_index>  (351) 
19

>  <i_lp_mmshare_version>  (351) 
48012

>  <i_f3d_flags>  (351) 
0

>  <s_epik_input>  (351) 
W09IXVtDSDJdW0NAQF0xKFtDSDNdKVtDSDJdW0NIMl1bQ0BASF0yW0NAQF0xKEMoPU8pW09IXSlbQ0BdKFtDSDNdKShDKFtDQEBdMjM0KT1bQ0hdQyhbQ0gzXSk9W0NIXTMpW0NAQF01KFtDSDNdKVtDQEBIXShbT0hdKVtDQEBIXTZPW0NASF03T1tDQEBdKE82KShbQ0BASF0oW09IXSlbQ0BIXTdbT0hdKVtDQEBIXTRDNShbQ0gzXSlbQ0gzXQ==

>  <s_epik_cmdline>  (351) 
J2VwaWtfcHl0aG9uJywgJy1waHQnLCAnMi4wJywgJy1waCcsICc3LjAnLCAnLXRuJywgJzgnLCAnLW1hJywgJzIwMCcsICctaW1hZScsICc8aW5maWxlLm1hZT4nLCAnLW9tYWUnLCAnPG91dGZpbGUubWFlPic=

>  <r_epik_Ionization_Penalty>  (351) 
0.00218921

>  <r_epik_Ionization_Penalty_Charging>  (351) 
0.00217681

>  <r_epik_Ionization_Penalty_Neutral>  (351) 
1.2402e-05

>  <r_epik_State_Penalty>  (351) 
0.00149552

>  <r_epik_Charging_Adjusted_Penalty>  (351) 
0.00367233

>  <i_epik_Tot_Q>  (351) 
-1

>  <i_epik_Tot_abs_Q>  (351) 
1

>  <s_epik_Chemistry_Notes>  (351) 
This compound contains an acetal/aminal-like group ( X-CH(R)-Y where X, Y are N, S, or O) that may be acid/base labile, releasing an aldehyde.

>  <s_lp_Force_Field>  (351) 
OPLS3e

>  <r_lp_Energy>  (351) 
242.064

>  <b_lp_Chiralities_Consistent>  (351) 
1

>  <s_lp_Variant>  (351) 
103:0-1

>  <s_i_glide_gridfile>  (351) 
pfpi4k_grid

>  <i_i_glide_lignum>  (351) 
19

>  <i_i_glide_rotatable_bonds>  (351) 
6

>  <r_i_docking_score>  (351) 
-2.37382

>  <r_i_glide_ligand_efficiency>  (351) 
-0.0641573

>  <r_i_glide_ligand_efficiency_sa>  (351) 
-0.213786

>  <r_i_glide_ligand_efficiency_ln>  (351) 
-0.514826

>  <r_i_glide_gscore>  (351) 
-2.37382

>  <r_i_glide_lipo>  (351) 
-0.0962988

>  <r_i_glide_hbond>  (351) 
0

>  <r_i_glide_metal>  (351) 
-0

>  <r_i_glide_rewards>  (351) 
-0.509634

>  <r_i_glide_evdw>  (351) 
-19.6816

>  <r_i_glide_ecoul>  (351) 
-4.9325

>  <r_i_glide_erotb>  (351) 
0.0766449

>  <r_i_glide_esite>  (351) 
-0.120577

>  <r_i_glide_emodel>  (351) 
-34.4109

>  <r_i_glide_energy>  (351) 
-24.6141

>  <r_i_glide_einternal>  (351) 
0.829612

>  <r_i_glide_intrahb_reward>  (351) 
-0.5

>  <i_i_glide_confnum>  (351) 
1

>  <i_i_glide_posenum>  (351) 
2

>  <r_i_glide_eff_state_penalty>  (351) 
0

>  <ligand_id>  (351) 
103

>  <original_smiles>  (351) 
CC1=CC23C(=C1)C(C)(C1(C)C(O)C4OC5OC(O4)(C(O)C5O)C2C1(C)C)C1(C(=O)O)C3CCC1(C)CO

>  <smiles>  (351) 
[H]OC([H])([H])C1(C([H])([H])[H])C([H])([H])C([H])([H])C2([H])C34C([H])=C(C([H])([H])[H])C([H])=C3C(C([H])([H])[H])(C21C(=O)[O-])C1(C([H])([H])[H])C([H])(O[H])C2([H])OC3([H])OC(O2)(C([H])(O[H])C3([H])O[H])C4([H])C1(C([H])([H])[H])C([H])([H])[H]

$$$$
105:0:0
     RDKit          3D

 28 31  0  0  1  0  0  0  0  0999 V2000
    7.2207   -4.9355    1.6670 O   0  0  0  0  0  0  0  0  0  0  0  0
    6.1543   -4.7066    1.1062 C   0  0  0  0  0  0  0  0  0  0  0  0
    5.4324   -5.6018    0.3725 O   0  0  0  0  0  0  0  0  0  0  0  0
    4.2257   -5.0379   -0.1030 C   0  0  1  0  0  0  0  0  0  0  0  0
    3.0856   -5.7598    0.4603 N   0  0  0  0  0  0  0  0  0  0  0  0
    1.8143   -5.4666    0.1047 N   0  0  0  0  0  0  0  0  0  0  0  0
    1.0481   -6.2812    0.7628 N   0  0  0  0  0  0  0  0  0  0  0  0
    1.9030   -7.0689    1.4803 C   0  0  0  0  0  0  0  0  0  0  0  0
    1.4421   -8.1725    2.3483 C   0  0  0  0  0  0  0  0  0  0  0  0
    2.3437   -9.1162    2.9042 C   0  0  0  0  0  0  0  0  0  0  0  0
    1.9401  -10.1107    3.7251 N   0  0  0  0  0  0  0  0  0  0  0  0
    0.6169  -10.1730    3.9815 C   0  0  0  0  0  0  0  0  0  0  0  0
   -0.2914   -9.2468    3.4277 C   0  0  0  0  0  0  0  0  0  0  0  0
    0.1138   -8.2423    2.6175 N   0  0  0  0  0  0  0  0  0  0  0  0
    3.1872   -6.8024    1.3115 N   0  0  0  0  0  0  0  0  0  0  0  0
    4.2895   -3.6196    0.3687 C   0  0  0  0  0  0  0  0  0  0  0  0
    3.3762   -2.6610    0.1198 N   0  0  0  0  0  0  0  0  0  0  0  0
    3.6340   -1.4470    0.6642 C   0  0  0  0  0  0  0  0  0  0  0  0
    4.7876   -1.1611    1.4338 C   0  0  0  0  0  0  0  0  0  0  0  0
    5.7289   -2.1882    1.6586 C   0  0  0  0  0  0  0  0  0  0  0  0
    5.4400   -3.4390    1.0927 C   0  0  0  0  0  0  0  0  0  0  0  0
    4.2016   -5.0992   -1.1885 H   0  0  0  0  0  0  0  0  0  0  0  0
    3.4046   -9.0677    2.7031 H   0  0  0  0  0  0  0  0  0  0  0  0
    0.2853  -10.9595    4.6365 H   0  0  0  0  0  0  0  0  0  0  0  0
   -1.3451   -9.3106    3.6494 H   0  0  0  0  0  0  0  0  0  0  0  0
    2.8993   -0.6792    0.4936 H   0  0  0  0  0  0  0  0  0  0  0  0
    4.9375   -0.1758    1.8491 H   0  0  0  0  0  0  0  0  0  0  0  0
    6.6149   -2.0148    2.2487 H   0  0  0  0  0  0  0  0  0  0  0  0
  1  2  2  0
  2 21  1  0
  2  3  1  0
  3  4  1  0
  4  5  1  0
  4 16  1  0
  4 22  1  6
  5 15  1  0
  5  6  1  0
  6  7  2  0
  7  8  1  0
  8  9  1  0
  8 15  2  0
  9 14  1  0
  9 10  2  0
 10 11  1  0
 10 23  1  0
 11 12  2  0
 12 13  1  0
 12 24  1  0
 13 14  2  0
 13 25  1  0
 16 21  2  0
 16 17  1  0
 17 18  2  0
 18 19  1  0
 18 26  1  0
 19 20  2  0
 19 27  1  0
 20 21  1  0
 20 28  1  0
M  END
>  <i_m_ct_stereo_status>  (352) 
1

>  <s_m_source_file>  (352) 
/var/tmp/pbs.5076255.sched01/tmpu61_44ix/12937f0afz8.sdf

>  <i_m_source_file_index>  (352) 
21

>  <i_lp_mmshare_version>  (352) 
48012

>  <i_f3d_flags>  (352) 
0

>  <s_epik_input>  (352) 
bjFbY0hdW2NIXVtjSF1jKGMxMilDKD1PKU9bQ0BIXTJuM25uYyhuMyktYzRbY0hdbltjSF1bY0hdbjQ=

>  <s_epik_cmdline>  (352) 
J2VwaWtfcHl0aG9uJywgJy1waHQnLCAnMi4wJywgJy1waCcsICc3LjAnLCAnLXRuJywgJzgnLCAnLW1hJywgJzIwMCcsICctaW1hZScsICc8aW5maWxlLm1hZT4nLCAnLW9tYWUnLCAnPG91dGZpbGUubWFlPic=

>  <r_lp_tautomer_probability>  (352) 
1

>  <r_epik_Ionization_Penalty>  (352) 
0.000794411

>  <r_epik_Ionization_Penalty_Charging>  (352) 
0

>  <r_epik_Ionization_Penalty_Neutral>  (352) 
0.000794411

>  <r_epik_State_Penalty>  (352) 
0.000509873

>  <r_epik_Charging_Adjusted_Penalty>  (352) 
0.000509873

>  <i_epik_Tot_Q>  (352) 
0

>  <i_epik_Tot_abs_Q>  (352) 
0

>  <s_epik_Chemistry_Notes>  (352) 
This compound has an ester and may undergo hydrolysis at high or low pH. This compound contains an acetal/aminal-like group ( X-CH(R)-Y where X, Y are N, S, or O) that may be acid/base labile, releasing an aldehyde.

>  <s_lp_Force_Field>  (352) 
OPLS3e

>  <r_lp_Energy>  (352) 
23.1098

>  <b_lp_Chiralities_Consistent>  (352) 
1

>  <s_lp_Variant>  (352) 
105:0-1

>  <s_i_glide_gridfile>  (352) 
pfpi4k_grid

>  <i_i_glide_lignum>  (352) 
21

>  <i_i_glide_rotatable_bonds>  (352) 
2

>  <r_i_docking_score>  (352) 
-3.61638

>  <r_i_glide_ligand_efficiency>  (352) 
-0.172209

>  <r_i_glide_ligand_efficiency_sa>  (352) 
-0.475111

>  <r_i_glide_ligand_efficiency_ln>  (352) 
-0.894143

>  <r_i_glide_gscore>  (352) 
-3.61638

>  <r_i_glide_lipo>  (352) 
-0.239122

>  <r_i_glide_hbond>  (352) 
0

>  <r_i_glide_metal>  (352) 
-0

>  <r_i_glide_rewards>  (352) 
-1.61475

>  <r_i_glide_evdw>  (352) 
-24.3625

>  <r_i_glide_ecoul>  (352) 
-4.90969

>  <r_i_glide_erotb>  (352) 
0.457034

>  <r_i_glide_esite>  (352) 
-0.264969

>  <r_i_glide_emodel>  (352) 
-36.7235

>  <r_i_glide_energy>  (352) 
-29.2722

>  <r_i_glide_einternal>  (352) 
1.06584

>  <r_i_glide_intrahb_reward>  (352) 
-0

>  <i_i_glide_confnum>  (352) 
5

>  <i_i_glide_posenum>  (352) 
12

>  <r_i_glide_eff_state_penalty>  (352) 
0

>  <ligand_id>  (352) 
105

>  <original_smiles>  (352) 
O=C1OC(n2nnc(-c3cnccn3)n2)c2ncccc21

>  <smiles>  (352) 
[H]c1nc([H])c(-c2nnn(C3([H])OC(=O)c4c3nc([H])c([H])c4[H])n2)nc1[H]

$$$$
105:0:1
     RDKit          3D

 28 31  0  0  1  0  0  0  0  0999 V2000
    7.0332   -5.0009    2.0500 O   0  0  0  0  0  0  0  0  0  0  0  0
    6.0440   -4.8802    1.3363 C   0  0  0  0  0  0  0  0  0  0  0  0
    5.3178   -5.9131    0.8270 O   0  0  0  0  0  0  0  0  0  0  0  0
    4.2107   -5.4561    0.0767 C   0  0  1  0  0  0  0  0  0  0  0  0
    2.9668   -5.9214    0.6910 N   0  0  0  0  0  0  0  0  0  0  0  0
    1.7554   -5.7311    0.1137 N   0  0  0  0  0  0  0  0  0  0  0  0
    0.8825   -6.2662    0.9054 N   0  0  0  0  0  0  0  0  0  0  0  0
    1.6068   -6.7985    1.9348 C   0  0  0  0  0  0  0  0  0  0  0  0
    0.9856   -7.4928    3.0857 C   0  0  0  0  0  0  0  0  0  0  0  0
    1.7607   -8.0378    4.1388 C   0  0  0  0  0  0  0  0  0  0  0  0
    1.2051   -8.6641    5.1987 N   0  0  0  0  0  0  0  0  0  0  0  0
   -0.1389   -8.7703    5.1958 C   0  0  0  0  0  0  0  0  0  0  0  0
   -0.9239   -8.2333    4.1555 C   0  0  0  0  0  0  0  0  0  0  0  0
   -0.3707   -7.5809    3.1071 N   0  0  0  0  0  0  0  0  0  0  0  0
    2.9120   -6.6081    1.8539 N   0  0  0  0  0  0  0  0  0  0  0  0
    4.3457   -3.9623    0.1175 C   0  0  0  0  0  0  0  0  0  0  0  0
    3.5314   -3.0775   -0.4920 N   0  0  0  0  0  0  0  0  0  0  0  0
    3.8359   -1.7709   -0.2981 C   0  0  0  0  0  0  0  0  0  0  0  0
    4.9433   -1.3271    0.4688 C   0  0  0  0  0  0  0  0  0  0  0  0
    5.7819   -2.2849    1.0844 C   0  0  0  0  0  0  0  0  0  0  0  0
    5.4407   -3.6323    0.8784 C   0  0  0  0  0  0  0  0  0  0  0  0
    4.2893   -5.8596   -0.9308 H   0  0  0  0  0  0  0  0  0  0  0  0
    2.8389   -7.9668    4.1442 H   0  0  0  0  0  0  0  0  0  0  0  0
   -0.5882   -9.2842    6.0314 H   0  0  0  0  0  0  0  0  0  0  0  0
   -1.9986   -8.3248    4.1729 H   0  0  0  0  0  0  0  0  0  0  0  0
    3.1793   -1.0552   -0.7660 H   0  0  0  0  0  0  0  0  0  0  0  0
    5.1307   -0.2697    0.5849 H   0  0  0  0  0  0  0  0  0  0  0  0
    6.6318   -1.9925    1.6827 H   0  0  0  0  0  0  0  0  0  0  0  0
  1  2  2  0
  2 21  1  0
  2  3  1  0
  3  4  1  0
  4  5  1  0
  4 16  1  0
  4 22  1  6
  5 15  1  0
  5  6  1  0
  6  7  2  0
  7  8  1  0
  8  9  1  0
  8 15  2  0
  9 14  1  0
  9 10  2  0
 10 11  1  0
 10 23  1  0
 11 12  2  0
 12 13  1  0
 12 24  1  0
 13 14  2  0
 13 25  1  0
 16 21  2  0
 16 17  1  0
 17 18  2  0
 18 19  1  0
 18 26  1  0
 19 20  2  0
 19 27  1  0
 20 21  1  0
 20 28  1  0
M  END
>  <i_m_ct_stereo_status>  (353) 
1

>  <s_m_source_file>  (353) 
/var/tmp/pbs.5076255.sched01/tmpu61_44ix/12937f0afz8.sdf

>  <i_m_source_file_index>  (353) 
21

>  <i_lp_mmshare_version>  (353) 
48012

>  <i_f3d_flags>  (353) 
0

>  <s_epik_input>  (353) 
bjFbY0hdW2NIXVtjSF1jKGMxMilDKD1PKU9bQ0BIXTJuM25uYyhuMyktYzRbY0hdbltjSF1bY0hdbjQ=

>  <s_epik_cmdline>  (353) 
J2VwaWtfcHl0aG9uJywgJy1waHQnLCAnMi4wJywgJy1waCcsICc3LjAnLCAnLXRuJywgJzgnLCAnLW1hJywgJzIwMCcsICctaW1hZScsICc8aW5maWxlLm1hZT4nLCAnLW9tYWUnLCAnPG91dGZpbGUubWFlPic=

>  <r_lp_tautomer_probability>  (353) 
1

>  <r_epik_Ionization_Penalty>  (353) 
0.000794411

>  <r_epik_Ionization_Penalty_Charging>  (353) 
0

>  <r_epik_Ionization_Penalty_Neutral>  (353) 
0.000794411

>  <r_epik_State_Penalty>  (353) 
0.000509873

>  <r_epik_Charging_Adjusted_Penalty>  (353) 
0.000509873

>  <i_epik_Tot_Q>  (353) 
0

>  <i_epik_Tot_abs_Q>  (353) 
0

>  <s_epik_Chemistry_Notes>  (353) 
This compound has an ester and may undergo hydrolysis at high or low pH. This compound contains an acetal/aminal-like group ( X-CH(R)-Y where X, Y are N, S, or O) that may be acid/base labile, releasing an aldehyde.

>  <s_lp_Force_Field>  (353) 
OPLS3e

>  <r_lp_Energy>  (353) 
23.1098

>  <b_lp_Chiralities_Consistent>  (353) 
1

>  <s_lp_Variant>  (353) 
105:0-1

>  <s_i_glide_gridfile>  (353) 
pfpi4k_grid

>  <i_i_glide_lignum>  (353) 
21

>  <i_i_glide_rotatable_bonds>  (353) 
2

>  <r_i_docking_score>  (353) 
-3.54774

>  <r_i_glide_ligand_efficiency>  (353) 
-0.16894

>  <r_i_glide_ligand_efficiency_sa>  (353) 
-0.466093

>  <r_i_glide_ligand_efficiency_ln>  (353) 
-0.877172

>  <r_i_glide_gscore>  (353) 
-3.54774

>  <r_i_glide_lipo>  (353) 
-0.203791

>  <r_i_glide_hbond>  (353) 
0

>  <r_i_glide_metal>  (353) 
-0

>  <r_i_glide_rewards>  (353) 
-1.59859

>  <r_i_glide_evdw>  (353) 
-23.0731

>  <r_i_glide_ecoul>  (353) 
-5.34921

>  <r_i_glide_erotb>  (353) 
0.457034

>  <r_i_glide_esite>  (353) 
-0.246356

>  <r_i_glide_emodel>  (353) 
-35.8126

>  <r_i_glide_energy>  (353) 
-28.4223

>  <r_i_glide_einternal>  (353) 
0.836405

>  <r_i_glide_intrahb_reward>  (353) 
-0

>  <i_i_glide_confnum>  (353) 
5

>  <i_i_glide_posenum>  (353) 
8

>  <r_i_glide_eff_state_penalty>  (353) 
0

>  <ligand_id>  (353) 
105

>  <original_smiles>  (353) 
O=C1OC(n2nnc(-c3cnccn3)n2)c2ncccc21

>  <smiles>  (353) 
[H]c1nc([H])c(-c2nnn(C3([H])OC(=O)c4c3nc([H])c([H])c4[H])n2)nc1[H]

$$$$
105:0:2
     RDKit          3D

 28 31  0  0  1  0  0  0  0  0999 V2000
    6.0378   -2.1531   -1.3513 O   0  0  0  0  0  0  0  0  0  0  0  0
    4.9827   -2.4539   -0.7977 C   0  0  0  0  0  0  0  0  0  0  0  0
    4.1620   -3.4908   -1.1450 O   0  0  0  0  0  0  0  0  0  0  0  0
    3.0252   -3.5683   -0.3007 C   0  0  1  0  0  0  0  0  0  0  0  0
    2.9854   -4.8752    0.3588 N   0  0  0  0  0  0  0  0  0  0  0  0
    4.0846   -5.5831    0.7282 N   0  0  0  0  0  0  0  0  0  0  0  0
    3.6450   -6.6663    1.2895 N   0  0  0  0  0  0  0  0  0  0  0  0
    2.2855   -6.5562    1.2800 C   0  0  0  0  0  0  0  0  0  0  0  0
    1.3904   -7.5896    1.8458 C   0  0  0  0  0  0  0  0  0  0  0  0
    1.8631   -8.8389    2.3291 C   0  0  0  0  0  0  0  0  0  0  0  0
    1.0332   -9.7705    2.8504 N   0  0  0  0  0  0  0  0  0  0  0  0
   -0.2797   -9.4598    2.8823 C   0  0  0  0  0  0  0  0  0  0  0  0
   -0.7608   -8.2255    2.4028 C   0  0  0  0  0  0  0  0  0  0  0  0
    0.0669   -7.2880    1.8901 N   0  0  0  0  0  0  0  0  0  0  0  0
    1.8174   -5.4601    0.7030 N   0  0  0  0  0  0  0  0  0  0  0  0
    3.2272   -2.4343    0.6653 C   0  0  0  0  0  0  0  0  0  0  0  0
    2.3991   -2.0915    1.6757 N   0  0  0  0  0  0  0  0  0  0  0  0
    2.7744   -0.9995    2.3852 C   0  0  0  0  0  0  0  0  0  0  0  0
    3.9604   -0.2630    2.1406 C   0  0  0  0  0  0  0  0  0  0  0  0
    4.8077   -0.6571    1.0816 C   0  0  0  0  0  0  0  0  0  0  0  0
    4.3904   -1.7752    0.3435 C   0  0  0  0  0  0  0  0  0  0  0  0
    2.1197   -3.4492   -0.9001 H   0  0  0  0  0  0  0  0  0  0  0  0
    2.9114   -9.1009    2.3014 H   0  0  0  0  0  0  0  0  0  0  0  0
   -0.9539  -10.2031    3.2758 H   0  0  0  0  0  0  0  0  0  0  0  0
   -1.8123   -7.9915    2.4271 H   0  0  0  0  0  0  0  0  0  0  0  0
    2.1172   -0.7091    3.1890 H   0  0  0  0  0  0  0  0  0  0  0  0
    4.2060    0.5848    2.7621 H   0  0  0  0  0  0  0  0  0  0  0  0
    5.7224   -0.1274    0.8585 H   0  0  0  0  0  0  0  0  0  0  0  0
  1  2  2  0
  2 21  1  0
  2  3  1  0
  3  4  1  0
  4  5  1  0
  4 16  1  0
  4 22  1  6
  5 15  1  0
  5  6  1  0
  6  7  2  0
  7  8  1  0
  8  9  1  0
  8 15  2  0
  9 14  1  0
  9 10  2  0
 10 11  1  0
 10 23  1  0
 11 12  2  0
 12 13  1  0
 12 24  1  0
 13 14  2  0
 13 25  1  0
 16 21  2  0
 16 17  1  0
 17 18  2  0
 18 19  1  0
 18 26  1  0
 19 20  2  0
 19 27  1  0
 20 21  1  0
 20 28  1  0
M  END
>  <i_m_ct_stereo_status>  (354) 
1

>  <s_m_source_file>  (354) 
/var/tmp/pbs.5076255.sched01/tmpu61_44ix/12937f0afz8.sdf

>  <i_m_source_file_index>  (354) 
21

>  <i_lp_mmshare_version>  (354) 
48012

>  <i_f3d_flags>  (354) 
0

>  <s_epik_input>  (354) 
bjFbY0hdW2NIXVtjSF1jKGMxMilDKD1PKU9bQ0BIXTJuM25uYyhuMyktYzRbY0hdbltjSF1bY0hdbjQ=

>  <s_epik_cmdline>  (354) 
J2VwaWtfcHl0aG9uJywgJy1waHQnLCAnMi4wJywgJy1waCcsICc3LjAnLCAnLXRuJywgJzgnLCAnLW1hJywgJzIwMCcsICctaW1hZScsICc8aW5maWxlLm1hZT4nLCAnLW9tYWUnLCAnPG91dGZpbGUubWFlPic=

>  <r_lp_tautomer_probability>  (354) 
1

>  <r_epik_Ionization_Penalty>  (354) 
0.000794411

>  <r_epik_Ionization_Penalty_Charging>  (354) 
0

>  <r_epik_Ionization_Penalty_Neutral>  (354) 
0.000794411

>  <r_epik_State_Penalty>  (354) 
0.000509873

>  <r_epik_Charging_Adjusted_Penalty>  (354) 
0.000509873

>  <i_epik_Tot_Q>  (354) 
0

>  <i_epik_Tot_abs_Q>  (354) 
0

>  <s_epik_Chemistry_Notes>  (354) 
This compound has an ester and may undergo hydrolysis at high or low pH. This compound contains an acetal/aminal-like group ( X-CH(R)-Y where X, Y are N, S, or O) that may be acid/base labile, releasing an aldehyde.

>  <s_lp_Force_Field>  (354) 
OPLS3e

>  <r_lp_Energy>  (354) 
23.1098

>  <b_lp_Chiralities_Consistent>  (354) 
1

>  <s_lp_Variant>  (354) 
105:0-1

>  <s_i_glide_gridfile>  (354) 
pfpi4k_grid

>  <i_i_glide_lignum>  (354) 
21

>  <i_i_glide_rotatable_bonds>  (354) 
2

>  <r_i_docking_score>  (354) 
-3.45707

>  <r_i_glide_ligand_efficiency>  (354) 
-0.164622

>  <r_i_glide_ligand_efficiency_sa>  (354) 
-0.454181

>  <r_i_glide_ligand_efficiency_ln>  (354) 
-0.854754

>  <r_i_glide_gscore>  (354) 
-3.45707

>  <r_i_glide_lipo>  (354) 
-0.181598

>  <r_i_glide_hbond>  (354) 
-0.141887

>  <r_i_glide_metal>  (354) 
-0

>  <r_i_glide_rewards>  (354) 
-1.49162

>  <r_i_glide_evdw>  (354) 
-28.7457

>  <r_i_glide_ecoul>  (354) 
-4.01707

>  <r_i_glide_erotb>  (354) 
0.457034

>  <r_i_glide_esite>  (354) 
-0.0591593

>  <r_i_glide_emodel>  (354) 
-40.0599

>  <r_i_glide_energy>  (354) 
-32.7628

>  <r_i_glide_einternal>  (354) 
0.575093

>  <r_i_glide_intrahb_reward>  (354) 
-0

>  <i_i_glide_confnum>  (354) 
1

>  <i_i_glide_posenum>  (354) 
38

>  <r_i_glide_eff_state_penalty>  (354) 
0

>  <ligand_id>  (354) 
105

>  <original_smiles>  (354) 
O=C1OC(n2nnc(-c3cnccn3)n2)c2ncccc21

>  <smiles>  (354) 
[H]c1nc([H])c(-c2nnn(C3([H])OC(=O)c4c3nc([H])c([H])c4[H])n2)nc1[H]

$$$$
106:0:0
     RDKit          3D

 42 47  0  0  1  0  0  0  0  0999 V2000
    3.7676   -0.0107   -4.1088 C   0  0  0  0  0  0  0  0  0  0  0  0
    4.0745   -0.4230   -2.7937 O   0  0  0  0  0  0  0  0  0  0  0  0
    3.0930   -1.2605   -2.2204 C   0  0  0  0  0  0  0  0  0  0  0  0
    3.3870   -1.4837   -0.7321 C   0  0  2  0  0  0  0  0  0  0  0  0
    4.2051   -0.4389    0.0608 C   0  0  0  0  0  0  0  0  0  0  0  0
    4.8716   -1.6020    0.8058 C   0  0  2  0  0  0  0  0  0  0  0  0
    6.1890   -2.3412    0.5337 C   0  0  1  0  0  0  0  0  0  0  0  0
    6.3453   -3.5524    1.4572 C   0  0  2  0  0  0  0  0  0  0  0  0
    6.8962   -4.7008    0.6478 C   0  0  0  0  0  0  0  0  0  0  0  0
    5.5746   -5.2579    0.0283 C   0  0  2  0  0  0  0  0  0  0  0  0
    5.0385   -4.9762   -0.9948 C   0  0  2  0  0  0  0  0  0  0  0  0
    5.8316   -3.8071   -1.8095 C   0  0  1  0  0  0  0  0  0  0  0  0
    5.1125   -3.6882   -3.0379 O   0  0  0  0  0  0  0  0  0  0  0  0
    5.7415   -2.5371   -0.9555 C   0  0  2  0  0  0  0  0  0  0  0  0
    6.1610   -1.5031   -1.7979 O   0  0  0  0  0  0  0  0  0  0  0  0
    4.3841   -2.5376   -0.3101 C   0  0  2  0  0  0  0  0  0  0  0  0
    4.0427   -4.0892   -0.1276 C   0  0  1  0  0  0  0  0  0  0  0  0
    2.6896   -4.3725   -0.5526 O   0  0  0  0  0  0  0  0  0  0  0  0
    4.3462   -4.8921    0.7612 C   0  0  2  0  0  0  0  0  0  0  0  0
    5.0160   -4.1710    2.0530 C   0  0  0  0  0  0  0  0  0  0  0  0
    4.5445    0.6670   -4.4587 H   0  0  0  0  0  0  0  0  0  0  0  0
    2.8200    0.5247   -4.1927 H   0  0  0  0  0  0  0  0  0  0  0  0
    3.7490   -0.8796   -4.7651 H   0  0  0  0  0  0  0  0  0  0  0  0
    2.1760   -0.7255   -2.3640 H   0  0  0  0  0  0  0  0  0  0  0  0
    3.0050   -2.1985   -2.7693 H   0  0  0  0  0  0  0  0  0  0  0  0
    2.5355   -1.8156   -0.1298 H   0  0  0  0  0  0  0  0  0  0  0  0
    4.8803    0.1438   -0.5206 H   0  0  0  0  0  0  0  0  0  0  0  0
    3.5720    0.1793    0.7009 H   0  0  0  0  0  0  0  0  0  0  0  0
    4.4263   -1.6912    1.7917 H   0  0  0  0  0  0  0  0  0  0  0  0
    7.0406   -1.6656    0.5672 H   0  0  0  0  0  0  0  0  0  0  0  0
    6.9955   -3.2593    2.2436 H   0  0  0  0  0  0  0  0  0  0  0  0
    7.6801   -4.4147   -0.0568 H   0  0  0  0  0  0  0  0  0  0  0  0
    7.3285   -5.4488    1.3201 H   0  0  0  0  0  0  0  0  0  0  0  0
    5.6231   -6.3912    0.0601 H   0  0  0  0  0  0  0  0  0  0  0  0
    4.8130   -5.8771   -1.5840 H   0  0  0  0  0  0  0  0  0  0  0  0
    6.9046   -3.8605   -2.0348 H   0  0  0  0  0  0  0  0  0  0  0  0
    4.7204   -4.5339   -3.2351 H   0  0  0  0  0  0  0  0  0  0  0  0
    5.3670   -1.2623   -2.2753 H   0  0  0  0  0  0  0  0  0  0  0  0
    2.7765   -4.8737   -1.3603 H   0  0  0  0  0  0  0  0  0  0  0  0
    3.5925   -5.6681    1.0273 H   0  0  0  0  0  0  0  0  0  0  0  0
    5.2691   -4.9325    2.7966 H   0  0  0  0  0  0  0  0  0  0  0  0
    4.3191   -3.5074    2.5655 H   0  0  0  0  0  0  0  0  0  0  0  0
  1  2  1  0
  1 21  1  0
  1 22  1  0
  1 23  1  0
  2  3  1  0
  3  4  1  0
  3 24  1  0
  3 25  1  0
  4 16  1  0
  4  5  1  0
  4 26  1  1
  5  6  1  0
  5 27  1  0
  5 28  1  0
  6 16  1  0
  6  7  1  0
  6 29  1  1
  7 14  1  0
  7  8  1  0
  7 30  1  6
  8 20  1  0
  8  9  1  0
  8 31  1  1
  9 10  1  0
  9 32  1  0
  9 33  1  0
 10 17  1  0
 10 11  1  0
 10 34  1  1
 11 19  1  0
 11 12  1  0
 11 35  1  6
 12 13  1  0
 12 14  1  0
 12 36  1  6
 13 37  1  0
 14 15  1  6
 16 14  1  6
 15 38  1  0
 16 17  1  0
 17 18  1  6
 17 19  1  0
 18 39  1  0
 19 20  1  0
 19 40  1  1
 20 41  1  0
 20 42  1  0
M  END
>  <i_m_ct_stereo_status>  (355) 
1

>  <s_m_source_file>  (355) 
/var/tmp/pbs.5076255.sched01/tmpu61_44ix/12937f0afz8.sdf

>  <i_m_source_file_index>  (355) 
22

>  <i_lp_mmshare_version>  (355) 
48012

>  <i_f3d_flags>  (355) 
0

>  <s_epik_input>  (355) 
W0NIM11PW0NIMl1bQ0BASF0xW0NIMl1bQ0BASF0oW0NAQF0xMjMpW0NASF00W0NAQEhdNVtDSDJdW0NAQEhdNltDQEhdKFtDQEBIXShbT0hdKVtDQEBdMjRbT0hdKVtDQEBIXShbQ0gyXTUpW0NAQF0zNltPSF0=

>  <s_epik_cmdline>  (355) 
J2VwaWtfcHl0aG9uJywgJy1waHQnLCAnMi4wJywgJy1waCcsICc3LjAnLCAnLXRuJywgJzgnLCAnLW1hJywgJzIwMCcsICctaW1hZScsICc8aW5maWxlLm1hZT4nLCAnLW9tYWUnLCAnPG91dGZpbGUubWFlPic=

>  <r_lp_tautomer_probability>  (355) 
1

>  <r_epik_Ionization_Penalty>  (355) 
8.07567e-06

>  <r_epik_Ionization_Penalty_Charging>  (355) 
0

>  <r_epik_Ionization_Penalty_Neutral>  (355) 
8.07567e-06

>  <r_epik_State_Penalty>  (355) 
-0

>  <r_epik_Charging_Adjusted_Penalty>  (355) 
0

>  <i_epik_Tot_Q>  (355) 
0

>  <i_epik_Tot_abs_Q>  (355) 
0

>  <s_lp_Force_Field>  (355) 
OPLS3e

>  <r_lp_Energy>  (355) 
459.126

>  <b_lp_Chiralities_Consistent>  (355) 
1

>  <s_lp_Variant>  (355) 
106:0-1

>  <s_i_glide_gridfile>  (355) 
pfpi4k_grid

>  <i_i_glide_lignum>  (355) 
22

>  <i_i_glide_rotatable_bonds>  (355) 
5

>  <r_i_docking_score>  (355) 
-4.50211

>  <r_i_glide_ligand_efficiency>  (355) 
-0.225105

>  <r_i_glide_ligand_efficiency_sa>  (355) 
-0.61103

>  <r_i_glide_ligand_efficiency_ln>  (355) 
-1.12673

>  <r_i_glide_gscore>  (355) 
-4.50211

>  <r_i_glide_lipo>  (355) 
-0.743324

>  <r_i_glide_hbond>  (355) 
-0.32

>  <r_i_glide_metal>  (355) 
-0

>  <r_i_glide_rewards>  (355) 
-2.01129

>  <r_i_glide_evdw>  (355) 
-6.32832

>  <r_i_glide_ecoul>  (355) 
-8.95815

>  <r_i_glide_erotb>  (355) 
0.232648

>  <r_i_glide_esite>  (355) 
0

>  <r_i_glide_emodel>  (355) 
-24.4871

>  <r_i_glide_energy>  (355) 
-15.2865

>  <r_i_glide_einternal>  (355) 
6.47872

>  <r_i_glide_intrahb_reward>  (355) 
-0.5

>  <i_i_glide_confnum>  (355) 
6

>  <i_i_glide_posenum>  (355) 
10

>  <r_i_glide_eff_state_penalty>  (355) 
0

>  <ligand_id>  (355) 
106

>  <original_smiles>  (355) 
COCC1CC2C3C4CC5C6C(O)C3(O)C12C5(O)C6C4

>  <smiles>  (355) 
[H]OC1([H])C2([H])C3([H])C([H])([H])C4([H])C([H])([H])C2([H])C3(O[H])C23C([H])(C([H])([H])OC([H])([H])[H])C([H])([H])C2([H])C4([H])C13O[H]

$$$$
106:0:1
     RDKit          3D

 42 47  0  0  1  0  0  0  0  0999 V2000
   -0.1300    7.2857    7.3673 C   0  0  0  0  0  0  0  0  0  0  0  0
   -0.1917    6.9552    5.9916 O   0  0  0  0  0  0  0  0  0  0  0  0
    1.0626    6.6251    5.4171 C   0  0  0  0  0  0  0  0  0  0  0  0
    1.5586    5.2344    5.8633 C   0  0  2  0  0  0  0  0  0  0  0  0
    2.9153    4.7394    5.3653 C   0  0  0  0  0  0  0  0  0  0  0  0
    2.3190    3.3210    5.3128 C   0  0  2  0  0  0  0  0  0  0  0  0
    1.7267    2.4970    4.1648 C   0  0  1  0  0  0  0  0  0  0  0  0
    1.1309    1.1353    4.6644 C   0  0  2  0  0  0  0  0  0  0  0  0
   -0.1904    0.9529    3.9442 C   0  0  0  0  0  0  0  0  0  0  0  0
   -1.1496    1.8490    4.8077 C   0  0  2  0  0  0  0  0  0  0  0  0
   -1.4465    2.9837    4.7005 C   0  0  2  0  0  0  0  0  0  0  0  0
   -0.7145    3.6633    3.4655 C   0  0  1  0  0  0  0  0  0  0  0  0
   -1.2893    4.9490    3.2787 O   0  0  0  0  0  0  0  0  0  0  0  0
    0.8105    3.7310    3.8020 C   0  0  2  0  0  0  0  0  0  0  0  0
    1.4110    4.6256    2.9019 O   0  0  0  0  0  0  0  0  0  0  0  0
    0.9177    3.9461    5.3049 C   0  0  2  0  0  0  0  0  0  0  0  0
   -0.4184    3.2738    5.8705 C   0  0  1  0  0  0  0  0  0  0  0  0
   -1.1063    4.1179    6.8372 O   0  0  0  0  0  0  0  0  0  0  0  0
   -0.6459    2.1076    6.1751 C   0  0  2  0  0  0  0  0  0  0  0  0
    0.6496    1.1369    6.1646 C   0  0  0  0  0  0  0  0  0  0  0  0
   -1.1333    7.5186    7.7289 H   0  0  0  0  0  0  0  0  0  0  0  0
    0.5149    8.1516    7.5222 H   0  0  0  0  0  0  0  0  0  0  0  0
    0.2340    6.4730    7.9936 H   0  0  0  0  0  0  0  0  0  0  0  0
    0.9335    6.6535    4.3413 H   0  0  0  0  0  0  0  0  0  0  0  0
    1.7996    7.3922    5.6390 H   0  0  0  0  0  0  0  0  0  0  0  0
    1.6025    5.1188    6.9527 H   0  0  0  0  0  0  0  0  0  0  0  0
    3.2360    5.1442    4.4086 H   0  0  0  0  0  0  0  0  0  0  0  0
    3.6876    4.8543    6.1245 H   0  0  0  0  0  0  0  0  0  0  0  0
    2.6337    2.7784    6.1957 H   0  0  0  0  0  0  0  0  0  0  0  0
    2.4655    2.3568    3.3886 H   0  0  0  0  0  0  0  0  0  0  0  0
    1.8220    0.3172    4.4673 H   0  0  0  0  0  0  0  0  0  0  0  0
   -0.1441    1.2060    2.8861 H   0  0  0  0  0  0  0  0  0  0  0  0
   -0.4926   -0.0906    3.9997 H   0  0  0  0  0  0  0  0  0  0  0  0
   -2.1549    1.3497    4.9114 H   0  0  0  0  0  0  0  0  0  0  0  0
   -2.5243    3.1725    4.7866 H   0  0  0  0  0  0  0  0  0  0  0  0
   -0.9187    3.1351    2.5351 H   0  0  0  0  0  0  0  0  0  0  0  0
   -0.9241    5.2613    2.4592 H   0  0  0  0  0  0  0  0  0  0  0  0
    0.9771    4.5143    2.0348 H   0  0  0  0  0  0  0  0  0  0  0  0
   -0.7022    3.9264    7.6602 H   0  0  0  0  0  0  0  0  0  0  0  0
   -1.3235    1.9456    7.0357 H   0  0  0  0  0  0  0  0  0  0  0  0
    0.3620    0.1207    6.4418 H   0  0  0  0  0  0  0  0  0  0  0  0
    1.3691    1.4399    6.9272 H   0  0  0  0  0  0  0  0  0  0  0  0
  1  2  1  0
  1 21  1  0
  1 22  1  0
  1 23  1  0
  2  3  1  0
  3  4  1  0
  3 24  1  0
  3 25  1  0
  4 16  1  0
  4  5  1  0
  4 26  1  1
  5  6  1  0
  5 27  1  0
  5 28  1  0
  6 16  1  0
  6  7  1  0
  6 29  1  1
  7 14  1  0
  7  8  1  0
  7 30  1  6
  8 20  1  0
  8  9  1  0
  8 31  1  1
  9 10  1  0
  9 32  1  0
  9 33  1  0
 10 17  1  0
 10 11  1  0
 10 34  1  1
 11 19  1  0
 11 12  1  0
 11 35  1  1
 12 13  1  0
 12 14  1  0
 12 36  1  6
 13 37  1  0
 14 15  1  6
 16 14  1  6
 15 38  1  0
 16 17  1  0
 17 18  1  1
 17 19  1  0
 18 39  1  0
 19 20  1  0
 19 40  1  1
 20 41  1  0
 20 42  1  0
M  END
>  <i_m_ct_stereo_status>  (356) 
1

>  <s_m_source_file>  (356) 
/var/tmp/pbs.5076255.sched01/tmpu61_44ix/12937f0afz8.sdf

>  <i_m_source_file_index>  (356) 
22

>  <i_lp_mmshare_version>  (356) 
48012

>  <i_f3d_flags>  (356) 
0

>  <s_epik_input>  (356) 
W0NIM11PW0NIMl1bQ0BASF0xW0NIMl1bQ0BASF0oW0NAQF0xMjMpW0NASF00W0NAQEhdNVtDSDJdW0NAQEhdNltDQEhdKFtDQEBIXShbT0hdKVtDQEBdMjRbT0hdKVtDQEBIXShbQ0gyXTUpW0NAQF0zNltPSF0=

>  <s_epik_cmdline>  (356) 
J2VwaWtfcHl0aG9uJywgJy1waHQnLCAnMi4wJywgJy1waCcsICc3LjAnLCAnLXRuJywgJzgnLCAnLW1hJywgJzIwMCcsICctaW1hZScsICc8aW5maWxlLm1hZT4nLCAnLW9tYWUnLCAnPG91dGZpbGUubWFlPic=

>  <r_lp_tautomer_probability>  (356) 
1

>  <r_epik_Ionization_Penalty>  (356) 
8.07567e-06

>  <r_epik_Ionization_Penalty_Charging>  (356) 
0

>  <r_epik_Ionization_Penalty_Neutral>  (356) 
8.07567e-06

>  <r_epik_State_Penalty>  (356) 
-0

>  <r_epik_Charging_Adjusted_Penalty>  (356) 
0

>  <i_epik_Tot_Q>  (356) 
0

>  <i_epik_Tot_abs_Q>  (356) 
0

>  <s_lp_Force_Field>  (356) 
OPLS3e

>  <r_lp_Energy>  (356) 
459.126

>  <b_lp_Chiralities_Consistent>  (356) 
1

>  <s_lp_Variant>  (356) 
106:0-1

>  <s_i_glide_gridfile>  (356) 
pfpi4k_grid

>  <i_i_glide_lignum>  (356) 
22

>  <i_i_glide_rotatable_bonds>  (356) 
5

>  <r_i_docking_score>  (356) 
-3.76761

>  <r_i_glide_ligand_efficiency>  (356) 
-0.188381

>  <r_i_glide_ligand_efficiency_sa>  (356) 
-0.511343

>  <r_i_glide_ligand_efficiency_ln>  (356) 
-0.942909

>  <r_i_glide_gscore>  (356) 
-3.76761

>  <r_i_glide_lipo>  (356) 
0

>  <r_i_glide_hbond>  (356) 
-0.0500847

>  <r_i_glide_metal>  (356) 
-0

>  <r_i_glide_rewards>  (356) 
-1.51129

>  <r_i_glide_evdw>  (356) 
-9.0484

>  <r_i_glide_ecoul>  (356) 
-13.2431

>  <r_i_glide_erotb>  (356) 
0.232648

>  <r_i_glide_esite>  (356) 
0

>  <r_i_glide_emodel>  (356) 
-28.2618

>  <r_i_glide_energy>  (356) 
-22.2915

>  <r_i_glide_einternal>  (356) 
2.08236

>  <r_i_glide_intrahb_reward>  (356) 
-0

>  <i_i_glide_confnum>  (356) 
4

>  <i_i_glide_posenum>  (356) 
11

>  <r_i_glide_eff_state_penalty>  (356) 
0

>  <ligand_id>  (356) 
106

>  <original_smiles>  (356) 
COCC1CC2C3C4CC5C6C(O)C3(O)C12C5(O)C6C4

>  <smiles>  (356) 
[H]OC1([H])C2([H])C3([H])C([H])([H])C4([H])C([H])([H])C2([H])C3(O[H])C23C([H])(C([H])([H])OC([H])([H])[H])C([H])([H])C2([H])C4([H])C13O[H]

$$$$
106:0:2
     RDKit          3D

 42 47  0  0  1  0  0  0  0  0999 V2000
    3.0236    6.0221    6.0026 C   0  0  0  0  0  0  0  0  0  0  0  0
    2.1450    4.9408    6.2360 O   0  0  0  0  0  0  0  0  0  0  0  0
    2.8406    3.7144    6.3391 C   0  0  0  0  0  0  0  0  0  0  0  0
    1.8319    2.5751    6.4553 C   0  0  2  0  0  0  0  0  0  0  0  0
    2.3482    1.1339    6.5057 C   0  0  0  0  0  0  0  0  0  0  0  0
    1.1325    0.6846    5.6734 C   0  0  2  0  0  0  0  0  0  0  0  0
    0.9300    0.4298    4.1683 C   0  0  1  0  0  0  0  0  0  0  0  0
   -0.5553    0.1373    3.7940 C   0  0  2  0  0  0  0  0  0  0  0  0
   -0.8692    0.9314    2.5394 C   0  0  0  0  0  0  0  0  0  0  0  0
   -1.1490    2.3534    3.1330 C   0  0  2  0  0  0  0  0  0  0  0  0
   -0.4087    3.2582    3.3081 C   0  0  2  0  0  0  0  0  0  0  0  0
    1.0845    2.8879    2.8785 C   0  0  1  0  0  0  0  0  0  0  0  0
    1.8461    4.0826    2.8949 O   0  0  0  0  0  0  0  0  0  0  0  0
    1.5952    1.8275    3.8953 C   0  0  2  0  0  0  0  0  0  0  0  0
    2.9833    1.7593    3.7025 O   0  0  0  0  0  0  0  0  0  0  0  0
    0.9733    2.1561    5.2431 C   0  0  2  0  0  0  0  0  0  0  0  0
   -0.4089    2.8607    4.8289 C   0  0  1  0  0  0  0  0  0  0  0  0
   -0.6898    4.0477    5.5967 O   0  0  0  0  0  0  0  0  0  0  0  0
   -1.4949    2.3457    4.5550 C   0  0  2  0  0  0  0  0  0  0  0  0
   -1.6034    0.7426    4.7935 C   0  0  0  0  0  0  0  0  0  0  0  0
    2.4474    6.9450    5.9295 H   0  0  0  0  0  0  0  0  0  0  0  0
    3.5806    5.9001    5.0696 H   0  0  0  0  0  0  0  0  0  0  0  0
    3.7365    6.1290    6.8212 H   0  0  0  0  0  0  0  0  0  0  0  0
    3.4812    3.5723    5.4735 H   0  0  0  0  0  0  0  0  0  0  0  0
    3.4848    3.7298    7.2140 H   0  0  0  0  0  0  0  0  0  0  0  0
    1.1497    2.7123    7.2981 H   0  0  0  0  0  0  0  0  0  0  0  0
    3.3079    0.9621    6.0249 H   0  0  0  0  0  0  0  0  0  0  0  0
    2.3326    0.7170    7.5133 H   0  0  0  0  0  0  0  0  0  0  0  0
    0.3838    0.2846    6.3418 H   0  0  0  0  0  0  0  0  0  0  0  0
    1.6085   -0.3355    3.8254 H   0  0  0  0  0  0  0  0  0  0  0  0
   -0.7071   -0.9308    3.6707 H   0  0  0  0  0  0  0  0  0  0  0  0
   -0.0878    0.8692    1.7833 H   0  0  0  0  0  0  0  0  0  0  0  0
   -1.7735    0.5619    2.0633 H   0  0  0  0  0  0  0  0  0  0  0  0
   -1.9959    2.8389    2.5660 H   0  0  0  0  0  0  0  0  0  0  0  0
   -0.7896    4.2181    2.9573 H   0  0  0  0  0  0  0  0  0  0  0  0
    1.1471    2.5358    1.8607 H   0  0  0  0  0  0  0  0  0  0  0  0
    1.4540    4.6162    2.2143 H   0  0  0  0  0  0  0  0  0  0  0  0
    3.1732    2.2580    2.9317 H   0  0  0  0  0  0  0  0  0  0  0  0
   -1.0007    3.7456    6.4276 H   0  0  0  0  0  0  0  0  0  0  0  0
   -2.4049    2.9040    4.8716 H   0  0  0  0  0  0  0  0  0  0  0  0
   -2.5856    0.3814    4.4938 H   0  0  0  0  0  0  0  0  0  0  0  0
   -1.5219    0.4951    5.8442 H   0  0  0  0  0  0  0  0  0  0  0  0
  1  2  1  0
  1 21  1  0
  1 22  1  0
  1 23  1  0
  2  3  1  0
  3  4  1  0
  3 24  1  0
  3 25  1  0
  4 16  1  0
  4  5  1  0
  4 26  1  1
  5  6  1  0
  5 27  1  0
  5 28  1  0
  6 16  1  0
  6  7  1  0
  6 29  1  1
  7 14  1  0
  7  8  1  0
  7 30  1  6
  8 20  1  0
  8  9  1  0
  8 31  1  6
  9 10  1  0
  9 32  1  0
  9 33  1  0
 10 17  1  0
 10 11  1  0
 10 34  1  1
 11 19  1  0
 11 12  1  0
 11 35  1  6
 12 13  1  0
 12 14  1  0
 12 36  1  6
 13 37  1  0
 14 15  1  1
 16 14  1  6
 15 38  1  0
 16 17  1  0
 17 18  1  6
 17 19  1  0
 18 39  1  0
 19 20  1  0
 19 40  1  1
 20 41  1  0
 20 42  1  0
M  END
>  <i_m_ct_stereo_status>  (357) 
1

>  <s_m_source_file>  (357) 
/var/tmp/pbs.5076255.sched01/tmpu61_44ix/12937f0afz8.sdf

>  <i_m_source_file_index>  (357) 
22

>  <i_lp_mmshare_version>  (357) 
48012

>  <i_f3d_flags>  (357) 
0

>  <s_epik_input>  (357) 
W0NIM11PW0NIMl1bQ0BASF0xW0NIMl1bQ0BASF0oW0NAQF0xMjMpW0NASF00W0NAQEhdNVtDSDJdW0NAQEhdNltDQEhdKFtDQEBIXShbT0hdKVtDQEBdMjRbT0hdKVtDQEBIXShbQ0gyXTUpW0NAQF0zNltPSF0=

>  <s_epik_cmdline>  (357) 
J2VwaWtfcHl0aG9uJywgJy1waHQnLCAnMi4wJywgJy1waCcsICc3LjAnLCAnLXRuJywgJzgnLCAnLW1hJywgJzIwMCcsICctaW1hZScsICc8aW5maWxlLm1hZT4nLCAnLW9tYWUnLCAnPG91dGZpbGUubWFlPic=

>  <r_lp_tautomer_probability>  (357) 
1

>  <r_epik_Ionization_Penalty>  (357) 
8.07567e-06

>  <r_epik_Ionization_Penalty_Charging>  (357) 
0

>  <r_epik_Ionization_Penalty_Neutral>  (357) 
8.07567e-06

>  <r_epik_State_Penalty>  (357) 
-0

>  <r_epik_Charging_Adjusted_Penalty>  (357) 
0

>  <i_epik_Tot_Q>  (357) 
0

>  <i_epik_Tot_abs_Q>  (357) 
0

>  <s_lp_Force_Field>  (357) 
OPLS3e

>  <r_lp_Energy>  (357) 
459.126

>  <b_lp_Chiralities_Consistent>  (357) 
1

>  <s_lp_Variant>  (357) 
106:0-1

>  <s_i_glide_gridfile>  (357) 
pfpi4k_grid

>  <i_i_glide_lignum>  (357) 
22

>  <i_i_glide_rotatable_bonds>  (357) 
5

>  <r_i_docking_score>  (357) 
-2.62693

>  <r_i_glide_ligand_efficiency>  (357) 
-0.131346

>  <r_i_glide_ligand_efficiency_sa>  (357) 
-0.356529

>  <r_i_glide_ligand_efficiency_ln>  (357) 
-0.657434

>  <r_i_glide_gscore>  (357) 
-2.62693

>  <r_i_glide_lipo>  (357) 
0

>  <r_i_glide_hbond>  (357) 
0

>  <r_i_glide_metal>  (357) 
-0

>  <r_i_glide_rewards>  (357) 
-1.51129

>  <r_i_glide_evdw>  (357) 
-13.2755

>  <r_i_glide_ecoul>  (357) 
-4.5634

>  <r_i_glide_erotb>  (357) 
0.232648

>  <r_i_glide_esite>  (357) 
0

>  <r_i_glide_emodel>  (357) 
-21.9665

>  <r_i_glide_energy>  (357) 
-17.8389

>  <r_i_glide_einternal>  (357) 
1.6301

>  <r_i_glide_intrahb_reward>  (357) 
-0

>  <i_i_glide_confnum>  (357) 
4

>  <i_i_glide_posenum>  (357) 
2

>  <r_i_glide_eff_state_penalty>  (357) 
0

>  <ligand_id>  (357) 
106

>  <original_smiles>  (357) 
COCC1CC2C3C4CC5C6C(O)C3(O)C12C5(O)C6C4

>  <smiles>  (357) 
[H]OC1([H])C2([H])C3([H])C([H])([H])C4([H])C([H])([H])C2([H])C3(O[H])C23C([H])(C([H])([H])OC([H])([H])[H])C([H])([H])C2([H])C4([H])C13O[H]

$$$$
108:0:0
     RDKit          3D

 44 47  0  0  1  0  0  0  0  0999 V2000
    1.7645   -5.8360    0.8090 O   0  0  0  0  0  0  0  0  0  0  0  0
    2.6019   -5.6944    1.7053 C   0  0  0  0  0  0  0  0  0  0  0  0
    3.7451   -4.6838    1.5591 C   0  0  0  0  0  0  0  0  0  0  0  0
    3.5853   -3.9025    0.3762 O   0  0  0  0  0  0  0  0  0  0  0  0
    4.4400   -4.0147   -0.6686 C   0  0  0  0  0  0  0  0  0  0  0  0
    5.4025   -4.7821   -0.6941 O   0  0  0  0  0  0  0  0  0  0  0  0
    4.0872   -3.1257   -1.8073 C   0  0  0  0  0  0  0  0  0  0  0  0
    4.4971   -3.4520   -3.1221 C   0  0  0  0  0  0  0  0  0  0  0  0
    4.2067   -2.6536   -4.1764 N   0  0  0  0  0  0  0  0  0  0  0  0
    3.5308   -1.5177   -3.9149 C   0  0  0  0  0  0  0  0  0  0  0  0
    3.1334   -1.1814   -2.6087 C   0  0  0  0  0  0  0  0  0  0  0  0
    3.4203   -1.9737   -1.5535 N   0  0  0  0  0  0  0  0  0  0  0  0
    2.5672   -6.3837    2.8615 N   0  0  0  0  0  0  0  0  0  0  0  0
    1.5797   -7.4033    3.2612 C   0  0  2  0  0  0  0  0  0  0  0  0
    1.9142   -7.8871    4.7061 C   0  0  0  0  0  0  0  0  0  0  0  0
    0.8924   -8.9584    5.1483 C   0  0  1  0  0  0  0  0  0  0  0  0
   -0.5187   -8.3389    5.1307 C   0  0  0  0  0  0  0  0  0  0  0  0
   -0.8668   -7.8822    3.7090 C   0  0  2  0  0  0  0  0  0  0  0  0
   -0.8030   -9.0849    2.7442 C   0  0  0  0  0  0  0  0  0  0  0  0
    0.6169   -9.6912    2.7685 C   0  0  2  0  0  0  0  0  0  0  0  0
    0.9643  -10.1634    4.1908 C   0  0  0  0  0  0  0  0  0  0  0  0
    1.6380   -8.6332    2.3129 C   0  0  0  0  0  0  0  0  0  0  0  0
    0.1405   -6.8096    3.2696 C   0  0  0  0  0  0  0  0  0  0  0  0
    3.7136   -3.9979    2.4048 H   0  0  0  0  0  0  0  0  0  0  0  0
    4.6934   -5.2149    1.6221 H   0  0  0  0  0  0  0  0  0  0  0  0
    5.0441   -4.3578   -3.3421 H   0  0  0  0  0  0  0  0  0  0  0  0
    3.2919   -0.8753   -4.7483 H   0  0  0  0  0  0  0  0  0  0  0  0
    2.5858   -0.2759   -2.4053 H   0  0  0  0  0  0  0  0  0  0  0  0
    3.3042   -6.1824    3.5187 H   0  0  0  0  0  0  0  0  0  0  0  0
    2.9236   -8.3036    4.7535 H   0  0  0  0  0  0  0  0  0  0  0  0
    1.8901   -7.0510    5.4113 H   0  0  0  0  0  0  0  0  0  0  0  0
    1.1263   -9.2966    6.1574 H   0  0  0  0  0  0  0  0  0  0  0  0
   -1.2629   -9.0501    5.4810 H   0  0  0  0  0  0  0  0  0  0  0  0
   -0.5607   -7.4945    5.8126 H   0  0  0  0  0  0  0  0  0  0  0  0
   -1.8749   -7.4709    3.7008 H   0  0  0  0  0  0  0  0  0  0  0  0
   -1.5345   -9.8396    3.0277 H   0  0  0  0  0  0  0  0  0  0  0  0
   -1.0572   -8.7710    1.7307 H   0  0  0  0  0  0  0  0  0  0  0  0
    0.6564  -10.5382    2.0862 H   0  0  0  0  0  0  0  0  0  0  0  0
    1.9627  -10.5994    4.2065 H   0  0  0  0  0  0  0  0  0  0  0  0
    0.2771  -10.9430    4.5101 H   0  0  0  0  0  0  0  0  0  0  0  0
    1.4124   -8.3555    1.2844 H   0  0  0  0  0  0  0  0  0  0  0  0
    2.6434   -9.0561    2.3021 H   0  0  0  0  0  0  0  0  0  0  0  0
    0.0888   -5.9456    3.9361 H   0  0  0  0  0  0  0  0  0  0  0  0
   -0.1617   -6.4650    2.2827 H   0  0  0  0  0  0  0  0  0  0  0  0
  1  2  2  0
  2  3  1  0
  2 13  1  0
  3  4  1  0
  3 24  1  0
  3 25  1  0
  4  5  1  0
  5  6  2  0
  5  7  1  0
  7 12  1  0
  7  8  2  0
  8  9  1  0
  8 26  1  0
  9 10  2  0
 10 11  1  0
 10 27  1  0
 11 12  2  0
 11 28  1  0
 14 13  1  6
 13 29  1  0
 14 22  1  0
 14 23  1  0
 14 15  1  0
 15 16  1  0
 15 30  1  0
 15 31  1  0
 16 21  1  0
 16 17  1  0
 16 32  1  1
 17 18  1  0
 17 33  1  0
 17 34  1  0
 18 19  1  0
 18 23  1  0
 18 35  1  1
 19 20  1  0
 19 36  1  0
 19 37  1  0
 20 21  1  0
 20 22  1  0
 20 38  1  6
 21 39  1  0
 21 40  1  0
 22 41  1  0
 22 42  1  0
 23 43  1  0
 23 44  1  0
M  END
>  <i_m_ct_stereo_status>  (358) 
1

>  <s_m_source_file>  (358) 
/var/tmp/pbs.5076255.sched01/tmpu61_44ix/12937f0afz8.sdf

>  <i_m_source_file_index>  (358) 
24

>  <i_lp_mmshare_version>  (358) 
48012

>  <i_f3d_flags>  (358) 
0

>  <s_epik_input>  (358) 
W0NIMl0xW0NASF0oW0NIMl0yKVtDSDJdW0NASF0oW0NIMl0zKVtDSDJdW0NAQEhdMVtDSDJdQzIzW05IXUMoPU8pW0NIMl1PQyg9TyljNFtjSF1uW2NIXVtjSF1uNA==

>  <s_epik_cmdline>  (358) 
J2VwaWtfcHl0aG9uJywgJy1waHQnLCAnMi4wJywgJy1waCcsICc3LjAnLCAnLXRuJywgJzgnLCAnLW1hJywgJzIwMCcsICctaW1hZScsICc8aW5maWxlLm1hZT4nLCAnLW9tYWUnLCAnPG91dGZpbGUubWFlPic=

>  <r_lp_tautomer_probability>  (358) 
1

>  <r_epik_Ionization_Penalty>  (358) 
1.57409e-07

>  <r_epik_Ionization_Penalty_Charging>  (358) 
0

>  <r_epik_Ionization_Penalty_Neutral>  (358) 
1.57409e-07

>  <r_epik_State_Penalty>  (358) 
-0

>  <r_epik_Charging_Adjusted_Penalty>  (358) 
0

>  <i_epik_Tot_Q>  (358) 
0

>  <i_epik_Tot_abs_Q>  (358) 
0

>  <s_epik_Chemistry_Notes>  (358) 
This compound has an ester and may undergo hydrolysis at high or low pH.

>  <s_lp_Force_Field>  (358) 
OPLS3e

>  <r_lp_Energy>  (358) 
8.57473

>  <b_lp_Chiralities_Consistent>  (358) 
1

>  <s_lp_Variant>  (358) 
108:0-1

>  <s_i_glide_gridfile>  (358) 
pfpi4k_grid

>  <i_i_glide_lignum>  (358) 
24

>  <i_i_glide_rotatable_bonds>  (358) 
6

>  <r_i_docking_score>  (358) 
-3.32384

>  <r_i_glide_ligand_efficiency>  (358) 
-0.144515

>  <r_i_glide_ligand_efficiency_sa>  (358) 
-0.410981

>  <r_i_glide_ligand_efficiency_ln>  (358) 
-0.803735

>  <r_i_glide_gscore>  (358) 
-3.32384

>  <r_i_glide_lipo>  (358) 
-0.225579

>  <r_i_glide_hbond>  (358) 
-0.378826

>  <r_i_glide_metal>  (358) 
-0

>  <r_i_glide_rewards>  (358) 
-1.25886

>  <r_i_glide_evdw>  (358) 
-30.3439

>  <r_i_glide_ecoul>  (358) 
-4.45992

>  <r_i_glide_erotb>  (358) 
0.748132

>  <r_i_glide_esite>  (358) 
-0.0225208

>  <r_i_glide_emodel>  (358) 
-41.0685

>  <r_i_glide_energy>  (358) 
-34.8038

>  <r_i_glide_einternal>  (358) 
2.9999

>  <r_i_glide_intrahb_reward>  (358) 
-0

>  <i_i_glide_confnum>  (358) 
6

>  <i_i_glide_posenum>  (358) 
37

>  <r_i_glide_eff_state_penalty>  (358) 
0

>  <ligand_id>  (358) 
108

>  <original_smiles>  (358) 
O=C(COC(=O)c1cnccn1)NC12CC3CC(CC(C3)C1)C2

>  <smiles>  (358) 
[H]c1nc([H])c(C(=O)OC([H])([H])C(=O)N([H])C23C([H])([H])C4([H])C([H])([H])C([H])(C([H])([H])C([H])(C4([H])[H])C2([H])[H])C3([H])[H])nc1[H]

$$$$
108:0:1
     RDKit          3D

 44 47  0  0  1  0  0  0  0  0999 V2000
    2.2548   -4.9876    1.3761 O   0  0  0  0  0  0  0  0  0  0  0  0
    3.0712   -5.8921    1.2096 C   0  0  0  0  0  0  0  0  0  0  0  0
    4.4114   -5.5916    0.5241 C   0  0  0  0  0  0  0  0  0  0  0  0
    4.2321   -4.6490   -0.5364 O   0  0  0  0  0  0  0  0  0  0  0  0
    4.6688   -3.3712   -0.4554 C   0  0  0  0  0  0  0  0  0  0  0  0
    5.2589   -2.9042    0.5217 O   0  0  0  0  0  0  0  0  0  0  0  0
    4.3662   -2.5720   -1.6842 C   0  0  0  0  0  0  0  0  0  0  0  0
    3.9588   -3.1853   -2.8987 C   0  0  0  0  0  0  0  0  0  0  0  0
    3.6977   -2.4736   -4.0164 N   0  0  0  0  0  0  0  0  0  0  0  0
    3.8130   -1.1307   -3.9225 C   0  0  0  0  0  0  0  0  0  0  0  0
    4.2169   -0.5101   -2.7231 C   0  0  0  0  0  0  0  0  0  0  0  0
    4.5096   -1.2254   -1.6135 N   0  0  0  0  0  0  0  0  0  0  0  0
    2.8740   -7.1549    1.6390 N   0  0  0  0  0  0  0  0  0  0  0  0
    1.7529   -7.6615    2.4464 C   0  0  2  0  0  0  0  0  0  0  0  0
    0.3805   -7.3420    1.7860 C   0  0  0  0  0  0  0  0  0  0  0  0
   -0.7654   -7.8932    2.6461 C   0  0  1  0  0  0  0  0  0  0  0  0
   -0.6309   -9.4216    2.7533 C   0  0  0  0  0  0  0  0  0  0  0  0
    0.7116   -9.7643    3.4312 C   0  0  2  0  0  0  0  0  0  0  0  0
    0.7522   -9.1420    4.8431 C   0  0  0  0  0  0  0  0  0  0  0  0
    0.6319   -7.6093    4.7231 C   0  0  2  0  0  0  0  0  0  0  0  0
   -0.7059   -7.2466    4.0470 C   0  0  0  0  0  0  0  0  0  0  0  0
    1.7996   -7.0557    3.8769 C   0  0  0  0  0  0  0  0  0  0  0  0
    1.8802   -9.2050    2.5817 C   0  0  0  0  0  0  0  0  0  0  0  0
    5.1108   -5.2676    1.2931 H   0  0  0  0  0  0  0  0  0  0  0  0
    4.8151   -6.5049    0.0826 H   0  0  0  0  0  0  0  0  0  0  0  0
    3.8680   -4.2537   -3.0011 H   0  0  0  0  0  0  0  0  0  0  0  0
    3.5912   -0.5426   -4.8020 H   0  0  0  0  0  0  0  0  0  0  0  0
    4.3120    0.5642   -2.6635 H   0  0  0  0  0  0  0  0  0  0  0  0
    3.6035   -7.8217    1.4304 H   0  0  0  0  0  0  0  0  0  0  0  0
    0.2149   -6.2726    1.6789 H   0  0  0  0  0  0  0  0  0  0  0  0
    0.3462   -7.7696    0.7838 H   0  0  0  0  0  0  0  0  0  0  0  0
   -1.7142   -7.6496    2.1708 H   0  0  0  0  0  0  0  0  0  0  0  0
   -1.4688   -9.8440    3.3035 H   0  0  0  0  0  0  0  0  0  0  0  0
   -0.6746   -9.8769    1.7637 H   0  0  0  0  0  0  0  0  0  0  0  0
    0.8029  -10.8482    3.5154 H   0  0  0  0  0  0  0  0  0  0  0  0
   -0.0592   -9.5435    5.4523 H   0  0  0  0  0  0  0  0  0  0  0  0
    1.6804   -9.4134    5.3494 H   0  0  0  0  0  0  0  0  0  0  0  0
    0.6672   -7.1681    5.7201 H   0  0  0  0  0  0  0  0  0  0  0  0
   -0.7860   -6.1627    3.9725 H   0  0  0  0  0  0  0  0  0  0  0  0
   -1.5463   -7.5791    4.6543 H   0  0  0  0  0  0  0  0  0  0  0  0
    2.7491   -7.2908    4.3642 H   0  0  0  0  0  0  0  0  0  0  0  0
    1.7382   -5.9667    3.8462 H   0  0  0  0  0  0  0  0  0  0  0  0
    1.8769   -9.6798    1.5976 H   0  0  0  0  0  0  0  0  0  0  0  0
    2.8315   -9.4796    3.0471 H   0  0  0  0  0  0  0  0  0  0  0  0
  1  2  2  0
  2  3  1  0
  2 13  1  0
  3  4  1  0
  3 24  1  0
  3 25  1  0
  4  5  1  0
  5  6  2  0
  5  7  1  0
  7 12  1  0
  7  8  2  0
  8  9  1  0
  8 26  1  0
  9 10  2  0
 10 11  1  0
 10 27  1  0
 11 12  2  0
 11 28  1  0
 14 13  1  6
 13 29  1  0
 14 22  1  0
 14 23  1  0
 14 15  1  0
 15 16  1  0
 15 30  1  0
 15 31  1  0
 16 21  1  0
 16 17  1  0
 16 32  1  6
 17 18  1  0
 17 33  1  0
 17 34  1  0
 18 19  1  0
 18 23  1  0
 18 35  1  1
 19 20  1  0
 19 36  1  0
 19 37  1  0
 20 21  1  0
 20 22  1  0
 20 38  1  1
 21 39  1  0
 21 40  1  0
 22 41  1  0
 22 42  1  0
 23 43  1  0
 23 44  1  0
M  END
>  <i_m_ct_stereo_status>  (359) 
1

>  <s_m_source_file>  (359) 
/var/tmp/pbs.5076255.sched01/tmpu61_44ix/12937f0afz8.sdf

>  <i_m_source_file_index>  (359) 
24

>  <i_lp_mmshare_version>  (359) 
48012

>  <i_f3d_flags>  (359) 
0

>  <s_epik_input>  (359) 
W0NIMl0xW0NASF0oW0NIMl0yKVtDSDJdW0NASF0oW0NIMl0zKVtDSDJdW0NAQEhdMVtDSDJdQzIzW05IXUMoPU8pW0NIMl1PQyg9TyljNFtjSF1uW2NIXVtjSF1uNA==

>  <s_epik_cmdline>  (359) 
J2VwaWtfcHl0aG9uJywgJy1waHQnLCAnMi4wJywgJy1waCcsICc3LjAnLCAnLXRuJywgJzgnLCAnLW1hJywgJzIwMCcsICctaW1hZScsICc8aW5maWxlLm1hZT4nLCAnLW9tYWUnLCAnPG91dGZpbGUubWFlPic=

>  <r_lp_tautomer_probability>  (359) 
1

>  <r_epik_Ionization_Penalty>  (359) 
1.57409e-07

>  <r_epik_Ionization_Penalty_Charging>  (359) 
0

>  <r_epik_Ionization_Penalty_Neutral>  (359) 
1.57409e-07

>  <r_epik_State_Penalty>  (359) 
-0

>  <r_epik_Charging_Adjusted_Penalty>  (359) 
0

>  <i_epik_Tot_Q>  (359) 
0

>  <i_epik_Tot_abs_Q>  (359) 
0

>  <s_epik_Chemistry_Notes>  (359) 
This compound has an ester and may undergo hydrolysis at high or low pH.

>  <s_lp_Force_Field>  (359) 
OPLS3e

>  <r_lp_Energy>  (359) 
8.57473

>  <b_lp_Chiralities_Consistent>  (359) 
1

>  <s_lp_Variant>  (359) 
108:0-1

>  <s_i_glide_gridfile>  (359) 
pfpi4k_grid

>  <i_i_glide_lignum>  (359) 
24

>  <i_i_glide_rotatable_bonds>  (359) 
6

>  <r_i_docking_score>  (359) 
-3.14838

>  <r_i_glide_ligand_efficiency>  (359) 
-0.136886

>  <r_i_glide_ligand_efficiency_sa>  (359) 
-0.389286

>  <r_i_glide_ligand_efficiency_ln>  (359) 
-0.761307

>  <r_i_glide_gscore>  (359) 
-3.14838

>  <r_i_glide_lipo>  (359) 
-0.408978

>  <r_i_glide_hbond>  (359) 
-0.20409

>  <r_i_glide_metal>  (359) 
-0

>  <r_i_glide_rewards>  (359) 
-1.33097

>  <r_i_glide_evdw>  (359) 
-34.3384

>  <r_i_glide_ecoul>  (359) 
-1.57038

>  <r_i_glide_erotb>  (359) 
0.748132

>  <r_i_glide_esite>  (359) 
0

>  <r_i_glide_emodel>  (359) 
-42.1688

>  <r_i_glide_energy>  (359) 
-35.9088

>  <r_i_glide_einternal>  (359) 
2.07873

>  <r_i_glide_intrahb_reward>  (359) 
-0

>  <i_i_glide_confnum>  (359) 
4

>  <i_i_glide_posenum>  (359) 
38

>  <r_i_glide_eff_state_penalty>  (359) 
0

>  <ligand_id>  (359) 
108

>  <original_smiles>  (359) 
O=C(COC(=O)c1cnccn1)NC12CC3CC(CC(C3)C1)C2

>  <smiles>  (359) 
[H]c1nc([H])c(C(=O)OC([H])([H])C(=O)N([H])C23C([H])([H])C4([H])C([H])([H])C([H])(C([H])([H])C([H])(C4([H])[H])C2([H])[H])C3([H])[H])nc1[H]

$$$$
108:0:2
     RDKit          3D

 44 47  0  0  1  0  0  0  0  0999 V2000
    1.5621   -5.8659    0.6700 O   0  0  0  0  0  0  0  0  0  0  0  0
    2.4998   -5.8284    1.4675 C   0  0  0  0  0  0  0  0  0  0  0  0
    3.7308   -4.9684    1.1670 C   0  0  0  0  0  0  0  0  0  0  0  0
    3.4856   -4.1869    0.0035 O   0  0  0  0  0  0  0  0  0  0  0  0
    4.3240   -3.1939   -0.3533 C   0  0  0  0  0  0  0  0  0  0  0  0
    5.3236   -2.8749    0.2960 O   0  0  0  0  0  0  0  0  0  0  0  0
    3.9061   -2.5036   -1.6063 C   0  0  0  0  0  0  0  0  0  0  0  0
    4.5395   -1.2998   -2.0006 C   0  0  0  0  0  0  0  0  0  0  0  0
    4.2133   -0.6533   -3.1433 N   0  0  0  0  0  0  0  0  0  0  0  0
    3.2456   -1.2149   -3.9018 C   0  0  0  0  0  0  0  0  0  0  0  0
    2.6163   -2.4182   -3.5202 C   0  0  0  0  0  0  0  0  0  0  0  0
    2.9332   -3.0548   -2.3753 N   0  0  0  0  0  0  0  0  0  0  0  0
    2.5171   -6.5236    2.6224 N   0  0  0  0  0  0  0  0  0  0  0  0
    1.5172   -7.4893    3.1032 C   0  0  2  0  0  0  0  0  0  0  0  0
    1.8912   -7.9332    4.5476 C   0  0  0  0  0  0  0  0  0  0  0  0
    0.8586   -8.9592    5.0666 C   0  0  1  0  0  0  0  0  0  0  0  0
   -0.5414   -8.3109    5.0787 C   0  0  0  0  0  0  0  0  0  0  0  0
   -0.9261   -7.8887    3.6531 C   0  0  2  0  0  0  0  0  0  0  0  0
   -0.9292   -9.1227    2.7285 C   0  0  0  0  0  0  0  0  0  0  0  0
    0.4757   -9.7653    2.7260 C   0  0  2  0  0  0  0  0  0  0  0  0
    0.8670  -10.1974    4.1497 C   0  0  0  0  0  0  0  0  0  0  0  0
    1.5093   -8.7496    2.1982 C   0  0  0  0  0  0  0  0  0  0  0  0
    0.0930   -6.8610    3.1384 C   0  0  0  0  0  0  0  0  0  0  0  0
    3.9479   -4.3422    2.0350 H   0  0  0  0  0  0  0  0  0  0  0  0
    4.5860   -5.6209    0.9988 H   0  0  0  0  0  0  0  0  0  0  0  0
    5.3155   -0.8403   -1.3990 H   0  0  0  0  0  0  0  0  0  0  0  0
    2.9714   -0.7021   -4.8131 H   0  0  0  0  0  0  0  0  0  0  0  0
    1.8387   -2.8639   -4.1291 H   0  0  0  0  0  0  0  0  0  0  0  0
    3.3312   -6.3962    3.2062 H   0  0  0  0  0  0  0  0  0  0  0  0
    2.8886   -8.3804    4.5710 H   0  0  0  0  0  0  0  0  0  0  0  0
    1.9217   -7.0733    5.2208 H   0  0  0  0  0  0  0  0  0  0  0  0
    1.1194   -9.2668    6.0784 H   0  0  0  0  0  0  0  0  0  0  0  0
   -1.2776   -9.0105    5.4767 H   0  0  0  0  0  0  0  0  0  0  0  0
   -0.5404   -7.4365    5.7295 H   0  0  0  0  0  0  0  0  0  0  0  0
   -1.9193   -7.4424    3.6623 H   0  0  0  0  0  0  0  0  0  0  0  0
   -1.6726   -9.8465    3.0642 H   0  0  0  0  0  0  0  0  0  0  0  0
   -1.2129   -8.8388    1.7143 H   0  0  0  0  0  0  0  0  0  0  0  0
    0.4669  -10.6420    2.0820 H   0  0  0  0  0  0  0  0  0  0  0  0
    1.8547  -10.6580    4.1441 H   0  0  0  0  0  0  0  0  0  0  0  0
    0.1832  -10.9575    4.5237 H   0  0  0  0  0  0  0  0  0  0  0  0
    1.2672   -8.4792    1.1724 H   0  0  0  0  0  0  0  0  0  0  0  0
    2.4998   -9.2077    2.1660 H   0  0  0  0  0  0  0  0  0  0  0  0
    0.0921   -5.9704    3.7693 H   0  0  0  0  0  0  0  0  0  0  0  0
   -0.2418   -6.5560    2.1498 H   0  0  0  0  0  0  0  0  0  0  0  0
  1  2  2  0
  2  3  1  0
  2 13  1  0
  3  4  1  0
  3 24  1  0
  3 25  1  0
  4  5  1  0
  5  6  2  0
  5  7  1  0
  7 12  1  0
  7  8  2  0
  8  9  1  0
  8 26  1  0
  9 10  2  0
 10 11  1  0
 10 27  1  0
 11 12  2  0
 11 28  1  0
 14 13  1  6
 13 29  1  0
 14 22  1  0
 14 23  1  0
 14 15  1  0
 15 16  1  0
 15 30  1  0
 15 31  1  0
 16 21  1  0
 16 17  1  0
 16 32  1  1
 17 18  1  0
 17 33  1  0
 17 34  1  0
 18 19  1  0
 18 23  1  0
 18 35  1  1
 19 20  1  0
 19 36  1  0
 19 37  1  0
 20 21  1  0
 20 22  1  0
 20 38  1  6
 21 39  1  0
 21 40  1  0
 22 41  1  0
 22 42  1  0
 23 43  1  0
 23 44  1  0
M  END
>  <i_m_ct_stereo_status>  (360) 
1

>  <s_m_source_file>  (360) 
/var/tmp/pbs.5076255.sched01/tmpu61_44ix/12937f0afz8.sdf

>  <i_m_source_file_index>  (360) 
24

>  <i_lp_mmshare_version>  (360) 
48012

>  <i_f3d_flags>  (360) 
0

>  <s_epik_input>  (360) 
W0NIMl0xW0NASF0oW0NIMl0yKVtDSDJdW0NASF0oW0NIMl0zKVtDSDJdW0NAQEhdMVtDSDJdQzIzW05IXUMoPU8pW0NIMl1PQyg9TyljNFtjSF1uW2NIXVtjSF1uNA==

>  <s_epik_cmdline>  (360) 
J2VwaWtfcHl0aG9uJywgJy1waHQnLCAnMi4wJywgJy1waCcsICc3LjAnLCAnLXRuJywgJzgnLCAnLW1hJywgJzIwMCcsICctaW1hZScsICc8aW5maWxlLm1hZT4nLCAnLW9tYWUnLCAnPG91dGZpbGUubWFlPic=

>  <r_lp_tautomer_probability>  (360) 
1

>  <r_epik_Ionization_Penalty>  (360) 
1.57409e-07

>  <r_epik_Ionization_Penalty_Charging>  (360) 
0

>  <r_epik_Ionization_Penalty_Neutral>  (360) 
1.57409e-07

>  <r_epik_State_Penalty>  (360) 
-0

>  <r_epik_Charging_Adjusted_Penalty>  (360) 
0

>  <i_epik_Tot_Q>  (360) 
0

>  <i_epik_Tot_abs_Q>  (360) 
0

>  <s_epik_Chemistry_Notes>  (360) 
This compound has an ester and may undergo hydrolysis at high or low pH.

>  <s_lp_Force_Field>  (360) 
OPLS3e

>  <r_lp_Energy>  (360) 
8.57473

>  <b_lp_Chiralities_Consistent>  (360) 
1

>  <s_lp_Variant>  (360) 
108:0-1

>  <s_i_glide_gridfile>  (360) 
pfpi4k_grid

>  <i_i_glide_lignum>  (360) 
24

>  <i_i_glide_rotatable_bonds>  (360) 
6

>  <r_i_docking_score>  (360) 
-3.14704

>  <r_i_glide_ligand_efficiency>  (360) 
-0.136828

>  <r_i_glide_ligand_efficiency_sa>  (360) 
-0.38912

>  <r_i_glide_ligand_efficiency_ln>  (360) 
-0.760983

>  <r_i_glide_gscore>  (360) 
-3.14704

>  <r_i_glide_lipo>  (360) 
-0.440621

>  <r_i_glide_hbond>  (360) 
-0.147647

>  <r_i_glide_metal>  (360) 
-0

>  <r_i_glide_rewards>  (360) 
-1.29672

>  <r_i_glide_evdw>  (360) 
-35.1573

>  <r_i_glide_ecoul>  (360) 
-1.53385

>  <r_i_glide_erotb>  (360) 
0.748132

>  <r_i_glide_esite>  (360) 
-0.0222424

>  <r_i_glide_emodel>  (360) 
-43.1146

>  <r_i_glide_energy>  (360) 
-36.6911

>  <r_i_glide_einternal>  (360) 
2.01129

>  <r_i_glide_intrahb_reward>  (360) 
-0

>  <i_i_glide_confnum>  (360) 
6

>  <i_i_glide_posenum>  (360) 
33

>  <r_i_glide_eff_state_penalty>  (360) 
0

>  <ligand_id>  (360) 
108

>  <original_smiles>  (360) 
O=C(COC(=O)c1cnccn1)NC12CC3CC(CC(C3)C1)C2

>  <smiles>  (360) 
[H]c1nc([H])c(C(=O)OC([H])([H])C(=O)N([H])C23C([H])([H])C4([H])C([H])([H])C([H])(C([H])([H])C([H])(C4([H])[H])C2([H])[H])C3([H])[H])nc1[H]

$$$$
109:0:0
     RDKit          3D

 30 32  0  0  1  0  0  0  0  0999 V2000
   -1.7159    2.5342    2.9068 C   0  0  0  0  0  0  0  0  0  0  0  0
   -0.9305    2.4247    4.2242 C   0  0  0  0  0  0  0  0  0  0  0  0
   -1.3500    3.5175    5.2187 C   0  0  0  0  0  0  0  0  0  0  0  0
   -1.1228    1.0402    4.8230 C   0  0  0  0  0  0  0  0  0  0  0  0
   -0.2932    0.0292    4.4924 C   0  0  0  0  0  0  0  0  0  0  0  0
   -0.4171   -1.2171    5.1451 N   0  0  0  0  0  0  0  0  0  0  0  0
    0.4564   -2.2074    5.3846 C   0  0  0  0  0  0  0  0  0  0  0  0
   -0.1052   -3.2217    6.0240 N   0  0  0  0  0  0  0  0  0  0  0  0
   -1.4030   -2.7934    6.1970 N   0  0  0  0  0  0  0  0  0  0  0  0
   -1.5982   -1.6161    5.6828 N   0  0  0  0  0  0  0  0  0  0  0  0
    0.8066    0.3006    3.5539 C   0  0  0  0  0  0  0  0  0  0  0  0
    1.4830   -0.7174    2.8371 C   0  0  0  0  0  0  0  0  0  0  0  0
    2.5426   -0.4004    1.9703 C   0  0  0  0  0  0  0  0  0  0  0  0
    3.2519   -1.4525    1.2641 C   0  0  0  0  0  0  0  0  0  0  0  0
    3.8169   -2.2922    0.7073 N   0  0  0  0  0  0  0  0  0  0  0  0
    2.9108    0.9462    1.7989 C   0  0  0  0  0  0  0  0  0  0  0  0
    2.2153    1.9720    2.4673 C   0  0  0  0  0  0  0  0  0  0  0  0
    1.1495    1.6555    3.3275 C   0  0  0  0  0  0  0  0  0  0  0  0
    0.4468    2.6776    3.9269 O   0  0  0  0  0  0  0  0  0  0  0  0
   -2.7895    2.4191    3.0595 H   0  0  0  0  0  0  0  0  0  0  0  0
   -1.3986    1.7591    2.2040 H   0  0  0  0  0  0  0  0  0  0  0  0
   -1.5303    3.4949    2.4271 H   0  0  0  0  0  0  0  0  0  0  0  0
   -2.4040    3.4372    5.4881 H   0  0  0  0  0  0  0  0  0  0  0  0
   -1.1849    4.5071    4.7940 H   0  0  0  0  0  0  0  0  0  0  0  0
   -0.7601    3.4581    6.1354 H   0  0  0  0  0  0  0  0  0  0  0  0
   -1.9186    0.9305    5.5453 H   0  0  0  0  0  0  0  0  0  0  0  0
    1.5069   -2.1924    5.1187 H   0  0  0  0  0  0  0  0  0  0  0  0
    1.1938   -1.7518    2.9281 H   0  0  0  0  0  0  0  0  0  0  0  0
    3.7083    1.1888    1.1181 H   0  0  0  0  0  0  0  0  0  0  0  0
    2.4726    3.0076    2.2906 H   0  0  0  0  0  0  0  0  0  0  0  0
  1  2  1  0
  1 20  1  0
  1 21  1  0
  1 22  1  0
  2 19  1  0
  2  3  1  0
  2  4  1  0
  3 23  1  0
  3 24  1  0
  3 25  1  0
  4  5  2  0
  4 26  1  0
  5  6  1  0
  5 11  1  0
  6 10  1  0
  6  7  1  0
  7  8  2  0
  7 27  1  0
  8  9  1  0
  9 10  2  0
 11 18  2  0
 11 12  1  0
 12 13  2  0
 12 28  1  0
 13 14  1  0
 13 16  1  0
 14 15  3  0
 16 17  2  0
 16 29  1  0
 17 18  1  0
 17 30  1  0
 18 19  1  0
M  END
>  <i_m_ct_stereo_status>  (361) 
1

>  <s_m_source_file>  (361) 
/var/tmp/pbs.5076255.sched01/tmpu61_44ix/12937f0afz8.sdf

>  <i_m_source_file_index>  (361) 
25

>  <i_lp_mmshare_version>  (361) 
48012

>  <i_f3d_flags>  (361) 
0

>  <s_epik_input>  (361) 
TiNDYyhbY0hdMSlbY0hdW2NIXWMoYzEyKU9DKFtDSDNdKShbQ0gzXSlbQ0hdPUMybjNbY0hdbm5uMw==

>  <s_epik_cmdline>  (361) 
J2VwaWtfcHl0aG9uJywgJy1waHQnLCAnMi4wJywgJy1waCcsICc3LjAnLCAnLXRuJywgJzgnLCAnLW1hJywgJzIwMCcsICctaW1hZScsICc8aW5maWxlLm1hZT4nLCAnLW9tYWUnLCAnPG91dGZpbGUubWFlPic=

>  <r_lp_tautomer_probability>  (361) 
1

>  <r_epik_Ionization_Penalty>  (361) 
2.44262e-10

>  <r_epik_Ionization_Penalty_Charging>  (361) 
0

>  <r_epik_Ionization_Penalty_Neutral>  (361) 
2.44262e-10

>  <r_epik_State_Penalty>  (361) 
-0

>  <r_epik_Charging_Adjusted_Penalty>  (361) 
0

>  <i_epik_Tot_Q>  (361) 
0

>  <i_epik_Tot_abs_Q>  (361) 
0

>  <s_lp_Force_Field>  (361) 
OPLS3e

>  <r_lp_Energy>  (361) 
31.1764

>  <b_lp_Chiralities_Consistent>  (361) 
1

>  <s_lp_Variant>  (361) 
109:0-1

>  <s_i_glide_gridfile>  (361) 
pfpi4k_grid

>  <i_i_glide_lignum>  (361) 
25

>  <i_i_glide_rotatable_bonds>  (361) 
2

>  <r_i_docking_score>  (361) 
-3.09935

>  <r_i_glide_ligand_efficiency>  (361) 
-0.163124

>  <r_i_glide_ligand_efficiency_sa>  (361) 
-0.43528

>  <r_i_glide_ligand_efficiency_ln>  (361) 
-0.785752

>  <r_i_glide_gscore>  (361) 
-3.09935

>  <r_i_glide_lipo>  (361) 
-0.0655588

>  <r_i_glide_hbond>  (361) 
0

>  <r_i_glide_metal>  (361) 
-0

>  <r_i_glide_rewards>  (361) 
-1.68232

>  <r_i_glide_evdw>  (361) 
-20.5231

>  <r_i_glide_ecoul>  (361) 
-2.76682

>  <r_i_glide_erotb>  (361) 
0.273846

>  <r_i_glide_esite>  (361) 
-0.184139

>  <r_i_glide_emodel>  (361) 
-27.9029

>  <r_i_glide_energy>  (361) 
-23.2899

>  <r_i_glide_einternal>  (361) 
0.256642

>  <r_i_glide_intrahb_reward>  (361) 
-0

>  <i_i_glide_confnum>  (361) 
5

>  <i_i_glide_posenum>  (361) 
7

>  <r_i_glide_eff_state_penalty>  (361) 
0

>  <ligand_id>  (361) 
109

>  <original_smiles>  (361) 
CC1(C)C=C(n2cnnn2)c2cc(C#N)ccc2O1

>  <smiles>  (361) 
[H]C1=C(n2nnnc2[H])c2c([H])c(C#N)c([H])c([H])c2OC1(C([H])([H])[H])C([H])([H])[H]

$$$$
109:0:1
     RDKit          3D

 30 32  0  0  1  0  0  0  0  0999 V2000
    3.6192   -0.1554    3.1232 C   0  0  0  0  0  0  0  0  0  0  0  0
    2.5269   -1.0399    2.4983 C   0  0  0  0  0  0  0  0  0  0  0  0
    3.0983   -1.9490    1.3977 C   0  0  0  0  0  0  0  0  0  0  0  0
    1.8455   -1.8713    3.5759 C   0  0  0  0  0  0  0  0  0  0  0  0
    0.7652   -1.4191    4.2429 C   0  0  0  0  0  0  0  0  0  0  0  0
    0.1647   -2.3046    5.1774 N   0  0  0  0  0  0  0  0  0  0  0  0
    0.5970   -3.4311    5.7569 C   0  0  0  0  0  0  0  0  0  0  0  0
   -0.2988   -3.9467    6.5860 N   0  0  0  0  0  0  0  0  0  0  0  0
   -1.3554   -3.0708    6.4812 N   0  0  0  0  0  0  0  0  0  0  0  0
   -1.0925   -2.0995    5.6566 N   0  0  0  0  0  0  0  0  0  0  0  0
    0.2564   -0.0725    3.8871 C   0  0  0  0  0  0  0  0  0  0  0  0
   -0.5717    0.7078    4.7265 C   0  0  0  0  0  0  0  0  0  0  0  0
   -1.0236    1.9755    4.3143 C   0  0  0  0  0  0  0  0  0  0  0  0
   -1.8924    2.7415    5.1887 C   0  0  0  0  0  0  0  0  0  0  0  0
   -2.5863    3.3454    5.8884 N   0  0  0  0  0  0  0  0  0  0  0  0
   -0.6332    2.4883    3.0649 C   0  0  0  0  0  0  0  0  0  0  0  0
    0.2274    1.7433    2.2401 C   0  0  0  0  0  0  0  0  0  0  0  0
    0.6964    0.4874    2.6605 C   0  0  0  0  0  0  0  0  0  0  0  0
    1.5997   -0.1641    1.8552 O   0  0  0  0  0  0  0  0  0  0  0  0
    4.4099   -0.7477    3.5883 H   0  0  0  0  0  0  0  0  0  0  0  0
    3.1964    0.4907    3.8955 H   0  0  0  0  0  0  0  0  0  0  0  0
    4.0679    0.5011    2.3742 H   0  0  0  0  0  0  0  0  0  0  0  0
    3.8541   -2.6332    1.7881 H   0  0  0  0  0  0  0  0  0  0  0  0
    3.5596   -1.3599    0.6044 H   0  0  0  0  0  0  0  0  0  0  0  0
    2.3124   -2.5466    0.9346 H   0  0  0  0  0  0  0  0  0  0  0  0
    2.2624   -2.8535    3.7355 H   0  0  0  0  0  0  0  0  0  0  0  0
    1.5719   -3.8677    5.6040 H   0  0  0  0  0  0  0  0  0  0  0  0
   -0.8618    0.3612    5.7055 H   0  0  0  0  0  0  0  0  0  0  0  0
   -0.9656    3.4660    2.7421 H   0  0  0  0  0  0  0  0  0  0  0  0
    0.5544    2.1423    1.2890 H   0  0  0  0  0  0  0  0  0  0  0  0
  1  2  1  0
  1 20  1  0
  1 21  1  0
  1 22  1  0
  2 19  1  0
  2  3  1  0
  2  4  1  0
  3 23  1  0
  3 24  1  0
  3 25  1  0
  4  5  2  0
  4 26  1  0
  5  6  1  0
  5 11  1  0
  6 10  1  0
  6  7  1  0
  7  8  2  0
  7 27  1  0
  8  9  1  0
  9 10  2  0
 11 18  2  0
 11 12  1  0
 12 13  2  0
 12 28  1  0
 13 14  1  0
 13 16  1  0
 14 15  3  0
 16 17  2  0
 16 29  1  0
 17 18  1  0
 17 30  1  0
 18 19  1  0
M  END
>  <i_m_ct_stereo_status>  (362) 
1

>  <s_m_source_file>  (362) 
/var/tmp/pbs.5076255.sched01/tmpu61_44ix/12937f0afz8.sdf

>  <i_m_source_file_index>  (362) 
25

>  <i_lp_mmshare_version>  (362) 
48012

>  <i_f3d_flags>  (362) 
0

>  <s_epik_input>  (362) 
TiNDYyhbY0hdMSlbY0hdW2NIXWMoYzEyKU9DKFtDSDNdKShbQ0gzXSlbQ0hdPUMybjNbY0hdbm5uMw==

>  <s_epik_cmdline>  (362) 
J2VwaWtfcHl0aG9uJywgJy1waHQnLCAnMi4wJywgJy1waCcsICc3LjAnLCAnLXRuJywgJzgnLCAnLW1hJywgJzIwMCcsICctaW1hZScsICc8aW5maWxlLm1hZT4nLCAnLW9tYWUnLCAnPG91dGZpbGUubWFlPic=

>  <r_lp_tautomer_probability>  (362) 
1

>  <r_epik_Ionization_Penalty>  (362) 
2.44262e-10

>  <r_epik_Ionization_Penalty_Charging>  (362) 
0

>  <r_epik_Ionization_Penalty_Neutral>  (362) 
2.44262e-10

>  <r_epik_State_Penalty>  (362) 
-0

>  <r_epik_Charging_Adjusted_Penalty>  (362) 
0

>  <i_epik_Tot_Q>  (362) 
0

>  <i_epik_Tot_abs_Q>  (362) 
0

>  <s_lp_Force_Field>  (362) 
OPLS3e

>  <r_lp_Energy>  (362) 
31.1764

>  <b_lp_Chiralities_Consistent>  (362) 
1

>  <s_lp_Variant>  (362) 
109:0-1

>  <s_i_glide_gridfile>  (362) 
pfpi4k_grid

>  <i_i_glide_lignum>  (362) 
25

>  <i_i_glide_rotatable_bonds>  (362) 
2

>  <r_i_docking_score>  (362) 
-3.01055

>  <r_i_glide_ligand_efficiency>  (362) 
-0.15845

>  <r_i_glide_ligand_efficiency_sa>  (362) 
-0.422808

>  <r_i_glide_ligand_efficiency_ln>  (362) 
-0.763239

>  <r_i_glide_gscore>  (362) 
-3.01055

>  <r_i_glide_lipo>  (362) 
-0.0156437

>  <r_i_glide_hbond>  (362) 
0

>  <r_i_glide_metal>  (362) 
-0

>  <r_i_glide_rewards>  (362) 
-1.71

>  <r_i_glide_evdw>  (362) 
-20.5974

>  <r_i_glide_ecoul>  (362) 
-2.79009

>  <r_i_glide_erotb>  (362) 
0.273846

>  <r_i_glide_esite>  (362) 
-0.110369

>  <r_i_glide_emodel>  (362) 
-27.9762

>  <r_i_glide_energy>  (362) 
-23.3875

>  <r_i_glide_einternal>  (362) 
0.122344

>  <r_i_glide_intrahb_reward>  (362) 
-0

>  <i_i_glide_confnum>  (362) 
1

>  <i_i_glide_posenum>  (362) 
21

>  <r_i_glide_eff_state_penalty>  (362) 
0

>  <ligand_id>  (362) 
109

>  <original_smiles>  (362) 
CC1(C)C=C(n2cnnn2)c2cc(C#N)ccc2O1

>  <smiles>  (362) 
[H]C1=C(n2nnnc2[H])c2c([H])c(C#N)c([H])c([H])c2OC1(C([H])([H])[H])C([H])([H])[H]

$$$$
109:0:2
     RDKit          3D

 30 32  0  0  1  0  0  0  0  0999 V2000
    3.1273    1.2478    3.7524 C   0  0  0  0  0  0  0  0  0  0  0  0
    2.1265    0.3707    2.9820 C   0  0  0  0  0  0  0  0  0  0  0  0
    2.7233   -0.1282    1.6603 C   0  0  0  0  0  0  0  0  0  0  0  0
    1.6988   -0.8038    3.8432 C   0  0  0  0  0  0  0  0  0  0  0  0
    0.6356   -0.7185    4.6640 C   0  0  0  0  0  0  0  0  0  0  0  0
    0.2723   -1.8917    5.3717 N   0  0  0  0  0  0  0  0  0  0  0  0
    0.9509   -3.0047    5.6825 C   0  0  0  0  0  0  0  0  0  0  0  0
    0.2160   -3.8602    6.3762 N   0  0  0  0  0  0  0  0  0  0  0  0
   -0.9997   -3.2184    6.4809 N   0  0  0  0  0  0  0  0  0  0  0  0
   -0.9803   -2.0650    5.8757 N   0  0  0  0  0  0  0  0  0  0  0  0
   -0.1130    0.5598    4.7006 C   0  0  0  0  0  0  0  0  0  0  0  0
   -0.9537    0.9529    5.7691 C   0  0  0  0  0  0  0  0  0  0  0  0
   -1.6280    2.1901    5.7359 C   0  0  0  0  0  0  0  0  0  0  0  0
   -2.5074    2.5621    6.8323 C   0  0  0  0  0  0  0  0  0  0  0  0
   -3.2084    2.8526    7.7022 N   0  0  0  0  0  0  0  0  0  0  0  0
   -1.4522    3.0554    4.6410 C   0  0  0  0  0  0  0  0  0  0  0  0
   -0.5822    2.6964    3.5953 C   0  0  0  0  0  0  0  0  0  0  0  0
    0.1065    1.4700    3.6372 C   0  0  0  0  0  0  0  0  0  0  0  0
    1.0085    1.1924    2.6355 O   0  0  0  0  0  0  0  0  0  0  0  0
    4.0421    0.7042    3.9953 H   0  0  0  0  0  0  0  0  0  0  0  0
    2.6948    1.5998    4.6905 H   0  0  0  0  0  0  0  0  0  0  0  0
    3.3966    2.1328    3.1740 H   0  0  0  0  0  0  0  0  0  0  0  0
    3.6090   -0.7469    1.8128 H   0  0  0  0  0  0  0  0  0  0  0  0
    3.0025    0.7059    1.0176 H   0  0  0  0  0  0  0  0  0  0  0  0
    1.9963   -0.7262    1.1131 H   0  0  0  0  0  0  0  0  0  0  0  0
    2.2688   -1.7138    3.7255 H   0  0  0  0  0  0  0  0  0  0  0  0
    1.9872   -3.1869    5.4358 H   0  0  0  0  0  0  0  0  0  0  0  0
   -1.0761    0.3214    6.6342 H   0  0  0  0  0  0  0  0  0  0  0  0
   -1.9608    4.0068    4.6113 H   0  0  0  0  0  0  0  0  0  0  0  0
   -0.4106    3.3702    2.7681 H   0  0  0  0  0  0  0  0  0  0  0  0
  1  2  1  0
  1 20  1  0
  1 21  1  0
  1 22  1  0
  2 19  1  0
  2  3  1  0
  2  4  1  0
  3 23  1  0
  3 24  1  0
  3 25  1  0
  4  5  2  0
  4 26  1  0
  5  6  1  0
  5 11  1  0
  6 10  1  0
  6  7  1  0
  7  8  2  0
  7 27  1  0
  8  9  1  0
  9 10  2  0
 11 18  2  0
 11 12  1  0
 12 13  2  0
 12 28  1  0
 13 14  1  0
 13 16  1  0
 14 15  3  0
 16 17  2  0
 16 29  1  0
 17 18  1  0
 17 30  1  0
 18 19  1  0
M  END
>  <i_m_ct_stereo_status>  (363) 
1

>  <s_m_source_file>  (363) 
/var/tmp/pbs.5076255.sched01/tmpu61_44ix/12937f0afz8.sdf

>  <i_m_source_file_index>  (363) 
25

>  <i_lp_mmshare_version>  (363) 
48012

>  <i_f3d_flags>  (363) 
0

>  <s_epik_input>  (363) 
TiNDYyhbY0hdMSlbY0hdW2NIXWMoYzEyKU9DKFtDSDNdKShbQ0gzXSlbQ0hdPUMybjNbY0hdbm5uMw==

>  <s_epik_cmdline>  (363) 
J2VwaWtfcHl0aG9uJywgJy1waHQnLCAnMi4wJywgJy1waCcsICc3LjAnLCAnLXRuJywgJzgnLCAnLW1hJywgJzIwMCcsICctaW1hZScsICc8aW5maWxlLm1hZT4nLCAnLW9tYWUnLCAnPG91dGZpbGUubWFlPic=

>  <r_lp_tautomer_probability>  (363) 
1

>  <r_epik_Ionization_Penalty>  (363) 
2.44262e-10

>  <r_epik_Ionization_Penalty_Charging>  (363) 
0

>  <r_epik_Ionization_Penalty_Neutral>  (363) 
2.44262e-10

>  <r_epik_State_Penalty>  (363) 
-0

>  <r_epik_Charging_Adjusted_Penalty>  (363) 
0

>  <i_epik_Tot_Q>  (363) 
0

>  <i_epik_Tot_abs_Q>  (363) 
0

>  <s_lp_Force_Field>  (363) 
OPLS3e

>  <r_lp_Energy>  (363) 
31.1764

>  <b_lp_Chiralities_Consistent>  (363) 
1

>  <s_lp_Variant>  (363) 
109:0-1

>  <s_i_glide_gridfile>  (363) 
pfpi4k_grid

>  <i_i_glide_lignum>  (363) 
25

>  <i_i_glide_rotatable_bonds>  (363) 
2

>  <r_i_docking_score>  (363) 
-2.95727

>  <r_i_glide_ligand_efficiency>  (363) 
-0.155646

>  <r_i_glide_ligand_efficiency_sa>  (363) 
-0.415326

>  <r_i_glide_ligand_efficiency_ln>  (363) 
-0.749732

>  <r_i_glide_gscore>  (363) 
-2.95727

>  <r_i_glide_lipo>  (363) 
0

>  <r_i_glide_hbond>  (363) 
0

>  <r_i_glide_metal>  (363) 
-0

>  <r_i_glide_rewards>  (363) 
-1.86262

>  <r_i_glide_evdw>  (363) 
-20.4328

>  <r_i_glide_ecoul>  (363) 
-1.60907

>  <r_i_glide_erotb>  (363) 
0.273846

>  <r_i_glide_esite>  (363) 
-0.105498

>  <r_i_glide_emodel>  (363) 
-26.616

>  <r_i_glide_energy>  (363) 
-22.0418

>  <r_i_glide_einternal>  (363) 
0.0208184

>  <r_i_glide_intrahb_reward>  (363) 
-0

>  <i_i_glide_confnum>  (363) 
1

>  <i_i_glide_posenum>  (363) 
2

>  <r_i_glide_eff_state_penalty>  (363) 
0

>  <ligand_id>  (363) 
109

>  <original_smiles>  (363) 
CC1(C)C=C(n2cnnn2)c2cc(C#N)ccc2O1

>  <smiles>  (363) 
[H]C1=C(n2nnnc2[H])c2c([H])c(C#N)c([H])c([H])c2OC1(C([H])([H])[H])C([H])([H])[H]

$$$$
112:0:0
     RDKit          3D

 78 81  0  0  1  0  0  0  0  0999 V2000
   -0.1728   -7.9669    2.0560 C   0  0  0  0  0  0  0  0  0  0  0  0
   -0.5427   -8.6472    3.3649 C   0  0  0  0  0  0  0  0  0  0  0  0
   -1.8558   -8.1532    3.9440 C   0  0  0  0  0  0  0  0  0  0  0  0
    0.1915   -9.5885    3.9830 C   0  0  0  0  0  0  0  0  0  0  0  0
    1.5277  -10.1633    3.5398 C   0  0  0  0  0  0  0  0  0  0  0  0
    2.6926   -9.3924    4.1680 C   0  0  0  0  0  0  0  0  0  0  0  0
    4.0614   -9.5255    3.4476 C   0  0  2  0  0  0  0  0  0  0  0  0
    4.7891  -10.7846    3.9571 C   0  0  0  0  0  0  0  0  0  0  0  0
    4.9541   -8.2460    3.5459 C   0  0  2  0  0  0  0  0  0  0  0  0
    5.0256   -7.5940    4.9562 C   0  0  0  0  0  0  0  0  0  0  0  0
    5.1850   -6.0848    4.7380 C   0  0  0  0  0  0  0  0  0  0  0  0
    5.5061   -5.9528    3.2535 C   0  0  2  0  0  0  0  0  0  0  0  0
    5.3891   -4.5929    2.5654 C   0  0  0  0  0  0  0  0  0  0  0  0
    5.3985   -3.4188    3.2242 C   0  0  0  0  0  0  0  0  0  0  0  0
    5.4042   -2.0521    2.5630 C   0  0  0  0  0  0  0  0  0  0  0  0
    5.2392   -2.0736    1.0169 C   0  0  2  0  0  0  0  0  0  0  0  0
    3.7740   -1.7070    0.5354 C   0  0  0  0  0  0  0  0  0  0  0  0
    2.6846   -2.6244    1.1353 C   0  0  0  0  0  0  0  0  0  0  0  0
    3.4333   -0.2574    0.9711 C   0  0  0  0  0  0  0  0  0  0  0  0
    3.6809   -1.7890   -1.0261 C   0  0  1  0  0  0  0  0  0  0  0  0
    4.3582   -0.7200   -1.6564 O   0  0  0  0  0  0  0  0  0  0  0  0
    4.2541   -3.0834   -1.6049 C   0  0  0  0  0  0  0  0  0  0  0  0
    5.7080   -3.2829   -1.1706 C   0  0  0  0  0  0  0  0  0  0  0  0
    5.9141   -3.3385    0.3700 C   0  0  1  0  0  0  0  0  0  0  0  0
    7.4492   -3.2676    0.5838 C   0  0  0  0  0  0  0  0  0  0  0  0
    5.3581   -4.6490    1.0288 C   0  0  1  0  0  0  0  0  0  0  0  0
    5.9637   -5.9913    0.5430 C   0  0  0  0  0  0  0  0  0  0  0  0
    5.2691   -7.2584    1.1250 C   0  0  0  0  0  0  0  0  0  0  0  0
    4.7038   -7.0638    2.5607 C   0  0  1  0  0  0  0  0  0  0  0  0
    3.1965   -6.7044    2.4829 C   0  0  0  0  0  0  0  0  0  0  0  0
    0.0501   -6.9134    2.2343 H   0  0  0  0  0  0  0  0  0  0  0  0
   -0.9998   -8.0278    1.3511 H   0  0  0  0  0  0  0  0  0  0  0  0
    0.6908   -8.4181    1.5766 H   0  0  0  0  0  0  0  0  0  0  0  0
   -1.8224   -7.0787    4.1319 H   0  0  0  0  0  0  0  0  0  0  0  0
   -2.0936   -8.6540    4.8825 H   0  0  0  0  0  0  0  0  0  0  0  0
   -2.6563   -8.3554    3.2356 H   0  0  0  0  0  0  0  0  0  0  0  0
   -0.1799   -9.9784    4.9239 H   0  0  0  0  0  0  0  0  0  0  0  0
    1.5708  -11.2167    3.8005 H   0  0  0  0  0  0  0  0  0  0  0  0
    1.6046  -10.1404    2.4561 H   0  0  0  0  0  0  0  0  0  0  0  0
    2.3989   -8.3137    4.1946 H   0  0  0  0  0  0  0  0  0  0  0  0
    2.7858   -9.6883    5.2135 H   0  0  0  0  0  0  0  0  0  0  0  0
    3.8785   -9.6987    2.3895 H   0  0  0  0  0  0  0  0  0  0  0  0
    5.0962  -10.6774    4.9957 H   0  0  0  0  0  0  0  0  0  0  0  0
    5.6807  -11.0051    3.3736 H   0  0  0  0  0  0  0  0  0  0  0  0
    4.1488  -11.6636    3.9009 H   0  0  0  0  0  0  0  0  0  0  0  0
    5.9675   -8.5797    3.3227 H   0  0  0  0  0  0  0  0  0  0  0  0
    4.1337   -7.7623    5.5580 H   0  0  0  0  0  0  0  0  0  0  0  0
    5.8648   -8.0112    5.5189 H   0  0  0  0  0  0  0  0  0  0  0  0
    4.2451   -5.5778    4.9701 H   0  0  0  0  0  0  0  0  0  0  0  0
    5.9624   -5.6554    5.3667 H   0  0  0  0  0  0  0  0  0  0  0  0
    6.5623   -6.2175    3.1546 H   0  0  0  0  0  0  0  0  0  0  0  0
    5.4628   -3.4147    4.3037 H   0  0  0  0  0  0  0  0  0  0  0  0
    4.6592   -1.4363    3.0560 H   0  0  0  0  0  0  0  0  0  0  0  0
    6.3624   -1.5923    2.7886 H   0  0  0  0  0  0  0  0  0  0  0  0
    5.8329   -1.2282    0.6659 H   0  0  0  0  0  0  0  0  0  0  0  0
    1.7042   -2.1513    1.0506 H   0  0  0  0  0  0  0  0  0  0  0  0
    2.8415   -2.8247    2.1955 H   0  0  0  0  0  0  0  0  0  0  0  0
    2.5928   -3.5734    0.6226 H   0  0  0  0  0  0  0  0  0  0  0  0
    2.5243    0.0968    0.4770 H   0  0  0  0  0  0  0  0  0  0  0  0
    4.2308    0.4462    0.7365 H   0  0  0  0  0  0  0  0  0  0  0  0
    3.2426   -0.1832    2.0431 H   0  0  0  0  0  0  0  0  0  0  0  0
    2.6351   -1.7277   -1.3314 H   0  0  0  0  0  0  0  0  0  0  0  0
    3.9151    0.0896   -1.4052 H   0  0  0  0  0  0  0  0  0  0  0  0
    3.6515   -3.9376   -1.3092 H   0  0  0  0  0  0  0  0  0  0  0  0
    4.1977   -3.0465   -2.6951 H   0  0  0  0  0  0  0  0  0  0  0  0
    6.1010   -4.1716   -1.6550 H   0  0  0  0  0  0  0  0  0  0  0  0
    6.2971   -2.4582   -1.5787 H   0  0  0  0  0  0  0  0  0  0  0  0
    7.9704   -4.0427    0.0227 H   0  0  0  0  0  0  0  0  0  0  0  0
    7.7173   -3.4102    1.6285 H   0  0  0  0  0  0  0  0  0  0  0  0
    7.8626   -2.3122    0.2581 H   0  0  0  0  0  0  0  0  0  0  0  0
    4.3230   -4.7181    0.7408 H   0  0  0  0  0  0  0  0  0  0  0  0
    5.8567   -6.0170   -0.5392 H   0  0  0  0  0  0  0  0  0  0  0  0
    7.0259   -6.0191    0.7845 H   0  0  0  0  0  0  0  0  0  0  0  0
    4.4785   -7.5679    0.4530 H   0  0  0  0  0  0  0  0  0  0  0  0
    5.9951   -8.0827    1.1058 H   0  0  0  0  0  0  0  0  0  0  0  0
    2.9787   -5.7871    1.9374 H   0  0  0  0  0  0  0  0  0  0  0  0
    2.7559   -6.6196    3.4811 H   0  0  0  0  0  0  0  0  0  0  0  0
    2.6512   -7.4903    1.9771 H   0  0  0  0  0  0  0  0  0  0  0  0
  1  2  1  0
  1 31  1  0
  1 32  1  0
  1 33  1  0
  2  3  1  0
  2  4  2  3
  3 34  1  0
  3 35  1  0
  3 36  1  0
  4  5  1  0
  4 37  1  0
  5  6  1  0
  5 38  1  0
  5 39  1  0
  6  7  1  0
  6 40  1  0
  6 41  1  0
  7  8  1  0
  7  9  1  0
  7 42  1  6
  8 43  1  0
  8 44  1  0
  8 45  1  0
  9 29  1  0
  9 10  1  0
  9 46  1  6
 10 11  1  0
 10 47  1  0
 10 48  1  0
 11 12  1  0
 11 49  1  0
 11 50  1  0
 12 29  1  0
 12 13  1  0
 12 51  1  1
 13 26  1  0
 13 14  2  0
 14 15  1  0
 14 52  1  0
 15 16  1  0
 15 53  1  0
 15 54  1  0
 16 24  1  0
 16 17  1  0
 16 55  1  6
 17 18  1  0
 17 19  1  0
 17 20  1  0
 18 56  1  0
 18 57  1  0
 18 58  1  0
 19 59  1  0
 19 60  1  0
 19 61  1  0
 20 21  1  0
 20 22  1  0
 20 62  1  1
 21 63  1  0
 22 23  1  0
 22 64  1  0
 22 65  1  0
 23 24  1  0
 23 66  1  0
 23 67  1  0
 24 25  1  6
 24 26  1  0
 25 68  1  0
 25 69  1  0
 25 70  1  0
 26 27  1  0
 26 71  1  1
 27 28  1  0
 27 72  1  0
 27 73  1  0
 28 29  1  0
 28 74  1  0
 28 75  1  0
 29 30  1  6
 30 76  1  0
 30 77  1  0
 30 78  1  0
M  END
>  <i_m_ct_stereo_status>  (364) 
1

>  <s_m_source_file>  (364) 
/var/tmp/pbs.5076255.sched01/tmpu61_44ix/12937f0afz8.sdf

>  <i_m_source_file_index>  (364) 
28

>  <i_lp_mmshare_version>  (364) 
48012

>  <i_f3d_flags>  (364) 
0

>  <s_epik_input>  (364) 
W0NIM11DKFtDSDNdKT1bQ0hdW0NIMl1bQ0gyXVtDQEhdKFtDSDNdKVtDQEhdKFtDSDJdW0NIMl0xKVtDQF0oW0NIM10pKFtDSDJdW0NIMl1bQ0BASF0yMylbQ0BIXTFDMj1bQ0hdW0NIMl1bQ0BASF0oW0NAQF0zNFtDSDNdKUMoW0NIM10pKFtDSDNdKVtDQEBIXShbT0hdKVtDSDJdW0NIMl00

>  <s_epik_cmdline>  (364) 
J2VwaWtfcHl0aG9uJywgJy1waHQnLCAnMi4wJywgJy1waCcsICc3LjAnLCAnLXRuJywgJzgnLCAnLW1hJywgJzIwMCcsICctaW1hZScsICc8aW5maWxlLm1hZT4nLCAnLW9tYWUnLCAnPG91dGZpbGUubWFlPic=

>  <r_lp_tautomer_probability>  (364) 
1

>  <r_epik_Ionization_Penalty>  (364) 
2.59296e-06

>  <r_epik_Ionization_Penalty_Charging>  (364) 
0

>  <r_epik_Ionization_Penalty_Neutral>  (364) 
2.59296e-06

>  <r_epik_State_Penalty>  (364) 
-0

>  <r_epik_Charging_Adjusted_Penalty>  (364) 
0

>  <i_epik_Tot_Q>  (364) 
0

>  <i_epik_Tot_abs_Q>  (364) 
0

>  <s_lp_Force_Field>  (364) 
OPLS3e

>  <r_lp_Energy>  (364) 
51.6503

>  <b_lp_Chiralities_Consistent>  (364) 
1

>  <s_lp_Variant>  (364) 
112:0-1

>  <s_i_glide_gridfile>  (364) 
pfpi4k_grid

>  <i_i_glide_lignum>  (364) 
28

>  <i_i_glide_rotatable_bonds>  (364) 
5

>  <r_i_docking_score>  (364) 
-2.16129

>  <r_i_glide_ligand_efficiency>  (364) 
-0.072043

>  <r_i_glide_ligand_efficiency_sa>  (364) 
-0.223854

>  <r_i_glide_ligand_efficiency_ln>  (364) 
-0.491069

>  <r_i_glide_gscore>  (364) 
-2.16129

>  <r_i_glide_lipo>  (364) 
-0.728508

>  <r_i_glide_hbond>  (364) 
0

>  <r_i_glide_metal>  (364) 
-0

>  <r_i_glide_rewards>  (364) 
-0.59529

>  <r_i_glide_evdw>  (364) 
-22.202

>  <r_i_glide_ecoul>  (364) 
-1.27044

>  <r_i_glide_erotb>  (364) 
0.463176

>  <r_i_glide_esite>  (364) 
0

>  <r_i_glide_emodel>  (364) 
-21.8403

>  <r_i_glide_energy>  (364) 
-23.4725

>  <r_i_glide_einternal>  (364) 
8.50612

>  <r_i_glide_intrahb_reward>  (364) 
-0

>  <i_i_glide_confnum>  (364) 
2

>  <i_i_glide_posenum>  (364) 
3

>  <r_i_glide_eff_state_penalty>  (364) 
0

>  <ligand_id>  (364) 
112

>  <original_smiles>  (364) 
CC(C)=CCCC(C)C1CCC2C3=CCC4C(C)(C)C(O)CCC4(C)C3CCC21C

>  <smiles>  (364) 
[H]OC1([H])C([H])([H])C([H])([H])C2(C([H])([H])[H])C3([H])C(=C([H])C([H])([H])C2([H])C1(C([H])([H])[H])C([H])([H])[H])C1([H])C([H])([H])C([H])([H])C([H])(C([H])(C([H])([H])[H])C([H])([H])C([H])([H])C([H])=C(C([H])([H])[H])C([H])([H])[H])C1(C([H])([H])[H])C([H])([H])C3([H])[H]

$$$$
112:0:1
     RDKit          3D

 78 81  0  0  1  0  0  0  0  0999 V2000
    2.1862  -10.9158    5.2691 C   0  0  0  0  0  0  0  0  0  0  0  0
    2.1275   -9.9587    4.0874 C   0  0  0  0  0  0  0  0  0  0  0  0
    1.5906  -10.6015    2.8189 C   0  0  0  0  0  0  0  0  0  0  0  0
    2.4993   -8.6714    4.1177 C   0  0  0  0  0  0  0  0  0  0  0  0
    3.0917   -7.9027    5.2862 C   0  0  0  0  0  0  0  0  0  0  0  0
    2.1042   -6.8441    5.7729 C   0  0  0  0  0  0  0  0  0  0  0  0
    2.5895   -5.9095    6.9185 C   0  0  2  0  0  0  0  0  0  0  0  0
    2.8683   -6.7360    8.1920 C   0  0  0  0  0  0  0  0  0  0  0  0
    1.6296   -4.7072    7.2147 C   0  0  2  0  0  0  0  0  0  0  0  0
    0.1081   -5.0345    7.2213 C   0  0  0  0  0  0  0  0  0  0  0  0
   -0.6227   -3.7838    6.7391 C   0  0  0  0  0  0  0  0  0  0  0  0
    0.4395   -2.6966    6.7705 C   0  0  2  0  0  0  0  0  0  0  0  0
    0.2046   -1.3883    6.0289 C   0  0  0  0  0  0  0  0  0  0  0  0
   -1.0134   -0.9522    5.6453 C   0  0  0  0  0  0  0  0  0  0  0  0
   -1.3006    0.3985    5.0235 C   0  0  0  0  0  0  0  0  0  0  0  0
   -0.0317    1.2339    4.6710 C   0  0  2  0  0  0  0  0  0  0  0  0
    0.3445    1.1931    3.1280 C   0  0  0  0  0  0  0  0  0  0  0  0
    0.5764   -0.2307    2.5911 C   0  0  0  0  0  0  0  0  0  0  0  0
   -0.8068    1.8050    2.3045 C   0  0  0  0  0  0  0  0  0  0  0  0
    1.6436    2.0266    2.8485 C   0  0  1  0  0  0  0  0  0  0  0  0
    1.4163    3.4250    2.8927 O   0  0  0  0  0  0  0  0  0  0  0  0
    2.7783    1.6917    3.8263 C   0  0  0  0  0  0  0  0  0  0  0  0
    2.3470    1.8689    5.2854 C   0  0  0  0  0  0  0  0  0  0  0  0
    1.1266    1.0005    5.7041 C   0  0  1  0  0  0  0  0  0  0  0  0
    0.6812    1.5379    7.0915 C   0  0  0  0  0  0  0  0  0  0  0  0
    1.4665   -0.5214    5.8183 C   0  0  1  0  0  0  0  0  0  0  0  0
    2.5591   -0.9347    6.8544 C   0  0  0  0  0  0  0  0  0  0  0  0
    2.9360   -2.4505    6.7965 C   0  0  0  0  0  0  0  0  0  0  0  0
    1.7602   -3.3914    6.3934 C   0  0  1  0  0  0  0  0  0  0  0  0
    1.8231   -3.6937    4.8639 C   0  0  0  0  0  0  0  0  0  0  0  0
    2.9542  -11.6691    5.0977 H   0  0  0  0  0  0  0  0  0  0  0  0
    1.2318  -11.4268    5.3783 H   0  0  0  0  0  0  0  0  0  0  0  0
    2.3917  -10.4352    6.2243 H   0  0  0  0  0  0  0  0  0  0  0  0
    2.2451  -11.4258    2.5351 H   0  0  0  0  0  0  0  0  0  0  0  0
    1.5603   -9.8959    1.9868 H   0  0  0  0  0  0  0  0  0  0  0  0
    0.5853  -10.9971    2.9708 H   0  0  0  0  0  0  0  0  0  0  0  0
    2.3712   -8.0857    3.2155 H   0  0  0  0  0  0  0  0  0  0  0  0
    3.3585   -8.5792    6.0917 H   0  0  0  0  0  0  0  0  0  0  0  0
    4.0208   -7.4417    4.9673 H   0  0  0  0  0  0  0  0  0  0  0  0
    1.8385   -6.2528    4.8848 H   0  0  0  0  0  0  0  0  0  0  0  0
    1.1832   -7.3444    6.0804 H   0  0  0  0  0  0  0  0  0  0  0  0
    3.5494   -5.4867    6.6305 H   0  0  0  0  0  0  0  0  0  0  0  0
    1.9528   -7.1607    8.6049 H   0  0  0  0  0  0  0  0  0  0  0  0
    3.3417   -6.1409    8.9732 H   0  0  0  0  0  0  0  0  0  0  0  0
    3.5470   -7.5673    8.0085 H   0  0  0  0  0  0  0  0  0  0  0  0
    1.8593   -4.3972    8.2364 H   0  0  0  0  0  0  0  0  0  0  0  0
   -0.1470   -5.8669    6.5448 H   0  0  0  0  0  0  0  0  0  0  0  0
   -0.2184   -5.3270    8.2241 H   0  0  0  0  0  0  0  0  0  0  0  0
   -0.9608   -3.9354    5.7110 H   0  0  0  0  0  0  0  0  0  0  0  0
   -1.4988   -3.5441    7.3417 H   0  0  0  0  0  0  0  0  0  0  0  0
    0.5295   -2.3978    7.8223 H   0  0  0  0  0  0  0  0  0  0  0  0
   -1.8859   -1.5689    5.8285 H   0  0  0  0  0  0  0  0  0  0  0  0
   -1.9499    0.2490    4.1699 H   0  0  0  0  0  0  0  0  0  0  0  0
   -1.8872    0.9561    5.7511 H   0  0  0  0  0  0  0  0  0  0  0  0
   -0.3370    2.2682    4.8177 H   0  0  0  0  0  0  0  0  0  0  0  0
    0.5071   -0.2423    1.4983 H   0  0  0  0  0  0  0  0  0  0  0  0
   -0.1640   -0.9366    2.9685 H   0  0  0  0  0  0  0  0  0  0  0  0
    1.5533   -0.6326    2.8142 H   0  0  0  0  0  0  0  0  0  0  0  0
   -0.4783    1.9823    1.2777 H   0  0  0  0  0  0  0  0  0  0  0  0
   -1.1452    2.7545    2.7036 H   0  0  0  0  0  0  0  0  0  0  0  0
   -1.6785    1.1490    2.2332 H   0  0  0  0  0  0  0  0  0  0  0  0
    1.9823    1.8091    1.8334 H   0  0  0  0  0  0  0  0  0  0  0  0
    0.8903    3.6997    2.1341 H   0  0  0  0  0  0  0  0  0  0  0  0
    3.1407    0.6807    3.6674 H   0  0  0  0  0  0  0  0  0  0  0  0
    3.6324    2.3412    3.6301 H   0  0  0  0  0  0  0  0  0  0  0  0
    3.1951    1.6900    5.9407 H   0  0  0  0  0  0  0  0  0  0  0  0
    2.0961    2.9196    5.4307 H   0  0  0  0  0  0  0  0  0  0  0  0
    1.5018    1.5208    7.8073 H   0  0  0  0  0  0  0  0  0  0  0  0
   -0.1327    0.9563    7.5232 H   0  0  0  0  0  0  0  0  0  0  0  0
    0.3404    2.5689    7.0301 H   0  0  0  0  0  0  0  0  0  0  0  0
    1.8782   -0.8191    4.8712 H   0  0  0  0  0  0  0  0  0  0  0  0
    3.4682   -0.3461    6.7049 H   0  0  0  0  0  0  0  0  0  0  0  0
    2.2042   -0.6949    7.8486 H   0  0  0  0  0  0  0  0  0  0  0  0
    3.7598   -2.5856    6.1131 H   0  0  0  0  0  0  0  0  0  0  0  0
    3.3349   -2.7339    7.7877 H   0  0  0  0  0  0  0  0  0  0  0  0
    1.7396   -2.8097    4.2313 H   0  0  0  0  0  0  0  0  0  0  0  0
    1.0203   -4.3595    4.5639 H   0  0  0  0  0  0  0  0  0  0  0  0
    2.7597   -4.1692    4.6032 H   0  0  0  0  0  0  0  0  0  0  0  0
  1  2  1  0
  1 31  1  0
  1 32  1  0
  1 33  1  0
  2  3  1  0
  2  4  2  3
  3 34  1  0
  3 35  1  0
  3 36  1  0
  4  5  1  0
  4 37  1  0
  5  6  1  0
  5 38  1  0
  5 39  1  0
  6  7  1  0
  6 40  1  0
  6 41  1  0
  7  8  1  0
  7  9  1  0
  7 42  1  6
  8 43  1  0
  8 44  1  0
  8 45  1  0
  9 29  1  0
  9 10  1  0
  9 46  1  1
 10 11  1  0
 10 47  1  0
 10 48  1  0
 11 12  1  0
 11 49  1  0
 11 50  1  0
 12 29  1  0
 12 13  1  0
 12 51  1  1
 13 26  1  0
 13 14  2  0
 14 15  1  0
 14 52  1  0
 15 16  1  0
 15 53  1  0
 15 54  1  0
 16 24  1  0
 16 17  1  0
 16 55  1  1
 17 18  1  0
 17 19  1  0
 17 20  1  0
 18 56  1  0
 18 57  1  0
 18 58  1  0
 19 59  1  0
 19 60  1  0
 19 61  1  0
 20 21  1  0
 20 22  1  0
 20 62  1  6
 21 63  1  0
 22 23  1  0
 22 64  1  0
 22 65  1  0
 23 24  1  0
 23 66  1  0
 23 67  1  0
 24 25  1  1
 24 26  1  0
 25 68  1  0
 25 69  1  0
 25 70  1  0
 26 27  1  0
 26 71  1  6
 27 28  1  0
 27 72  1  0
 27 73  1  0
 28 29  1  0
 28 74  1  0
 28 75  1  0
 29 30  1  6
 30 76  1  0
 30 77  1  0
 30 78  1  0
M  END
>  <i_m_ct_stereo_status>  (365) 
1

>  <s_m_source_file>  (365) 
/var/tmp/pbs.5076255.sched01/tmpu61_44ix/12937f0afz8.sdf

>  <i_m_source_file_index>  (365) 
28

>  <i_lp_mmshare_version>  (365) 
48012

>  <i_f3d_flags>  (365) 
0

>  <s_epik_input>  (365) 
W0NIM11DKFtDSDNdKT1bQ0hdW0NIMl1bQ0gyXVtDQEhdKFtDSDNdKVtDQEhdKFtDSDJdW0NIMl0xKVtDQF0oW0NIM10pKFtDSDJdW0NIMl1bQ0BASF0yMylbQ0BIXTFDMj1bQ0hdW0NIMl1bQ0BASF0oW0NAQF0zNFtDSDNdKUMoW0NIM10pKFtDSDNdKVtDQEBIXShbT0hdKVtDSDJdW0NIMl00

>  <s_epik_cmdline>  (365) 
J2VwaWtfcHl0aG9uJywgJy1waHQnLCAnMi4wJywgJy1waCcsICc3LjAnLCAnLXRuJywgJzgnLCAnLW1hJywgJzIwMCcsICctaW1hZScsICc8aW5maWxlLm1hZT4nLCAnLW9tYWUnLCAnPG91dGZpbGUubWFlPic=

>  <r_lp_tautomer_probability>  (365) 
1

>  <r_epik_Ionization_Penalty>  (365) 
2.59296e-06

>  <r_epik_Ionization_Penalty_Charging>  (365) 
0

>  <r_epik_Ionization_Penalty_Neutral>  (365) 
2.59296e-06

>  <r_epik_State_Penalty>  (365) 
-0

>  <r_epik_Charging_Adjusted_Penalty>  (365) 
0

>  <i_epik_Tot_Q>  (365) 
0

>  <i_epik_Tot_abs_Q>  (365) 
0

>  <s_lp_Force_Field>  (365) 
OPLS3e

>  <r_lp_Energy>  (365) 
51.6503

>  <b_lp_Chiralities_Consistent>  (365) 
1

>  <s_lp_Variant>  (365) 
112:0-1

>  <s_i_glide_gridfile>  (365) 
pfpi4k_grid

>  <i_i_glide_lignum>  (365) 
28

>  <i_i_glide_rotatable_bonds>  (365) 
5

>  <r_i_docking_score>  (365) 
-1.84013

>  <r_i_glide_ligand_efficiency>  (365) 
-0.0613378

>  <r_i_glide_ligand_efficiency_sa>  (365) 
-0.190591

>  <r_i_glide_ligand_efficiency_ln>  (365) 
-0.418099

>  <r_i_glide_gscore>  (365) 
-1.84013

>  <r_i_glide_lipo>  (365) 
-0.119168

>  <r_i_glide_hbond>  (365) 
-0.16

>  <r_i_glide_metal>  (365) 
-0

>  <r_i_glide_rewards>  (365) 
-0.59529

>  <r_i_glide_evdw>  (365) 
-16.8198

>  <r_i_glide_ecoul>  (365) 
-3.91909

>  <r_i_glide_erotb>  (365) 
0.463176

>  <r_i_glide_esite>  (365) 
0

>  <r_i_glide_emodel>  (365) 
-20.1719

>  <r_i_glide_energy>  (365) 
-20.7389

>  <r_i_glide_einternal>  (365) 
5.70064

>  <r_i_glide_intrahb_reward>  (365) 
-0

>  <i_i_glide_confnum>  (365) 
2

>  <i_i_glide_posenum>  (365) 
1

>  <r_i_glide_eff_state_penalty>  (365) 
0

>  <ligand_id>  (365) 
112

>  <original_smiles>  (365) 
CC(C)=CCCC(C)C1CCC2C3=CCC4C(C)(C)C(O)CCC4(C)C3CCC21C

>  <smiles>  (365) 
[H]OC1([H])C([H])([H])C([H])([H])C2(C([H])([H])[H])C3([H])C(=C([H])C([H])([H])C2([H])C1(C([H])([H])[H])C([H])([H])[H])C1([H])C([H])([H])C([H])([H])C([H])(C([H])(C([H])([H])[H])C([H])([H])C([H])([H])C([H])=C(C([H])([H])[H])C([H])([H])[H])C1(C([H])([H])[H])C([H])([H])C3([H])[H]

$$$$
112:0:2
     RDKit          3D

 78 81  0  0  1  0  0  0  0  0999 V2000
    0.1126   -8.1470    3.5287 C   0  0  0  0  0  0  0  0  0  0  0  0
    1.3884   -7.5517    2.9450 C   0  0  0  0  0  0  0  0  0  0  0  0
    1.5588   -7.8238    1.4594 C   0  0  0  0  0  0  0  0  0  0  0  0
    2.3087   -6.8530    3.6342 C   0  0  0  0  0  0  0  0  0  0  0  0
    2.3234   -6.5264    5.1227 C   0  0  0  0  0  0  0  0  0  0  0  0
    2.4533   -5.0191    5.3897 C   0  0  0  0  0  0  0  0  0  0  0  0
    2.6010   -4.6244    6.8838 C   0  0  2  0  0  0  0  0  0  0  0  0
    1.3703   -5.0667    7.7221 C   0  0  0  0  0  0  0  0  0  0  0  0
    3.0183   -3.1246    7.0520 C   0  0  2  0  0  0  0  0  0  0  0  0
    3.1613   -2.6233    8.5225 C   0  0  0  0  0  0  0  0  0  0  0  0
    2.7814   -1.1352    8.5335 C   0  0  0  0  0  0  0  0  0  0  0  0
    2.7405   -0.7588    7.0566 C   0  0  2  0  0  0  0  0  0  0  0  0
    2.0535    0.5324    6.6112 C   0  0  0  0  0  0  0  0  0  0  0  0
    1.8080    1.5649    7.4468 C   0  0  0  0  0  0  0  0  0  0  0  0
    1.2417    2.9024    7.0214 C   0  0  0  0  0  0  0  0  0  0  0  0
    0.7779    2.9688    5.5382 C   0  0  2  0  0  0  0  0  0  0  0  0
   -0.7932    2.8413    5.3511 C   0  0  0  0  0  0  0  0  0  0  0  0
   -1.3867    1.5449    5.9557 C   0  0  0  0  0  0  0  0  0  0  0  0
   -1.4899    4.0295    6.0603 C   0  0  0  0  0  0  0  0  0  0  0  0
   -1.1646    2.8985    3.8270 C   0  0  1  0  0  0  0  0  0  0  0  0
   -1.0333    4.2103    3.2947 O   0  0  0  0  0  0  0  0  0  0  0  0
   -0.3239    1.9409    2.9672 C   0  0  0  0  0  0  0  0  0  0  0  0
    1.1729    2.2180    3.1335 C   0  0  0  0  0  0  0  0  0  0  0  0
    1.6899    2.0946    4.5941 C   0  0  1  0  0  0  0  0  0  0  0  0
    3.1260    2.6862    4.5886 C   0  0  0  0  0  0  0  0  0  0  0  0
    1.7402    0.6143    5.1035 C   0  0  1  0  0  0  0  0  0  0  0  0
    2.6522   -0.3687    4.3185 C   0  0  0  0  0  0  0  0  0  0  0  0
    2.5207   -1.8406    4.7990 C   0  0  0  0  0  0  0  0  0  0  0  0
    2.2105   -2.0083    6.3213 C   0  0  1  0  0  0  0  0  0  0  0  0
    0.6809   -2.1937    6.5532 C   0  0  0  0  0  0  0  0  0  0  0  0
    0.1822   -9.2344    3.5196 H   0  0  0  0  0  0  0  0  0  0  0  0
   -0.7474   -7.8628    2.9213 H   0  0  0  0  0  0  0  0  0  0  0  0
   -0.0928   -7.8345    4.5514 H   0  0  0  0  0  0  0  0  0  0  0  0
    1.5927   -8.8983    1.2858 H   0  0  0  0  0  0  0  0  0  0  0  0
    2.4842   -7.3948    1.0722 H   0  0  0  0  0  0  0  0  0  0  0  0
    0.7265   -7.4151    0.8854 H   0  0  0  0  0  0  0  0  0  0  0  0
    3.1701   -6.4803    3.0959 H   0  0  0  0  0  0  0  0  0  0  0  0
    1.4242   -6.9066    5.6000 H   0  0  0  0  0  0  0  0  0  0  0  0
    3.1609   -7.0613    5.5713 H   0  0  0  0  0  0  0  0  0  0  0  0
    3.3161   -4.6515    4.8306 H   0  0  0  0  0  0  0  0  0  0  0  0
    1.5792   -4.5308    4.9547 H   0  0  0  0  0  0  0  0  0  0  0  0
    3.4443   -5.1983    7.2524 H   0  0  0  0  0  0  0  0  0  0  0  0
    0.4696   -4.4862    7.4566 H   0  0  0  0  0  0  0  0  0  0  0  0
    1.5567   -4.9549    8.7932 H   0  0  0  0  0  0  0  0  0  0  0  0
    1.1590   -6.1379    7.5993 H   0  0  0  0  0  0  0  0  0  0  0  0
    4.0239   -3.0593    6.6429 H   0  0  0  0  0  0  0  0  0  0  0  0
    2.5075   -3.1528    9.2210 H   0  0  0  0  0  0  0  0  0  0  0  0
    4.1884   -2.7704    8.8758 H   0  0  0  0  0  0  0  0  0  0  0  0
    1.7980   -1.0175    8.9879 H   0  0  0  0  0  0  0  0  0  0  0  0
    3.4846   -0.5296    9.0980 H   0  0  0  0  0  0  0  0  0  0  0  0
    3.7841   -0.6253    6.7571 H   0  0  0  0  0  0  0  0  0  0  0  0
    2.0808    1.4814    8.4885 H   0  0  0  0  0  0  0  0  0  0  0  0
    0.4537    3.1728    7.7158 H   0  0  0  0  0  0  0  0  0  0  0  0
    2.0360    3.6289    7.1694 H   0  0  0  0  0  0  0  0  0  0  0  0
    0.9793    3.9966    5.2297 H   0  0  0  0  0  0  0  0  0  0  0  0
   -2.4631    1.6470    6.0962 H   0  0  0  0  0  0  0  0  0  0  0  0
   -0.9618    1.3153    6.9311 H   0  0  0  0  0  0  0  0  0  0  0  0
   -1.2584    0.6778    5.3198 H   0  0  0  0  0  0  0  0  0  0  0  0
   -2.5353    4.0965    5.7615 H   0  0  0  0  0  0  0  0  0  0  0  0
   -1.0121    4.9758    5.8155 H   0  0  0  0  0  0  0  0  0  0  0  0
   -1.4815    3.9299    7.1442 H   0  0  0  0  0  0  0  0  0  0  0  0
   -2.2153    2.6229    3.7127 H   0  0  0  0  0  0  0  0  0  0  0  0
   -0.6585    4.1431    2.4105 H   0  0  0  0  0  0  0  0  0  0  0  0
   -0.5435    0.9059    3.2137 H   0  0  0  0  0  0  0  0  0  0  0  0
   -0.5996    2.0520    1.9183 H   0  0  0  0  0  0  0  0  0  0  0  0
    1.7382    1.5785    2.4601 H   0  0  0  0  0  0  0  0  0  0  0  0
    1.3662    3.2311    2.7769 H   0  0  0  0  0  0  0  0  0  0  0  0
    3.7557    2.1921    3.8506 H   0  0  0  0  0  0  0  0  0  0  0  0
    3.6236    2.5879    5.5523 H   0  0  0  0  0  0  0  0  0  0  0  0
    3.1212    3.7459    4.3357 H   0  0  0  0  0  0  0  0  0  0  0  0
    0.7462    0.2114    4.9788 H   0  0  0  0  0  0  0  0  0  0  0  0
    2.4282   -0.3370    3.2536 H   0  0  0  0  0  0  0  0  0  0  0  0
    3.6885   -0.0517    4.4234 H   0  0  0  0  0  0  0  0  0  0  0  0
    1.7581   -2.3394    4.2128 H   0  0  0  0  0  0  0  0  0  0  0  0
    3.4627   -2.3416    4.5471 H   0  0  0  0  0  0  0  0  0  0  0  0
    0.0895   -1.3211    6.2644 H   0  0  0  0  0  0  0  0  0  0  0  0
    0.4633   -2.3953    7.5966 H   0  0  0  0  0  0  0  0  0  0  0  0
    0.2939   -3.0368    5.9923 H   0  0  0  0  0  0  0  0  0  0  0  0
  1  2  1  0
  1 31  1  0
  1 32  1  0
  1 33  1  0
  2  3  1  0
  2  4  2  3
  3 34  1  0
  3 35  1  0
  3 36  1  0
  4  5  1  0
  4 37  1  0
  5  6  1  0
  5 38  1  0
  5 39  1  0
  6  7  1  0
  6 40  1  0
  6 41  1  0
  7  8  1  0
  7  9  1  0
  7 42  1  1
  8 43  1  0
  8 44  1  0
  8 45  1  0
  9 29  1  0
  9 10  1  0
  9 46  1  6
 10 11  1  0
 10 47  1  0
 10 48  1  0
 11 12  1  0
 11 49  1  0
 11 50  1  0
 12 29  1  0
 12 13  1  0
 12 51  1  6
 13 26  1  0
 13 14  2  0
 14 15  1  0
 14 52  1  0
 15 16  1  0
 15 53  1  0
 15 54  1  0
 16 24  1  0
 16 17  1  0
 16 55  1  6
 17 18  1  0
 17 19  1  0
 17 20  1  0
 18 56  1  0
 18 57  1  0
 18 58  1  0
 19 59  1  0
 19 60  1  0
 19 61  1  0
 20 21  1  0
 20 22  1  0
 20 62  1  1
 21 63  1  0
 22 23  1  0
 22 64  1  0
 22 65  1  0
 23 24  1  0
 23 66  1  0
 23 67  1  0
 24 25  1  6
 24 26  1  0
 25 68  1  0
 25 69  1  0
 25 70  1  0
 26 27  1  0
 26 71  1  1
 27 28  1  0
 27 72  1  0
 27 73  1  0
 28 29  1  0
 28 74  1  0
 28 75  1  0
 29 30  1  6
 30 76  1  0
 30 77  1  0
 30 78  1  0
M  END
>  <i_m_ct_stereo_status>  (366) 
1

>  <s_m_source_file>  (366) 
/var/tmp/pbs.5076255.sched01/tmpu61_44ix/12937f0afz8.sdf

>  <i_m_source_file_index>  (366) 
28

>  <i_lp_mmshare_version>  (366) 
48012

>  <i_f3d_flags>  (366) 
0

>  <s_epik_input>  (366) 
W0NIM11DKFtDSDNdKT1bQ0hdW0NIMl1bQ0gyXVtDQEhdKFtDSDNdKVtDQEhdKFtDSDJdW0NIMl0xKVtDQF0oW0NIM10pKFtDSDJdW0NIMl1bQ0BASF0yMylbQ0BIXTFDMj1bQ0hdW0NIMl1bQ0BASF0oW0NAQF0zNFtDSDNdKUMoW0NIM10pKFtDSDNdKVtDQEBIXShbT0hdKVtDSDJdW0NIMl00

>  <s_epik_cmdline>  (366) 
J2VwaWtfcHl0aG9uJywgJy1waHQnLCAnMi4wJywgJy1waCcsICc3LjAnLCAnLXRuJywgJzgnLCAnLW1hJywgJzIwMCcsICctaW1hZScsICc8aW5maWxlLm1hZT4nLCAnLW9tYWUnLCAnPG91dGZpbGUubWFlPic=

>  <r_lp_tautomer_probability>  (366) 
1

>  <r_epik_Ionization_Penalty>  (366) 
2.59296e-06

>  <r_epik_Ionization_Penalty_Charging>  (366) 
0

>  <r_epik_Ionization_Penalty_Neutral>  (366) 
2.59296e-06

>  <r_epik_State_Penalty>  (366) 
-0

>  <r_epik_Charging_Adjusted_Penalty>  (366) 
0

>  <i_epik_Tot_Q>  (366) 
0

>  <i_epik_Tot_abs_Q>  (366) 
0

>  <s_lp_Force_Field>  (366) 
OPLS3e

>  <r_lp_Energy>  (366) 
51.6503

>  <b_lp_Chiralities_Consistent>  (366) 
1

>  <s_lp_Variant>  (366) 
112:0-1

>  <s_i_glide_gridfile>  (366) 
pfpi4k_grid

>  <i_i_glide_lignum>  (366) 
28

>  <i_i_glide_rotatable_bonds>  (366) 
5

>  <r_i_docking_score>  (366) 
-1.7593

>  <r_i_glide_ligand_efficiency>  (366) 
-0.0586433

>  <r_i_glide_ligand_efficiency_sa>  (366) 
-0.182218

>  <r_i_glide_ligand_efficiency_ln>  (366) 
-0.399732

>  <r_i_glide_gscore>  (366) 
-1.7593

>  <r_i_glide_lipo>  (366) 
0

>  <r_i_glide_hbond>  (366) 
-0.16

>  <r_i_glide_metal>  (366) 
-0

>  <r_i_glide_rewards>  (366) 
-0.59529

>  <r_i_glide_evdw>  (366) 
-14.7951

>  <r_i_glide_ecoul>  (366) 
-4.84953

>  <r_i_glide_erotb>  (366) 
0.463176

>  <r_i_glide_esite>  (366) 
0

>  <r_i_glide_emodel>  (366) 
-18.6458

>  <r_i_glide_energy>  (366) 
-19.6446

>  <r_i_glide_einternal>  (366) 
6.25863

>  <r_i_glide_intrahb_reward>  (366) 
-0

>  <i_i_glide_confnum>  (366) 
3

>  <i_i_glide_posenum>  (366) 
2

>  <r_i_glide_eff_state_penalty>  (366) 
0

>  <ligand_id>  (366) 
112

>  <original_smiles>  (366) 
CC(C)=CCCC(C)C1CCC2C3=CCC4C(C)(C)C(O)CCC4(C)C3CCC21C

>  <smiles>  (366) 
[H]OC1([H])C([H])([H])C([H])([H])C2(C([H])([H])[H])C3([H])C(=C([H])C([H])([H])C2([H])C1(C([H])([H])[H])C([H])([H])[H])C1([H])C([H])([H])C([H])([H])C([H])(C([H])(C([H])([H])[H])C([H])([H])C([H])([H])C([H])=C(C([H])([H])[H])C([H])([H])[H])C1(C([H])([H])[H])C([H])([H])C3([H])[H]

$$$$
113:0:0
     RDKit          3D

 36 38  0  0  1  0  0  0  0  0999 V2000
   -4.8468  -13.2981   -6.5055 C   0  0  0  0  0  0  0  0  0  0  0  0
   -4.7503  -11.8793   -5.9306 C   0  0  0  0  0  0  0  0  0  0  0  0
   -5.1742  -10.7669   -6.8934 C   0  0  1  0  0  0  0  0  0  0  0  0
   -4.2232  -10.9122   -7.9208 O   0  0  0  0  0  0  0  0  0  0  0  0
   -6.5890  -10.9648   -7.5080 C   0  0  0  0  0  0  0  0  0  0  0  0
   -7.2415   -9.6598   -8.0058 C   0  0  0  0  0  0  0  0  0  0  0  0
   -6.9648   -8.4903   -7.5641 N   0  0  0  0  0  0  0  0  0  0  0  0
   -5.9869   -8.3716   -6.6028 C   0  0  0  0  0  0  0  0  0  0  0  0
   -5.1288   -9.3833   -6.2476 C   0  0  0  0  0  0  0  0  0  0  0  0
   -4.3900   -8.8019   -5.1800 C   0  0  0  0  0  0  0  0  0  0  0  0
   -4.7424   -7.5399   -4.9570 N   0  0  0  0  0  0  0  0  0  0  0  0
   -5.7068   -7.2474   -5.8644 N   0  0  0  0  0  0  0  0  0  0  0  0
   -6.3441   -5.9252   -5.9125 C   0  0  0  0  0  0  0  0  0  0  0  0
   -5.4435   -4.7462   -5.4556 C   0  0  0  0  0  0  0  0  0  0  0  0
   -6.2621   -3.9171   -4.4668 C   0  0  0  0  0  0  0  0  0  0  0  0
   -7.7019   -4.3927   -4.6086 C   0  0  0  0  0  0  0  0  0  0  0  0
   -7.5430   -5.8569   -4.9947 C   0  0  0  0  0  0  0  0  0  0  0  0
   -4.5387  -14.0134   -5.7446 H   0  0  0  0  0  0  0  0  0  0  0  0
   -4.2047  -13.4268   -7.3807 H   0  0  0  0  0  0  0  0  0  0  0  0
   -5.8804  -13.5155   -6.7803 H   0  0  0  0  0  0  0  0  0  0  0  0
   -5.3771  -11.8565   -5.0608 H   0  0  0  0  0  0  0  0  0  0  0  0
   -3.7396  -11.6876   -5.5556 H   0  0  0  0  0  0  0  0  0  0  0  0
   -3.3886  -10.7279   -7.5166 H   0  0  0  0  0  0  0  0  0  0  0  0
   -6.5762  -11.6822   -8.3252 H   0  0  0  0  0  0  0  0  0  0  0  0
   -7.2592  -11.3259   -6.7351 H   0  0  0  0  0  0  0  0  0  0  0  0
   -8.0011   -9.7921   -8.7909 H   0  0  0  0  0  0  0  0  0  0  0  0
   -3.6104   -9.2851   -4.6146 H   0  0  0  0  0  0  0  0  0  0  0  0
   -6.6927   -5.7550   -6.9292 H   0  0  0  0  0  0  0  0  0  0  0  0
   -4.5279   -5.0615   -4.9422 H   0  0  0  0  0  0  0  0  0  0  0  0
   -5.1864   -4.0720   -6.2843 H   0  0  0  0  0  0  0  0  0  0  0  0
   -5.9094   -4.1074   -3.4551 H   0  0  0  0  0  0  0  0  0  0  0  0
   -6.1604   -2.8491   -4.6503 H   0  0  0  0  0  0  0  0  0  0  0  0
   -8.2593   -4.2786   -3.6753 H   0  0  0  0  0  0  0  0  0  0  0  0
   -8.2194   -3.8255   -5.3889 H   0  0  0  0  0  0  0  0  0  0  0  0
   -8.4582   -6.2693   -5.4118 H   0  0  0  0  0  0  0  0  0  0  0  0
   -7.2240   -6.4206   -4.1242 H   0  0  0  0  0  0  0  0  0  0  0  0
  1  2  1  0
  1 18  1  0
  1 19  1  0
  1 20  1  0
  2  3  1  0
  2 21  1  0
  2 22  1  0
  3  9  1  0
  3  4  1  6
  3  5  1  0
  4 23  1  0
  5  6  1  0
  5 24  1  0
  5 25  1  0
  6  7  2  0
  6 26  1  0
  7  8  1  0
  8 12  1  0
  8  9  2  0
  9 10  1  0
 10 11  2  0
 10 27  1  0
 11 12  1  0
 12 13  1  0
 13 17  1  0
 13 14  1  0
 13 28  1  0
 14 15  1  0
 14 29  1  0
 14 30  1  0
 15 16  1  0
 15 31  1  0
 15 32  1  0
 16 17  1  0
 16 33  1  0
 16 34  1  0
 17 35  1  0
 17 36  1  0
M  END
>  <i_m_ct_stereo_status>  (367) 
1

>  <s_m_source_file>  (367) 
/var/tmp/pbs.5076255.sched01/tmpu61_44ix/12937f0afz8.sdf

>  <i_m_source_file_index>  (367) 
29

>  <i_lp_mmshare_version>  (367) 
48012

>  <i_f3d_flags>  (367) 
0

>  <s_epik_input>  (367) 
TjE9W0NIXVtDSDJdW0NAXShbT0hdKShbQ0gyXVtDSDNdKWMoYzEyKVtjSF1ubjJbQ0hdM1tDSDJdW0NIMl1bQ0gyXVtDSDJdMw==

>  <s_epik_cmdline>  (367) 
J2VwaWtfcHl0aG9uJywgJy1waHQnLCAnMi4wJywgJy1waCcsICc3LjAnLCAnLXRuJywgJzgnLCAnLW1hJywgJzIwMCcsICctaW1hZScsICc8aW5maWxlLm1hZT4nLCAnLW9tYWUnLCAnPG91dGZpbGUubWFlPic=

>  <r_lp_tautomer_probability>  (367) 
1

>  <r_epik_Ionization_Penalty>  (367) 
0.000129563

>  <r_epik_Ionization_Penalty_Charging>  (367) 
0

>  <r_epik_Ionization_Penalty_Neutral>  (367) 
0.000129563

>  <r_epik_State_Penalty>  (367) 
-0

>  <r_epik_Charging_Adjusted_Penalty>  (367) 
0

>  <i_epik_Tot_Q>  (367) 
0

>  <i_epik_Tot_abs_Q>  (367) 
0

>  <s_epik_Chemistry_Notes>  (367) 
This compound has an imine and may undergo hydrolysis.

>  <s_lp_Force_Field>  (367) 
OPLS3e

>  <r_lp_Energy>  (367) 
25.1652

>  <b_lp_Chiralities_Consistent>  (367) 
1

>  <s_lp_Variant>  (367) 
113:0-1

>  <s_i_glide_gridfile>  (367) 
pfpi4k_grid

>  <i_i_glide_lignum>  (367) 
29

>  <i_i_glide_rotatable_bonds>  (367) 
3

>  <r_i_docking_score>  (367) 
-6.04473

>  <r_i_glide_ligand_efficiency>  (367) 
-0.355573

>  <r_i_glide_ligand_efficiency_sa>  (367) 
-0.914277

>  <r_i_glide_ligand_efficiency_ln>  (367) 
-1.57694

>  <r_i_glide_gscore>  (367) 
-6.04473

>  <r_i_glide_lipo>  (367) 
-1.80436

>  <r_i_glide_hbond>  (367) 
-0.00557221

>  <r_i_glide_metal>  (367) 
-0

>  <r_i_glide_rewards>  (367) 
-3.27478

>  <r_i_glide_evdw>  (367) 
-14.5255

>  <r_i_glide_ecoul>  (367) 
-3.65867

>  <r_i_glide_erotb>  (367) 
0.315055

>  <r_i_glide_esite>  (367) 
0

>  <r_i_glide_emodel>  (367) 
-24.8217

>  <r_i_glide_energy>  (367) 
-18.1841

>  <r_i_glide_einternal>  (367) 
2.45942

>  <r_i_glide_intrahb_reward>  (367) 
-0

>  <i_i_glide_confnum>  (367) 
2

>  <i_i_glide_posenum>  (367) 
2

>  <r_i_glide_eff_state_penalty>  (367) 
0

>  <ligand_id>  (367) 
113

>  <original_smiles>  (367) 
CCC1(O)CC=Nc2c1cnn2C1CCCC1

>  <smiles>  (367) 
[H]OC1(C([H])([H])C([H])([H])[H])c2c([H])nn(C3([H])C([H])([H])C([H])([H])C([H])([H])C3([H])[H])c2N=C([H])C1([H])[H]

$$$$
113:0:1
     RDKit          3D

 36 38  0  0  1  0  0  0  0  0999 V2000
   -4.4159  -13.2858   -6.5292 C   0  0  0  0  0  0  0  0  0  0  0  0
   -4.5649  -11.9113   -5.8545 C   0  0  0  0  0  0  0  0  0  0  0  0
   -5.4236  -10.9005   -6.6412 C   0  0  1  0  0  0  0  0  0  0  0  0
   -4.8338  -10.7915   -7.9141 O   0  0  0  0  0  0  0  0  0  0  0  0
   -6.8929  -11.3616   -6.8528 C   0  0  0  0  0  0  0  0  0  0  0  0
   -7.8832  -10.2128   -7.0963 C   0  0  0  0  0  0  0  0  0  0  0  0
   -7.6934   -9.0040   -6.7223 N   0  0  0  0  0  0  0  0  0  0  0  0
   -6.5206   -8.7090   -6.0563 C   0  0  0  0  0  0  0  0  0  0  0  0
   -5.4496   -9.5490   -5.9821 C   0  0  0  0  0  0  0  0  0  0  0  0
   -4.5176   -8.8244   -5.1834 C   0  0  0  0  0  0  0  0  0  0  0  0
   -4.9845   -7.6306   -4.8424 N   0  0  0  0  0  0  0  0  0  0  0  0
   -6.2311   -7.5502   -5.3708 N   0  0  0  0  0  0  0  0  0  0  0  0
   -7.0582   -6.3711   -5.1750 C   0  0  0  0  0  0  0  0  0  0  0  0
   -7.4170   -5.6708   -6.4890 C   0  0  0  0  0  0  0  0  0  0  0  0
   -7.2228   -4.1778   -6.2282 C   0  0  0  0  0  0  0  0  0  0  0  0
   -7.0889   -4.0126   -4.7131 C   0  0  0  0  0  0  0  0  0  0  0  0
   -6.4362   -5.3049   -4.2611 C   0  0  0  0  0  0  0  0  0  0  0  0
   -3.7928  -13.9437   -5.9225 H   0  0  0  0  0  0  0  0  0  0  0  0
   -3.9416  -13.2055   -7.5088 H   0  0  0  0  0  0  0  0  0  0  0  0
   -5.3830  -13.7717   -6.6566 H   0  0  0  0  0  0  0  0  0  0  0  0
   -4.9825  -12.0478   -4.8573 H   0  0  0  0  0  0  0  0  0  0  0  0
   -3.5681  -11.4981   -5.6971 H   0  0  0  0  0  0  0  0  0  0  0  0
   -3.9490  -10.4977   -7.7702 H   0  0  0  0  0  0  0  0  0  0  0  0
   -6.9793  -12.0985   -7.6529 H   0  0  0  0  0  0  0  0  0  0  0  0
   -7.2303  -11.8405   -5.9354 H   0  0  0  0  0  0  0  0  0  0  0  0
   -8.8009  -10.5073   -7.6143 H   0  0  0  0  0  0  0  0  0  0  0  0
   -3.5270   -9.1192   -4.8695 H   0  0  0  0  0  0  0  0  0  0  0  0
   -7.9994   -6.6549   -4.7193 H   0  0  0  0  0  0  0  0  0  0  0  0
   -6.7899   -6.0203   -7.3041 H   0  0  0  0  0  0  0  0  0  0  0  0
   -8.4469   -5.8845   -6.7802 H   0  0  0  0  0  0  0  0  0  0  0  0
   -6.2945   -3.8515   -6.6945 H   0  0  0  0  0  0  0  0  0  0  0  0
   -8.0320   -3.5720   -6.6386 H   0  0  0  0  0  0  0  0  0  0  0  0
   -6.4728   -3.1554   -4.4335 H   0  0  0  0  0  0  0  0  0  0  0  0
   -8.0767   -3.9034   -4.2612 H   0  0  0  0  0  0  0  0  0  0  0  0
   -6.5899   -5.5208   -3.2012 H   0  0  0  0  0  0  0  0  0  0  0  0
   -5.3652   -5.1911   -4.4300 H   0  0  0  0  0  0  0  0  0  0  0  0
  1  2  1  0
  1 18  1  0
  1 19  1  0
  1 20  1  0
  2  3  1  0
  2 21  1  0
  2 22  1  0
  3  9  1  0
  3  4  1  6
  3  5  1  0
  4 23  1  0
  5  6  1  0
  5 24  1  0
  5 25  1  0
  6  7  2  0
  6 26  1  0
  7  8  1  0
  8 12  1  0
  8  9  2  0
  9 10  1  0
 10 11  2  0
 10 27  1  0
 11 12  1  0
 12 13  1  0
 13 17  1  0
 13 14  1  0
 13 28  1  0
 14 15  1  0
 14 29  1  0
 14 30  1  0
 15 16  1  0
 15 31  1  0
 15 32  1  0
 16 17  1  0
 16 33  1  0
 16 34  1  0
 17 35  1  0
 17 36  1  0
M  END
>  <i_m_ct_stereo_status>  (368) 
1

>  <s_m_source_file>  (368) 
/var/tmp/pbs.5076255.sched01/tmpu61_44ix/12937f0afz8.sdf

>  <i_m_source_file_index>  (368) 
29

>  <i_lp_mmshare_version>  (368) 
48012

>  <i_f3d_flags>  (368) 
0

>  <s_epik_input>  (368) 
TjE9W0NIXVtDSDJdW0NAXShbT0hdKShbQ0gyXVtDSDNdKWMoYzEyKVtjSF1ubjJbQ0hdM1tDSDJdW0NIMl1bQ0gyXVtDSDJdMw==

>  <s_epik_cmdline>  (368) 
J2VwaWtfcHl0aG9uJywgJy1waHQnLCAnMi4wJywgJy1waCcsICc3LjAnLCAnLXRuJywgJzgnLCAnLW1hJywgJzIwMCcsICctaW1hZScsICc8aW5maWxlLm1hZT4nLCAnLW9tYWUnLCAnPG91dGZpbGUubWFlPic=

>  <r_lp_tautomer_probability>  (368) 
1

>  <r_epik_Ionization_Penalty>  (368) 
0.000129563

>  <r_epik_Ionization_Penalty_Charging>  (368) 
0

>  <r_epik_Ionization_Penalty_Neutral>  (368) 
0.000129563

>  <r_epik_State_Penalty>  (368) 
-0

>  <r_epik_Charging_Adjusted_Penalty>  (368) 
0

>  <i_epik_Tot_Q>  (368) 
0

>  <i_epik_Tot_abs_Q>  (368) 
0

>  <s_epik_Chemistry_Notes>  (368) 
This compound has an imine and may undergo hydrolysis.

>  <s_lp_Force_Field>  (368) 
OPLS3e

>  <r_lp_Energy>  (368) 
25.1652

>  <b_lp_Chiralities_Consistent>  (368) 
1

>  <s_lp_Variant>  (368) 
113:0-1

>  <s_i_glide_gridfile>  (368) 
pfpi4k_grid

>  <i_i_glide_lignum>  (368) 
29

>  <i_i_glide_rotatable_bonds>  (368) 
3

>  <r_i_docking_score>  (368) 
-5.8835

>  <r_i_glide_ligand_efficiency>  (368) 
-0.346089

>  <r_i_glide_ligand_efficiency_sa>  (368) 
-0.889891

>  <r_i_glide_ligand_efficiency_ln>  (368) 
-1.53488

>  <r_i_glide_gscore>  (368) 
-5.8835

>  <r_i_glide_lipo>  (368) 
-1.99579

>  <r_i_glide_hbond>  (368) 
0

>  <r_i_glide_metal>  (368) 
-0

>  <r_i_glide_rewards>  (368) 
-2.75037

>  <r_i_glide_evdw>  (368) 
-22.9883

>  <r_i_glide_ecoul>  (368) 
-2.01987

>  <r_i_glide_erotb>  (368) 
0.315055

>  <r_i_glide_esite>  (368) 
0

>  <r_i_glide_emodel>  (368) 
-31.547

>  <r_i_glide_energy>  (368) 
-25.0082

>  <r_i_glide_einternal>  (368) 
2.90123

>  <r_i_glide_intrahb_reward>  (368) 
-0

>  <i_i_glide_confnum>  (368) 
2

>  <i_i_glide_posenum>  (368) 
32

>  <r_i_glide_eff_state_penalty>  (368) 
0

>  <ligand_id>  (368) 
113

>  <original_smiles>  (368) 
CCC1(O)CC=Nc2c1cnn2C1CCCC1

>  <smiles>  (368) 
[H]OC1(C([H])([H])C([H])([H])[H])c2c([H])nn(C3([H])C([H])([H])C([H])([H])C([H])([H])C3([H])[H])c2N=C([H])C1([H])[H]

$$$$
113:0:2
     RDKit          3D

 36 38  0  0  1  0  0  0  0  0999 V2000
  -10.2425   -9.3504   -8.5083 C   0  0  0  0  0  0  0  0  0  0  0  0
   -9.9719   -8.3093   -9.6108 C   0  0  0  0  0  0  0  0  0  0  0  0
   -9.4980   -6.9275   -9.1161 C   0  0  1  0  0  0  0  0  0  0  0  0
   -9.2110   -6.1788  -10.2778 O   0  0  0  0  0  0  0  0  0  0  0  0
  -10.6018   -6.1347   -8.3522 C   0  0  0  0  0  0  0  0  0  0  0  0
  -10.0644   -5.0792   -7.3826 C   0  0  0  0  0  0  0  0  0  0  0  0
   -8.9012   -5.1184   -6.8544 N   0  0  0  0  0  0  0  0  0  0  0  0
   -8.0589   -6.1531   -7.2044 C   0  0  0  0  0  0  0  0  0  0  0  0
   -8.2810   -7.0130   -8.2293 C   0  0  0  0  0  0  0  0  0  0  0  0
   -7.1558   -7.8929   -8.1729 C   0  0  0  0  0  0  0  0  0  0  0  0
   -6.3298   -7.5907   -7.1695 N   0  0  0  0  0  0  0  0  0  0  0  0
   -6.8504   -6.4738   -6.6100 N   0  0  0  0  0  0  0  0  0  0  0  0
   -6.1453   -5.7987   -5.5266 C   0  0  0  0  0  0  0  0  0  0  0  0
   -6.9407   -5.9212   -4.2410 C   0  0  0  0  0  0  0  0  0  0  0  0
   -6.9745   -4.5553   -3.5681 C   0  0  0  0  0  0  0  0  0  0  0  0
   -5.9652   -3.7139   -4.3330 C   0  0  0  0  0  0  0  0  0  0  0  0
   -5.9673   -4.2794   -5.7352 C   0  0  0  0  0  0  0  0  0  0  0  0
  -10.5824  -10.2853   -8.9529 H   0  0  0  0  0  0  0  0  0  0  0  0
  -11.0185   -9.0213   -7.8182 H   0  0  0  0  0  0  0  0  0  0  0  0
   -9.3479   -9.5705   -7.9257 H   0  0  0  0  0  0  0  0  0  0  0  0
   -9.2193   -8.7257  -10.2834 H   0  0  0  0  0  0  0  0  0  0  0  0
  -10.8715   -8.1724  -10.2145 H   0  0  0  0  0  0  0  0  0  0  0  0
   -8.5115   -6.6155  -10.7370 H   0  0  0  0  0  0  0  0  0  0  0  0
  -11.3493   -5.7019   -9.0225 H   0  0  0  0  0  0  0  0  0  0  0  0
  -11.1433   -6.8166   -7.6994 H   0  0  0  0  0  0  0  0  0  0  0  0
  -10.7838   -4.2928   -7.1391 H   0  0  0  0  0  0  0  0  0  0  0  0
   -6.9112   -8.7325   -8.8185 H   0  0  0  0  0  0  0  0  0  0  0  0
   -5.1663   -6.2597   -5.3676 H   0  0  0  0  0  0  0  0  0  0  0  0
   -7.9610   -6.1867   -4.5155 H   0  0  0  0  0  0  0  0  0  0  0  0
   -6.5212   -6.6791   -3.5787 H   0  0  0  0  0  0  0  0  0  0  0  0
   -7.9788   -4.1512   -3.7006 H   0  0  0  0  0  0  0  0  0  0  0  0
   -6.7614   -4.6005   -2.4994 H   0  0  0  0  0  0  0  0  0  0  0  0
   -6.1862   -2.6549   -4.3194 H   0  0  0  0  0  0  0  0  0  0  0  0
   -4.9758   -3.8488   -3.9274 H   0  0  0  0  0  0  0  0  0  0  0  0
   -5.0681   -3.9698   -6.2639 H   0  0  0  0  0  0  0  0  0  0  0  0
   -6.8114   -3.8676   -6.2810 H   0  0  0  0  0  0  0  0  0  0  0  0
  1  2  1  0
  1 18  1  0
  1 19  1  0
  1 20  1  0
  2  3  1  0
  2 21  1  0
  2 22  1  0
  3  9  1  0
  3  4  1  6
  3  5  1  0
  4 23  1  0
  5  6  1  0
  5 24  1  0
  5 25  1  0
  6  7  2  0
  6 26  1  0
  7  8  1  0
  8 12  1  0
  8  9  2  0
  9 10  1  0
 10 11  2  0
 10 27  1  0
 11 12  1  0
 12 13  1  0
 13 17  1  0
 13 14  1  0
 13 28  1  0
 14 15  1  0
 14 29  1  0
 14 30  1  0
 15 16  1  0
 15 31  1  0
 15 32  1  0
 16 17  1  0
 16 33  1  0
 16 34  1  0
 17 35  1  0
 17 36  1  0
M  END
>  <i_m_ct_stereo_status>  (369) 
1

>  <s_m_source_file>  (369) 
/var/tmp/pbs.5076255.sched01/tmpu61_44ix/12937f0afz8.sdf

>  <i_m_source_file_index>  (369) 
29

>  <i_lp_mmshare_version>  (369) 
48012

>  <i_f3d_flags>  (369) 
0

>  <s_epik_input>  (369) 
TjE9W0NIXVtDSDJdW0NAXShbT0hdKShbQ0gyXVtDSDNdKWMoYzEyKVtjSF1ubjJbQ0hdM1tDSDJdW0NIMl1bQ0gyXVtDSDJdMw==

>  <s_epik_cmdline>  (369) 
J2VwaWtfcHl0aG9uJywgJy1waHQnLCAnMi4wJywgJy1waCcsICc3LjAnLCAnLXRuJywgJzgnLCAnLW1hJywgJzIwMCcsICctaW1hZScsICc8aW5maWxlLm1hZT4nLCAnLW9tYWUnLCAnPG91dGZpbGUubWFlPic=

>  <r_lp_tautomer_probability>  (369) 
1

>  <r_epik_Ionization_Penalty>  (369) 
0.000129563

>  <r_epik_Ionization_Penalty_Charging>  (369) 
0

>  <r_epik_Ionization_Penalty_Neutral>  (369) 
0.000129563

>  <r_epik_State_Penalty>  (369) 
-0

>  <r_epik_Charging_Adjusted_Penalty>  (369) 
0

>  <i_epik_Tot_Q>  (369) 
0

>  <i_epik_Tot_abs_Q>  (369) 
0

>  <s_epik_Chemistry_Notes>  (369) 
This compound has an imine and may undergo hydrolysis.

>  <s_lp_Force_Field>  (369) 
OPLS3e

>  <r_lp_Energy>  (369) 
25.1652

>  <b_lp_Chiralities_Consistent>  (369) 
1

>  <s_lp_Variant>  (369) 
113:0-1

>  <s_i_glide_gridfile>  (369) 
pfpi4k_grid

>  <i_i_glide_lignum>  (369) 
29

>  <i_i_glide_rotatable_bonds>  (369) 
3

>  <r_i_docking_score>  (369) 
-4.77721

>  <r_i_glide_ligand_efficiency>  (369) 
-0.281012

>  <r_i_glide_ligand_efficiency_sa>  (369) 
-0.722561

>  <r_i_glide_ligand_efficiency_ln>  (369) 
-1.24627

>  <r_i_glide_gscore>  (369) 
-4.77721

>  <r_i_glide_lipo>  (369) 
-1.7583

>  <r_i_glide_hbond>  (369) 
0

>  <r_i_glide_metal>  (369) 
-0

>  <r_i_glide_rewards>  (369) 
-2.34577

>  <r_i_glide_evdw>  (369) 
-16.7986

>  <r_i_glide_ecoul>  (369) 
-0.988472

>  <r_i_glide_erotb>  (369) 
0.315055

>  <r_i_glide_esite>  (369) 
0

>  <r_i_glide_emodel>  (369) 
-22.6135

>  <r_i_glide_energy>  (369) 
-17.787

>  <r_i_glide_einternal>  (369) 
1.8828

>  <r_i_glide_intrahb_reward>  (369) 
-0

>  <i_i_glide_confnum>  (369) 
2

>  <i_i_glide_posenum>  (369) 
24

>  <r_i_glide_eff_state_penalty>  (369) 
0

>  <ligand_id>  (369) 
113

>  <original_smiles>  (369) 
CCC1(O)CC=Nc2c1cnn2C1CCCC1

>  <smiles>  (369) 
[H]OC1(C([H])([H])C([H])([H])[H])c2c([H])nn(C3([H])C([H])([H])C([H])([H])C([H])([H])C3([H])[H])c2N=C([H])C1([H])[H]

$$$$
114:0:0
     RDKit          3D

 51 53  0  0  1  0  0  0  0  0999 V2000
   -2.6161    1.3991    7.2795 C   0  0  0  0  0  0  0  0  0  0  0  0
   -2.6981    2.6024    6.3337 C   0  0  0  0  0  0  0  0  0  0  0  0
   -1.6634    3.6936    6.6536 C   0  0  0  0  0  0  0  0  0  0  0  0
   -0.2067    3.1875    6.7005 C   0  0  0  0  0  0  0  0  0  0  0  0
    0.2292    2.4558    5.4141 C   0  0  0  0  0  0  0  0  0  0  0  0
    1.6642    1.9193    5.4791 C   0  0  0  0  0  0  0  0  0  0  0  0
    2.0954    1.3072    4.1704 C   0  0  0  0  0  0  0  0  0  0  0  0
    2.4497    1.9720    2.9619 C   0  0  0  0  0  0  0  0  0  0  0  0
    2.4877    3.4447    2.6859 C   0  0  0  0  0  0  0  0  0  0  0  0
    2.7760    1.1286    1.9960 N   0  0  0  0  0  0  0  0  0  0  0  0
    2.6703   -0.1167    2.5156 N   0  0  0  0  0  0  0  0  0  0  0  0
    2.9830   -1.2611    1.7122 C   0  0  0  0  0  0  0  0  0  0  0  0
    2.7372   -2.4670    2.2469 N   0  0  0  0  0  0  0  0  0  0  0  0
    3.0380   -3.4767    1.4334 C   0  0  0  0  0  0  0  0  0  0  0  0
    3.5168   -3.4094    0.1988 N   0  0  0  0  0  0  0  0  0  0  0  0
    3.7260   -2.1598   -0.2224 C   0  0  0  0  0  0  0  0  0  0  0  0
    4.2518   -2.0013   -1.5128 N   0  0  0  0  0  0  0  0  0  0  0  0
    4.5093   -3.1195   -2.4290 C   0  0  0  0  0  0  0  0  0  0  0  0
    3.7865   -2.8813   -3.7651 C   0  0  0  0  0  0  0  0  0  0  0  0
    4.2035   -1.6384   -4.3191 O   0  0  0  0  0  0  0  0  0  0  0  0
    3.8418   -0.5522   -3.4727 C   0  0  0  0  0  0  0  0  0  0  0  0
    4.5394   -0.6920   -2.1085 C   0  0  0  0  0  0  0  0  0  0  0  0
    3.5132   -1.0583    0.4982 N   0  0  0  0  0  0  0  0  0  0  0  0
    2.2506   -0.0104    3.8381 C   0  0  0  0  0  0  0  0  0  0  0  0
    2.0586   -1.1111    4.6193 O   0  0  0  0  0  0  0  0  0  0  0  0
    2.2634   -1.8616    4.0716 H   0  0  0  0  0  0  0  0  0  0  0  0
   -3.3542    0.6524    6.9891 H   0  0  0  0  0  0  0  0  0  0  0  0
   -2.8020    1.7141    8.3068 H   0  0  0  0  0  0  0  0  0  0  0  0
   -1.6402    0.9149    7.2463 H   0  0  0  0  0  0  0  0  0  0  0  0
   -2.5780    2.2661    5.3046 H   0  0  0  0  0  0  0  0  0  0  0  0
   -3.7030    3.0230    6.3759 H   0  0  0  0  0  0  0  0  0  0  0  0
   -1.7413    4.4819    5.9055 H   0  0  0  0  0  0  0  0  0  0  0  0
   -1.9142    4.1589    7.6091 H   0  0  0  0  0  0  0  0  0  0  0  0
    0.4544    4.0364    6.8861 H   0  0  0  0  0  0  0  0  0  0  0  0
   -0.0750    2.5352    7.5645 H   0  0  0  0  0  0  0  0  0  0  0  0
   -0.4225    1.6055    5.2153 H   0  0  0  0  0  0  0  0  0  0  0  0
    0.1125    3.1362    4.5700 H   0  0  0  0  0  0  0  0  0  0  0  0
    2.3374    2.7286    5.7475 H   0  0  0  0  0  0  0  0  0  0  0  0
    1.7314    1.1917    6.2893 H   0  0  0  0  0  0  0  0  0  0  0  0
    2.2124    4.0358    3.5535 H   0  0  0  0  0  0  0  0  0  0  0  0
    1.8187    3.7011    1.8740 H   0  0  0  0  0  0  0  0  0  0  0  0
    3.4658    3.7780    2.3722 H   0  0  0  0  0  0  0  0  0  0  0  0
    2.8720   -4.4740    1.8201 H   0  0  0  0  0  0  0  0  0  0  0  0
    5.5861   -3.2027   -2.5924 H   0  0  0  0  0  0  0  0  0  0  0  0
    4.1892   -4.0852   -2.0326 H   0  0  0  0  0  0  0  0  0  0  0  0
    4.0342   -3.6793   -4.4610 H   0  0  0  0  0  0  0  0  0  0  0  0
    2.7031   -2.8986   -3.6361 H   0  0  0  0  0  0  0  0  0  0  0  0
    4.1461    0.3791   -3.9465 H   0  0  0  0  0  0  0  0  0  0  0  0
    2.7598   -0.5036   -3.3485 H   0  0  0  0  0  0  0  0  0  0  0  0
    4.2394    0.1441   -1.4755 H   0  0  0  0  0  0  0  0  0  0  0  0
    5.6175   -0.6126   -2.2292 H   0  0  0  0  0  0  0  0  0  0  0  0
  1  2  1  0
  1 27  1  0
  1 28  1  0
  1 29  1  0
  2  3  1  0
  2 30  1  0
  2 31  1  0
  3  4  1  0
  3 32  1  0
  3 33  1  0
  4  5  1  0
  4 34  1  0
  4 35  1  0
  5  6  1  0
  5 36  1  0
  5 37  1  0
  6 38  1  0
  6 39  1  0
  6  7  1  0
  7  8  1  0
  7 24  2  0
  8  9  1  0
  8 10  2  0
  9 40  1  0
  9 41  1  0
  9 42  1  0
 10 11  1  0
 11 12  1  0
 11 24  1  0
 12 23  1  0
 12 13  2  0
 13 14  1  0
 14 15  2  0
 14 43  1  0
 15 16  1  0
 16 17  1  0
 16 23  2  0
 17 22  1  0
 17 18  1  0
 18 19  1  0
 18 44  1  0
 18 45  1  0
 19 20  1  0
 19 46  1  0
 19 47  1  0
 20 21  1  0
 21 22  1  0
 21 48  1  0
 21 49  1  0
 22 50  1  0
 22 51  1  0
 24 25  1  0
 25 26  1  0
M  END
>  <i_m_ct_stereo_status>  (370) 
1

>  <s_m_source_file>  (370) 
/var/tmp/pbs.5076255.sched01/tmpu61_44ix/12937f0afz8.sdf

>  <i_m_source_file_index>  (370) 
30

>  <i_lp_mmshare_version>  (370) 
48012

>  <i_f3d_flags>  (370) 
0

>  <s_epik_input>  (370) 
W0NIM11bQ0gyXVtDSDJdW0NIMl1bQ0gyXVtDSDJdYzFjKFtDSDNdKVtuSF1uKGMxPU8pLWMybltjSF1uYyhuMilOM1tDSDJdW0NIMl1PW0NIMl1bQ0gyXTM=

>  <s_epik_cmdline>  (370) 
J2VwaWtfcHl0aG9uJywgJy1waHQnLCAnMi4wJywgJy1waCcsICc3LjAnLCAnLXRuJywgJzgnLCAnLW1hJywgJzIwMCcsICctaW1hZScsICc8aW5maWxlLm1hZT4nLCAnLW9tYWUnLCAnPG91dGZpbGUubWFlPic=

>  <r_lp_tautomer_probability>  (370) 
0.67048

>  <r_epik_Ionization_Penalty>  (370) 
0.13071

>  <r_epik_Ionization_Penalty_Charging>  (370) 
0

>  <r_epik_Ionization_Penalty_Neutral>  (370) 
0.13071

>  <r_epik_State_Penalty>  (370) 
0.307818

>  <r_epik_Charging_Adjusted_Penalty>  (370) 
0.307818

>  <i_epik_Tot_Q>  (370) 
0

>  <i_epik_Tot_abs_Q>  (370) 
0

>  <s_lp_Force_Field>  (370) 
OPLS3e

>  <r_lp_Energy>  (370) 
27.3774

>  <b_lp_Chiralities_Consistent>  (370) 
1

>  <s_lp_Variant>  (370) 
114:0-1

>  <s_i_glide_gridfile>  (370) 
pfpi4k_grid

>  <i_i_glide_lignum>  (370) 
30

>  <i_i_glide_rotatable_bonds>  (370) 
8

>  <r_i_docking_score>  (370) 
-3.47154

>  <r_i_glide_ligand_efficiency>  (370) 
-0.138862

>  <r_i_glide_ligand_efficiency_sa>  (370) 
-0.406034

>  <r_i_glide_ligand_efficiency_ln>  (370) 
-0.822859

>  <r_i_glide_gscore>  (370) 
-3.47154

>  <r_i_glide_lipo>  (370) 
-0.619337

>  <r_i_glide_hbond>  (370) 
-0.32

>  <r_i_glide_metal>  (370) 
-0

>  <r_i_glide_rewards>  (370) 
-1.54709

>  <r_i_glide_evdw>  (370) 
-27.312

>  <r_i_glide_ecoul>  (370) 
-3.01199

>  <r_i_glide_erotb>  (370) 
0.950505

>  <r_i_glide_esite>  (370) 
-0.118224

>  <r_i_glide_emodel>  (370) 
-41.209

>  <r_i_glide_energy>  (370) 
-30.3239

>  <r_i_glide_einternal>  (370) 
2.86694

>  <r_i_glide_intrahb_reward>  (370) 
-0.5

>  <i_i_glide_confnum>  (370) 
6

>  <i_i_glide_posenum>  (370) 
17

>  <r_i_glide_eff_state_penalty>  (370) 
0

>  <ligand_id>  (370) 
114

>  <original_smiles>  (370) 
CCCCCCc1c(C)[nH]n(-c2ncnc(N3CCOCC3)n2)c1=O

>  <smiles>  (370) 
[H]Oc1c(C([H])([H])C([H])([H])C([H])([H])C([H])([H])C([H])([H])C([H])([H])[H])c(C([H])([H])[H])nn1-c1nc([H])nc(N2C([H])([H])C([H])([H])OC([H])([H])C2([H])[H])n1

$$$$
114:0:1
     RDKit          3D

 51 53  0  0  1  0  0  0  0  0999 V2000
   -2.4927    3.0037   10.1481 C   0  0  0  0  0  0  0  0  0  0  0  0
   -1.4469    3.4375    9.1123 C   0  0  0  0  0  0  0  0  0  0  0  0
   -2.0678    3.8426    7.7638 C   0  0  0  0  0  0  0  0  0  0  0  0
   -2.5015    2.6438    6.8957 C   0  0  0  0  0  0  0  0  0  0  0  0
   -1.3155    1.9338    6.2141 C   0  0  0  0  0  0  0  0  0  0  0  0
   -1.7405    0.7683    5.3093 C   0  0  0  0  0  0  0  0  0  0  0  0
   -0.6097    0.2770    4.4410 C   0  0  0  0  0  0  0  0  0  0  0  0
   -0.3376    0.6109    3.0822 C   0  0  0  0  0  0  0  0  0  0  0  0
   -1.0974    1.5267    2.1715 C   0  0  0  0  0  0  0  0  0  0  0  0
    0.7299   -0.0074    2.6075 N   0  0  0  0  0  0  0  0  0  0  0  0
    1.2153   -0.7640    3.6225 N   0  0  0  0  0  0  0  0  0  0  0  0
    2.3880   -1.5605    3.4276 C   0  0  0  0  0  0  0  0  0  0  0  0
    2.5878   -2.5799    4.2767 N   0  0  0  0  0  0  0  0  0  0  0  0
    3.6879   -3.2819    4.0015 C   0  0  0  0  0  0  0  0  0  0  0  0
    4.5715   -3.0688    3.0320 N   0  0  0  0  0  0  0  0  0  0  0  0
    4.2675   -2.0199    2.2632 C   0  0  0  0  0  0  0  0  0  0  0  0
    5.1467   -1.7141    1.2172 N   0  0  0  0  0  0  0  0  0  0  0  0
    4.9307   -0.5988    0.2918 C   0  0  0  0  0  0  0  0  0  0  0  0
    4.9787   -1.1007   -1.1615 C   0  0  0  0  0  0  0  0  0  0  0  0
    6.2136   -1.7615   -1.4034 O   0  0  0  0  0  0  0  0  0  0  0  0
    6.3710   -2.9006   -0.5670 C   0  0  0  0  0  0  0  0  0  0  0  0
    6.3666   -2.4682    0.9112 C   0  0  0  0  0  0  0  0  0  0  0  0
    3.2008   -1.2343    2.4133 N   0  0  0  0  0  0  0  0  0  0  0  0
    0.4044   -0.5902    4.7373 C   0  0  0  0  0  0  0  0  0  0  0  0
    0.6571   -1.2228    5.9175 O   0  0  0  0  0  0  0  0  0  0  0  0
    1.4254   -1.7606    5.7702 H   0  0  0  0  0  0  0  0  0  0  0  0
   -2.0130    2.7252   11.0862 H   0  0  0  0  0  0  0  0  0  0  0  0
   -3.0701    2.1447    9.8123 H   0  0  0  0  0  0  0  0  0  0  0  0
   -3.1947    3.8093   10.3638 H   0  0  0  0  0  0  0  0  0  0  0  0
   -0.8902    4.2836    9.5163 H   0  0  0  0  0  0  0  0  0  0  0  0
   -0.7129    2.6440    8.9734 H   0  0  0  0  0  0  0  0  0  0  0  0
   -2.9216    4.4959    7.9548 H   0  0  0  0  0  0  0  0  0  0  0  0
   -1.3593    4.4544    7.2031 H   0  0  0  0  0  0  0  0  0  0  0  0
   -3.0736    1.9352    7.4940 H   0  0  0  0  0  0  0  0  0  0  0  0
   -3.1907    3.0054    6.1309 H   0  0  0  0  0  0  0  0  0  0  0  0
   -0.7738    2.6709    5.6204 H   0  0  0  0  0  0  0  0  0  0  0  0
   -0.6097    1.5603    6.9558 H   0  0  0  0  0  0  0  0  0  0  0  0
   -2.1447   -0.0376    5.9218 H   0  0  0  0  0  0  0  0  0  0  0  0
   -2.5602    1.0901    4.6734 H   0  0  0  0  0  0  0  0  0  0  0  0
   -1.9378    2.0038    2.6723 H   0  0  0  0  0  0  0  0  0  0  0  0
   -1.4922    0.9862    1.3133 H   0  0  0  0  0  0  0  0  0  0  0  0
   -0.4509    2.3160    1.7968 H   0  0  0  0  0  0  0  0  0  0  0  0
    3.8931   -4.1258    4.6447 H   0  0  0  0  0  0  0  0  0  0  0  0
    3.9827   -0.0819    0.4504 H   0  0  0  0  0  0  0  0  0  0  0  0
    5.7131    0.1389    0.4713 H   0  0  0  0  0  0  0  0  0  0  0  0
    4.1381   -1.7645   -1.3670 H   0  0  0  0  0  0  0  0  0  0  0  0
    4.8877   -0.2602   -1.8505 H   0  0  0  0  0  0  0  0  0  0  0  0
    5.5794   -3.6232   -0.7641 H   0  0  0  0  0  0  0  0  0  0  0  0
    7.3153   -3.3843   -0.8140 H   0  0  0  0  0  0  0  0  0  0  0  0
    7.2257   -1.8252    1.1117 H   0  0  0  0  0  0  0  0  0  0  0  0
    6.4901   -3.3528    1.5392 H   0  0  0  0  0  0  0  0  0  0  0  0
  1  2  1  0
  1 27  1  0
  1 28  1  0
  1 29  1  0
  2  3  1  0
  2 30  1  0
  2 31  1  0
  3  4  1  0
  3 32  1  0
  3 33  1  0
  4  5  1  0
  4 34  1  0
  4 35  1  0
  5  6  1  0
  5 36  1  0
  5 37  1  0
  6 38  1  0
  6 39  1  0
  6  7  1  0
  7  8  1  0
  7 24  2  0
  8  9  1  0
  8 10  2  0
  9 40  1  0
  9 41  1  0
  9 42  1  0
 10 11  1  0
 11 12  1  0
 11 24  1  0
 12 23  1  0
 12 13  2  0
 13 14  1  0
 14 15  2  0
 14 43  1  0
 15 16  1  0
 16 17  1  0
 16 23  2  0
 17 22  1  0
 17 18  1  0
 18 19  1  0
 18 44  1  0
 18 45  1  0
 19 20  1  0
 19 46  1  0
 19 47  1  0
 20 21  1  0
 21 22  1  0
 21 48  1  0
 21 49  1  0
 22 50  1  0
 22 51  1  0
 24 25  1  0
 25 26  1  0
M  END
>  <i_m_ct_stereo_status>  (371) 
1

>  <s_m_source_file>  (371) 
/var/tmp/pbs.5076255.sched01/tmpu61_44ix/12937f0afz8.sdf

>  <i_m_source_file_index>  (371) 
30

>  <i_lp_mmshare_version>  (371) 
48012

>  <i_f3d_flags>  (371) 
0

>  <s_epik_input>  (371) 
W0NIM11bQ0gyXVtDSDJdW0NIMl1bQ0gyXVtDSDJdYzFjKFtDSDNdKVtuSF1uKGMxPU8pLWMybltjSF1uYyhuMilOM1tDSDJdW0NIMl1PW0NIMl1bQ0gyXTM=

>  <s_epik_cmdline>  (371) 
J2VwaWtfcHl0aG9uJywgJy1waHQnLCAnMi4wJywgJy1waCcsICc3LjAnLCAnLXRuJywgJzgnLCAnLW1hJywgJzIwMCcsICctaW1hZScsICc8aW5maWxlLm1hZT4nLCAnLW9tYWUnLCAnPG91dGZpbGUubWFlPic=

>  <r_lp_tautomer_probability>  (371) 
0.67048

>  <r_epik_Ionization_Penalty>  (371) 
0.13071

>  <r_epik_Ionization_Penalty_Charging>  (371) 
0

>  <r_epik_Ionization_Penalty_Neutral>  (371) 
0.13071

>  <r_epik_State_Penalty>  (371) 
0.307818

>  <r_epik_Charging_Adjusted_Penalty>  (371) 
0.307818

>  <i_epik_Tot_Q>  (371) 
0

>  <i_epik_Tot_abs_Q>  (371) 
0

>  <s_lp_Force_Field>  (371) 
OPLS3e

>  <r_lp_Energy>  (371) 
27.3774

>  <b_lp_Chiralities_Consistent>  (371) 
1

>  <s_lp_Variant>  (371) 
114:0-1

>  <s_i_glide_gridfile>  (371) 
pfpi4k_grid

>  <i_i_glide_lignum>  (371) 
30

>  <i_i_glide_rotatable_bonds>  (371) 
8

>  <r_i_docking_score>  (371) 
-2.79091

>  <r_i_glide_ligand_efficiency>  (371) 
-0.111636

>  <r_i_glide_ligand_efficiency_sa>  (371) 
-0.326426

>  <r_i_glide_ligand_efficiency_ln>  (371) 
-0.661528

>  <r_i_glide_gscore>  (371) 
-2.79091

>  <r_i_glide_lipo>  (371) 
-0.407897

>  <r_i_glide_hbond>  (371) 
-0.139246

>  <r_i_glide_metal>  (371) 
-0

>  <r_i_glide_rewards>  (371) 
-1.65921

>  <r_i_glide_evdw>  (371) 
-24.8702

>  <r_i_glide_ecoul>  (371) 
-1.89515

>  <r_i_glide_erotb>  (371) 
0.950505

>  <r_i_glide_esite>  (371) 
-0.00727551

>  <r_i_glide_emodel>  (371) 
-36.3186

>  <r_i_glide_energy>  (371) 
-26.7654

>  <r_i_glide_einternal>  (371) 
2.83924

>  <r_i_glide_intrahb_reward>  (371) 
-0.5

>  <i_i_glide_confnum>  (371) 
7

>  <i_i_glide_posenum>  (371) 
4

>  <r_i_glide_eff_state_penalty>  (371) 
0

>  <ligand_id>  (371) 
114

>  <original_smiles>  (371) 
CCCCCCc1c(C)[nH]n(-c2ncnc(N3CCOCC3)n2)c1=O

>  <smiles>  (371) 
[H]Oc1c(C([H])([H])C([H])([H])C([H])([H])C([H])([H])C([H])([H])C([H])([H])[H])c(C([H])([H])[H])nn1-c1nc([H])nc(N2C([H])([H])C([H])([H])OC([H])([H])C2([H])[H])n1

$$$$
114:0:2
     RDKit          3D

 51 53  0  0  1  0  0  0  0  0999 V2000
    2.1163   -3.0517   -3.7867 C   0  0  0  0  0  0  0  0  0  0  0  0
    3.2375   -2.0149   -3.6617 C   0  0  0  0  0  0  0  0  0  0  0  0
    4.4698   -2.5440   -2.9089 C   0  0  0  0  0  0  0  0  0  0  0  0
    4.1511   -2.9728   -1.4654 C   0  0  0  0  0  0  0  0  0  0  0  0
    5.3964   -3.3777   -0.6674 C   0  0  0  0  0  0  0  0  0  0  0  0
    5.0990   -3.7819    0.7932 C   0  0  0  0  0  0  0  0  0  0  0  0
    4.2388   -2.7970    1.5507 C   0  0  0  0  0  0  0  0  0  0  0  0
    4.5329   -1.4157    1.8470 C   0  0  0  0  0  0  0  0  0  0  0  0
    5.7462   -0.6136    1.4951 C   0  0  0  0  0  0  0  0  0  0  0  0
    3.5602   -0.8256    2.5289 N   0  0  0  0  0  0  0  0  0  0  0  0
    2.5922   -1.7679    2.7021 N   0  0  0  0  0  0  0  0  0  0  0  0
    1.3909   -1.4445    3.4116 C   0  0  0  0  0  0  0  0  0  0  0  0
    0.8803   -2.3711    4.2193 N   0  0  0  0  0  0  0  0  0  0  0  0
   -0.2025   -1.9668    4.8479 C   0  0  0  0  0  0  0  0  0  0  0  0
   -0.8181   -0.8001    4.7636 N   0  0  0  0  0  0  0  0  0  0  0  0
   -0.1964    0.0325    3.9355 C   0  0  0  0  0  0  0  0  0  0  0  0
   -0.7668    1.3275    3.7877 N   0  0  0  0  0  0  0  0  0  0  0  0
   -0.1888    2.3694    2.9345 C   0  0  0  0  0  0  0  0  0  0  0  0
    0.0002    3.6630    3.7434 C   0  0  0  0  0  0  0  0  0  0  0  0
   -1.2402    4.0743    4.3179 O   0  0  0  0  0  0  0  0  0  0  0  0
   -1.7523    3.0878    5.2048 C   0  0  0  0  0  0  0  0  0  0  0  0
   -1.9941    1.7708    4.4466 C   0  0  0  0  0  0  0  0  0  0  0  0
    0.8965   -0.2171    3.2403 N   0  0  0  0  0  0  0  0  0  0  0  0
    3.0109   -2.9516    2.1094 C   0  0  0  0  0  0  0  0  0  0  0  0
    2.2311   -4.0768    2.1205 O   0  0  0  0  0  0  0  0  0  0  0  0
    2.7508   -4.7582    1.7502 H   0  0  0  0  0  0  0  0  0  0  0  0
    1.2618   -2.6475   -4.3199 H   0  0  0  0  0  0  0  0  0  0  0  0
    1.7370   -3.3546   -2.8110 H   0  0  0  0  0  0  0  0  0  0  0  0
    2.4575   -3.9474   -4.3055 H   0  0  0  0  0  0  0  0  0  0  0  0
    3.5350   -1.6910   -4.6595 H   0  0  0  0  0  0  0  0  0  0  0  0
    2.8532   -1.1245   -3.1606 H   0  0  0  0  0  0  0  0  0  0  0  0
    4.9129   -3.3776   -3.4548 H   0  0  0  0  0  0  0  0  0  0  0  0
    5.2225   -1.7555   -2.8880 H   0  0  0  0  0  0  0  0  0  0  0  0
    3.6276   -2.1523   -0.9722 H   0  0  0  0  0  0  0  0  0  0  0  0
    3.4726   -3.8253   -1.4672 H   0  0  0  0  0  0  0  0  0  0  0  0
    5.9031   -4.1996   -1.1695 H   0  0  0  0  0  0  0  0  0  0  0  0
    6.0994   -2.5498   -0.6980 H   0  0  0  0  0  0  0  0  0  0  0  0
    4.6297   -4.7665    0.7814 H   0  0  0  0  0  0  0  0  0  0  0  0
    6.0470   -3.9283    1.3094 H   0  0  0  0  0  0  0  0  0  0  0  0
    6.4864   -1.1867    0.9425 H   0  0  0  0  0  0  0  0  0  0  0  0
    6.2432   -0.2553    2.3945 H   0  0  0  0  0  0  0  0  0  0  0  0
    5.4791    0.2481    0.8832 H   0  0  0  0  0  0  0  0  0  0  0  0
   -0.6791   -2.7005    5.5080 H   0  0  0  0  0  0  0  0  0  0  0  0
    0.7736    2.0880    2.5046 H   0  0  0  0  0  0  0  0  0  0  0  0
   -0.8579    2.5359    2.0912 H   0  0  0  0  0  0  0  0  0  0  0  0
    0.7450    3.5188    4.5264 H   0  0  0  0  0  0  0  0  0  0  0  0
    0.3767    4.4551    3.0992 H   0  0  0  0  0  0  0  0  0  0  0  0
   -1.0631    2.9329    6.0346 H   0  0  0  0  0  0  0  0  0  0  0  0
   -2.6876    3.4534    5.6288 H   0  0  0  0  0  0  0  0  0  0  0  0
   -2.7597    1.9250    3.6847 H   0  0  0  0  0  0  0  0  0  0  0  0
   -2.3869    1.0292    5.1435 H   0  0  0  0  0  0  0  0  0  0  0  0
  1  2  1  0
  1 27  1  0
  1 28  1  0
  1 29  1  0
  2  3  1  0
  2 30  1  0
  2 31  1  0
  3  4  1  0
  3 32  1  0
  3 33  1  0
  4  5  1  0
  4 34  1  0
  4 35  1  0
  5  6  1  0
  5 36  1  0
  5 37  1  0
  6 38  1  0
  6 39  1  0
  6  7  1  0
  7  8  1  0
  7 24  2  0
  8  9  1  0
  8 10  2  0
  9 40  1  0
  9 41  1  0
  9 42  1  0
 10 11  1  0
 11 12  1  0
 11 24  1  0
 12 23  1  0
 12 13  2  0
 13 14  1  0
 14 15  2  0
 14 43  1  0
 15 16  1  0
 16 17  1  0
 16 23  2  0
 17 22  1  0
 17 18  1  0
 18 19  1  0
 18 44  1  0
 18 45  1  0
 19 20  1  0
 19 46  1  0
 19 47  1  0
 20 21  1  0
 21 22  1  0
 21 48  1  0
 21 49  1  0
 22 50  1  0
 22 51  1  0
 24 25  1  0
 25 26  1  0
M  END
>  <i_m_ct_stereo_status>  (372) 
1

>  <s_m_source_file>  (372) 
/var/tmp/pbs.5076255.sched01/tmpu61_44ix/12937f0afz8.sdf

>  <i_m_source_file_index>  (372) 
30

>  <i_lp_mmshare_version>  (372) 
48012

>  <i_f3d_flags>  (372) 
0

>  <s_epik_input>  (372) 
W0NIM11bQ0gyXVtDSDJdW0NIMl1bQ0gyXVtDSDJdYzFjKFtDSDNdKVtuSF1uKGMxPU8pLWMybltjSF1uYyhuMilOM1tDSDJdW0NIMl1PW0NIMl1bQ0gyXTM=

>  <s_epik_cmdline>  (372) 
J2VwaWtfcHl0aG9uJywgJy1waHQnLCAnMi4wJywgJy1waCcsICc3LjAnLCAnLXRuJywgJzgnLCAnLW1hJywgJzIwMCcsICctaW1hZScsICc8aW5maWxlLm1hZT4nLCAnLW9tYWUnLCAnPG91dGZpbGUubWFlPic=

>  <r_lp_tautomer_probability>  (372) 
0.67048

>  <r_epik_Ionization_Penalty>  (372) 
0.13071

>  <r_epik_Ionization_Penalty_Charging>  (372) 
0

>  <r_epik_Ionization_Penalty_Neutral>  (372) 
0.13071

>  <r_epik_State_Penalty>  (372) 
0.307818

>  <r_epik_Charging_Adjusted_Penalty>  (372) 
0.307818

>  <i_epik_Tot_Q>  (372) 
0

>  <i_epik_Tot_abs_Q>  (372) 
0

>  <s_lp_Force_Field>  (372) 
OPLS3e

>  <r_lp_Energy>  (372) 
27.3774

>  <b_lp_Chiralities_Consistent>  (372) 
1

>  <s_lp_Variant>  (372) 
114:0-1

>  <s_i_glide_gridfile>  (372) 
pfpi4k_grid

>  <i_i_glide_lignum>  (372) 
30

>  <i_i_glide_rotatable_bonds>  (372) 
8

>  <r_i_docking_score>  (372) 
-2.58899

>  <r_i_glide_ligand_efficiency>  (372) 
-0.103559

>  <r_i_glide_ligand_efficiency_sa>  (372) 
-0.30281

>  <r_i_glide_ligand_efficiency_ln>  (372) 
-0.613668

>  <r_i_glide_gscore>  (372) 
-2.58899

>  <r_i_glide_lipo>  (372) 
-0.761311

>  <r_i_glide_hbond>  (372) 
0

>  <r_i_glide_metal>  (372) 
-0

>  <r_i_glide_rewards>  (372) 
-1.04709

>  <r_i_glide_evdw>  (372) 
-28.8579

>  <r_i_glide_ecoul>  (372) 
-1.49671

>  <r_i_glide_erotb>  (372) 
0.950505

>  <r_i_glide_esite>  (372) 
-0.0636946

>  <r_i_glide_emodel>  (372) 
-34.4935

>  <r_i_glide_energy>  (372) 
-30.3546

>  <r_i_glide_einternal>  (372) 
2.33139

>  <r_i_glide_intrahb_reward>  (372) 
-0

>  <i_i_glide_confnum>  (372) 
3

>  <i_i_glide_posenum>  (372) 
1

>  <r_i_glide_eff_state_penalty>  (372) 
0

>  <ligand_id>  (372) 
114

>  <original_smiles>  (372) 
CCCCCCc1c(C)[nH]n(-c2ncnc(N3CCOCC3)n2)c1=O

>  <smiles>  (372) 
[H]Oc1c(C([H])([H])C([H])([H])C([H])([H])C([H])([H])C([H])([H])C([H])([H])[H])c(C([H])([H])[H])nn1-c1nc([H])nc(N2C([H])([H])C([H])([H])OC([H])([H])C2([H])[H])n1

$$$$
114:1:0
     RDKit          3D

 51 53  0  0  1  0  0  0  0  0999 V2000
   -1.9931   -8.8156    2.9977 C   0  0  0  0  0  0  0  0  0  0  0  0
   -0.5769   -8.7280    3.5659 C   0  0  0  0  0  0  0  0  0  0  0  0
    0.4982   -8.9555    2.4965 C   0  0  0  0  0  0  0  0  0  0  0  0
    1.9272   -8.7852    3.0421 C   0  0  0  0  0  0  0  0  0  0  0  0
    2.9795   -8.6697    1.9306 C   0  0  0  0  0  0  0  0  0  0  0  0
    4.3740   -8.2717    2.4631 C   0  0  0  0  0  0  0  0  0  0  0  0
    5.3185   -7.7190    1.3665 C   0  0  2  0  0  0  0  0  0  0  0  0
    6.7172   -7.4659    1.8233 C   0  0  0  0  0  0  0  0  0  0  0  0
    7.5592   -8.4193    2.6096 C   0  0  0  0  0  0  0  0  0  0  0  0
    7.1391   -6.2933    1.4779 N   0  0  0  0  0  0  0  0  0  0  0  0
    6.1613   -5.6189    0.7922 N   0  0  0  0  0  0  0  0  0  0  0  0
    6.3478   -4.4107    0.1297 C   0  0  0  0  0  0  0  0  0  0  0  0
    7.4538   -3.7308    0.4456 N   0  0  0  0  0  0  0  0  0  0  0  0
    7.6638   -2.6794   -0.3183 C   0  0  0  0  0  0  0  0  0  0  0  0
    6.9176   -2.2413   -1.3342 N   0  0  0  0  0  0  0  0  0  0  0  0
    5.8511   -3.0172   -1.5414 C   0  0  0  0  0  0  0  0  0  0  0  0
    5.0208   -2.6617   -2.5976 N   0  0  0  0  0  0  0  0  0  0  0  0
    4.6058   -1.2863   -2.8474 C   0  0  0  0  0  0  0  0  0  0  0  0
    3.0676   -1.1910   -2.8952 C   0  0  0  0  0  0  0  0  0  0  0  0
    2.5865   -2.1045   -3.8709 O   0  0  0  0  0  0  0  0  0  0  0  0
    2.8628   -3.4522   -3.5174 C   0  0  0  0  0  0  0  0  0  0  0  0
    4.3897   -3.6430   -3.4845 C   0  0  0  0  0  0  0  0  0  0  0  0
    5.5032   -4.0950   -0.8638 N   0  0  0  0  0  0  0  0  0  0  0  0
    5.0105   -6.3154    0.8668 C   0  0  0  0  0  0  0  0  0  0  0  0
    3.8667   -5.9188    0.6422 O   0  0  0  0  0  0  0  0  0  0  0  0
    5.3301   -8.4047    0.5150 H   0  0  0  0  0  0  0  0  0  0  0  0
   -2.7063   -8.6514    3.7991 H   0  0  0  0  0  0  0  0  0  0  0  0
   -2.1881   -9.8000    2.5727 H   0  0  0  0  0  0  0  0  0  0  0  0
   -2.1738   -8.0672    2.2265 H   0  0  0  0  0  0  0  0  0  0  0  0
   -0.4425   -7.7489    4.0259 H   0  0  0  0  0  0  0  0  0  0  0  0
   -0.4634   -9.4603    4.3657 H   0  0  0  0  0  0  0  0  0  0  0  0
    0.3903   -9.9564    2.0782 H   0  0  0  0  0  0  0  0  0  0  0  0
    0.3266   -8.2541    1.6793 H   0  0  0  0  0  0  0  0  0  0  0  0
    1.9617   -7.8826    3.6539 H   0  0  0  0  0  0  0  0  0  0  0  0
    2.1738   -9.6188    3.7017 H   0  0  0  0  0  0  0  0  0  0  0  0
    3.0439   -9.6055    1.3713 H   0  0  0  0  0  0  0  0  0  0  0  0
    2.6129   -7.9366    1.2157 H   0  0  0  0  0  0  0  0  0  0  0  0
    4.2821   -7.5321    3.2566 H   0  0  0  0  0  0  0  0  0  0  0  0
    4.8203   -9.1554    2.9180 H   0  0  0  0  0  0  0  0  0  0  0  0
    7.4091   -9.4401    2.2631 H   0  0  0  0  0  0  0  0  0  0  0  0
    7.3014   -8.3771    3.6684 H   0  0  0  0  0  0  0  0  0  0  0  0
    8.6193   -8.1758    2.5122 H   0  0  0  0  0  0  0  0  0  0  0  0
    8.5545   -2.1112   -0.1108 H   0  0  0  0  0  0  0  0  0  0  0  0
    4.9966   -0.6141   -2.0768 H   0  0  0  0  0  0  0  0  0  0  0  0
    5.0065   -0.9745   -3.8084 H   0  0  0  0  0  0  0  0  0  0  0  0
    2.6266   -1.4022   -1.9215 H   0  0  0  0  0  0  0  0  0  0  0  0
    2.7634   -0.1829   -3.1728 H   0  0  0  0  0  0  0  0  0  0  0  0
    2.4086   -3.7114   -2.5610 H   0  0  0  0  0  0  0  0  0  0  0  0
    2.4158   -4.1048   -4.2681 H   0  0  0  0  0  0  0  0  0  0  0  0
    4.7899   -3.4946   -4.4878 H   0  0  0  0  0  0  0  0  0  0  0  0
    4.6440   -4.6623   -3.1984 H   0  0  0  0  0  0  0  0  0  0  0  0
  1  2  1  0
  1 27  1  0
  1 28  1  0
  1 29  1  0
  2  3  1  0
  2 30  1  0
  2 31  1  0
  3  4  1  0
  3 32  1  0
  3 33  1  0
  4  5  1  0
  4 34  1  0
  4 35  1  0
  5  6  1  0
  5 36  1  0
  5 37  1  0
  6 38  1  0
  6 39  1  0
  6  7  1  0
  7 26  1  6
  7  8  1  0
  7 24  1  0
  8  9  1  0
  8 10  2  0
  9 40  1  0
  9 41  1  0
  9 42  1  0
 10 11  1  0
 11 12  1  0
 11 24  1  0
 12 23  1  0
 12 13  2  0
 13 14  1  0
 14 15  2  0
 14 43  1  0
 15 16  1  0
 16 17  1  0
 16 23  2  0
 17 22  1  0
 17 18  1  0
 18 19  1  0
 18 44  1  0
 18 45  1  0
 19 20  1  0
 19 46  1  0
 19 47  1  0
 20 21  1  0
 21 22  1  0
 21 48  1  0
 21 49  1  0
 22 50  1  0
 22 51  1  0
 24 25  2  0
M  END
>  <i_m_ct_stereo_status>  (373) 
1

>  <s_m_source_file>  (373) 
/var/tmp/pbs.5076255.sched01/tmpu61_44ix/12937f0afz8.sdf

>  <i_m_source_file_index>  (373) 
31

>  <i_lp_mmshare_version>  (373) 
48012

>  <i_f3d_flags>  (373) 
0

>  <s_epik_input>  (373) 
W0NIM11bQ0gyXVtDSDJdW0NIMl1bQ0gyXVtDSDJdYzFjKFtDSDNdKVtuSF1uKGMxPU8pLWMybltjSF1uYyhuMilOM1tDSDJdW0NIMl1PW0NIMl1bQ0gyXTM=

>  <s_epik_cmdline>  (373) 
J2VwaWtfcHl0aG9uJywgJy1waHQnLCAnMi4wJywgJy1waCcsICc3LjAnLCAnLXRuJywgJzgnLCAnLW1hJywgJzIwMCcsICctaW1hZScsICc8aW5maWxlLm1hZT4nLCAnLW9tYWUnLCAnPG91dGZpbGUubWFlPic=

>  <r_lp_tautomer_probability>  (373) 
0.264447

>  <r_epik_Ionization_Penalty>  (373) 
1.25051e-08

>  <r_epik_Ionization_Penalty_Charging>  (373) 
0

>  <r_epik_Ionization_Penalty_Neutral>  (373) 
1.25051e-08

>  <r_epik_State_Penalty>  (373) 
0.820805

>  <r_epik_Charging_Adjusted_Penalty>  (373) 
0.820805

>  <i_epik_Tot_Q>  (373) 
0

>  <i_epik_Tot_abs_Q>  (373) 
0

>  <s_epik_Chemistry_Notes>  (373) 
This compound has an imine and may undergo hydrolysis.

>  <s_lp_Force_Field>  (373) 
OPLS3e

>  <r_lp_Energy>  (373) 
22.2549

>  <b_lp_Chiralities_Consistent>  (373) 
1

>  <s_lp_Variant>  (373) 
114:0-2

>  <s_i_glide_gridfile>  (373) 
pfpi4k_grid

>  <i_i_glide_lignum>  (373) 
31

>  <i_i_glide_rotatable_bonds>  (373) 
7

>  <r_i_docking_score>  (373) 
-3.50141

>  <r_i_glide_ligand_efficiency>  (373) 
-0.140056

>  <r_i_glide_ligand_efficiency_sa>  (373) 
-0.409527

>  <r_i_glide_ligand_efficiency_ln>  (373) 
-0.829938

>  <r_i_glide_gscore>  (373) 
-3.50141

>  <r_i_glide_lipo>  (373) 
-0.347104

>  <r_i_glide_hbond>  (373) 
-0.16

>  <r_i_glide_metal>  (373) 
-0

>  <r_i_glide_rewards>  (373) 
-1.88847

>  <r_i_glide_evdw>  (373) 
-34.8853

>  <r_i_glide_ecoul>  (373) 
-2.08047

>  <r_i_glide_erotb>  (373) 
0.950505

>  <r_i_glide_esite>  (373) 
0

>  <r_i_glide_emodel>  (373) 
-42.8327

>  <r_i_glide_energy>  (373) 
-36.9658

>  <r_i_glide_einternal>  (373) 
3.69737

>  <r_i_glide_intrahb_reward>  (373) 
-0

>  <i_i_glide_confnum>  (373) 
3

>  <i_i_glide_posenum>  (373) 
36

>  <r_i_glide_eff_state_penalty>  (373) 
0

>  <ligand_id>  (373) 
114

>  <original_smiles>  (373) 
CCCCCCc1c(C)[nH]n(-c2ncnc(N3CCOCC3)n2)c1=O

>  <smiles>  (373) 
[H]c1nc(N2N=C(C([H])([H])[H])C([H])(C([H])([H])C([H])([H])C([H])([H])C([H])([H])C([H])([H])C([H])([H])[H])C2=O)nc(N2C([H])([H])C([H])([H])OC([H])([H])C2([H])[H])n1

$$$$
114:1:1
     RDKit          3D

 51 53  0  0  1  0  0  0  0  0999 V2000
   -1.2574   -8.6552    4.3315 C   0  0  0  0  0  0  0  0  0  0  0  0
   -0.5391   -7.3187    4.1294 C   0  0  0  0  0  0  0  0  0  0  0  0
    0.4348   -7.3476    2.9414 C   0  0  0  0  0  0  0  0  0  0  0  0
    1.6750   -8.2260    3.2073 C   0  0  0  0  0  0  0  0  0  0  0  0
    2.6709   -8.2227    2.0393 C   0  0  0  0  0  0  0  0  0  0  0  0
    4.1407   -8.0418    2.4903 C   0  0  0  0  0  0  0  0  0  0  0  0
    5.0917   -7.5614    1.3667 C   0  0  2  0  0  0  0  0  0  0  0  0
    6.5137   -7.3808    1.7959 C   0  0  0  0  0  0  0  0  0  0  0  0
    7.3204   -8.3627    2.5903 C   0  0  0  0  0  0  0  0  0  0  0  0
    6.9935   -6.2428    1.4214 N   0  0  0  0  0  0  0  0  0  0  0  0
    6.0428   -5.5260    0.7428 N   0  0  0  0  0  0  0  0  0  0  0  0
    6.2737   -4.3435    0.0570 C   0  0  0  0  0  0  0  0  0  0  0  0
    7.4212   -3.7155    0.3359 N   0  0  0  0  0  0  0  0  0  0  0  0
    7.6707   -2.7002   -0.4664 C   0  0  0  0  0  0  0  0  0  0  0  0
    6.9264   -2.2491   -1.4789 N   0  0  0  0  0  0  0  0  0  0  0  0
    5.8141   -2.9690   -1.6448 C   0  0  0  0  0  0  0  0  0  0  0  0
    4.9806   -2.5900   -2.6885 N   0  0  0  0  0  0  0  0  0  0  0  0
    4.6125   -1.2003   -2.9373 C   0  0  0  0  0  0  0  0  0  0  0  0
    3.0802   -1.0477   -2.9624 C   0  0  0  0  0  0  0  0  0  0  0  0
    2.5536   -1.9528   -3.9189 O   0  0  0  0  0  0  0  0  0  0  0  0
    2.7816   -3.3103   -3.5669 C   0  0  0  0  0  0  0  0  0  0  0  0
    4.3018   -3.5559   -3.5554 C   0  0  0  0  0  0  0  0  0  0  0  0
    5.4313   -4.0119   -0.9343 N   0  0  0  0  0  0  0  0  0  0  0  0
    4.8573   -6.1535    0.8424 C   0  0  0  0  0  0  0  0  0  0  0  0
    3.7413   -5.6821    0.6186 O   0  0  0  0  0  0  0  0  0  0  0  0
    5.0458   -8.2630    0.5309 H   0  0  0  0  0  0  0  0  0  0  0  0
   -1.9336   -8.6225    5.1807 H   0  0  0  0  0  0  0  0  0  0  0  0
   -0.5538   -9.4591    4.5381 H   0  0  0  0  0  0  0  0  0  0  0  0
   -1.8379   -8.9361    3.4531 H   0  0  0  0  0  0  0  0  0  0  0  0
   -1.2839   -6.5387    3.9726 H   0  0  0  0  0  0  0  0  0  0  0  0
   -0.0016   -7.0423    5.0388 H   0  0  0  0  0  0  0  0  0  0  0  0
   -0.0817   -7.6894    2.0428 H   0  0  0  0  0  0  0  0  0  0  0  0
    0.7607   -6.3263    2.7350 H   0  0  0  0  0  0  0  0  0  0  0  0
    2.1522   -7.8714    4.1225 H   0  0  0  0  0  0  0  0  0  0  0  0
    1.3841   -9.2587    3.3994 H   0  0  0  0  0  0  0  0  0  0  0  0
    2.5676   -9.1359    1.4500 H   0  0  0  0  0  0  0  0  0  0  0  0
    2.3515   -7.4456    1.3529 H   0  0  0  0  0  0  0  0  0  0  0  0
    4.2083   -7.3452    3.3244 H   0  0  0  0  0  0  0  0  0  0  0  0
    4.4905   -9.0029    2.8710 H   0  0  0  0  0  0  0  0  0  0  0  0
    7.1201   -9.3834    2.2679 H   0  0  0  0  0  0  0  0  0  0  0  0
    7.0822   -8.2845    3.6517 H   0  0  0  0  0  0  0  0  0  0  0  0
    8.3896   -8.1741    2.4746 H   0  0  0  0  0  0  0  0  0  0  0  0
    8.5916   -2.1749   -0.2903 H   0  0  0  0  0  0  0  0  0  0  0  0
    5.0351   -0.5367   -2.1802 H   0  0  0  0  0  0  0  0  0  0  0  0
    5.0156   -0.9084   -3.9081 H   0  0  0  0  0  0  0  0  0  0  0  0
    2.6441   -1.2318   -1.9790 H   0  0  0  0  0  0  0  0  0  0  0  0
    2.8059   -0.0311   -3.2476 H   0  0  0  0  0  0  0  0  0  0  0  0
    2.3292   -3.5421   -2.6019 H   0  0  0  0  0  0  0  0  0  0  0  0
    2.2963   -3.9447   -4.3088 H   0  0  0  0  0  0  0  0  0  0  0  0
    4.6817   -3.4266   -4.5688 H   0  0  0  0  0  0  0  0  0  0  0  0
    4.5355   -4.5829   -3.2734 H   0  0  0  0  0  0  0  0  0  0  0  0
  1  2  1  0
  1 27  1  0
  1 28  1  0
  1 29  1  0
  2  3  1  0
  2 30  1  0
  2 31  1  0
  3  4  1  0
  3 32  1  0
  3 33  1  0
  4  5  1  0
  4 34  1  0
  4 35  1  0
  5  6  1  0
  5 36  1  0
  5 37  1  0
  6 38  1  0
  6 39  1  0
  6  7  1  0
  7 26  1  6
  7  8  1  0
  7 24  1  0
  8  9  1  0
  8 10  2  0
  9 40  1  0
  9 41  1  0
  9 42  1  0
 10 11  1  0
 11 12  1  0
 11 24  1  0
 12 23  1  0
 12 13  2  0
 13 14  1  0
 14 15  2  0
 14 43  1  0
 15 16  1  0
 16 17  1  0
 16 23  2  0
 17 22  1  0
 17 18  1  0
 18 19  1  0
 18 44  1  0
 18 45  1  0
 19 20  1  0
 19 46  1  0
 19 47  1  0
 20 21  1  0
 21 22  1  0
 21 48  1  0
 21 49  1  0
 22 50  1  0
 22 51  1  0
 24 25  2  0
M  END
>  <i_m_ct_stereo_status>  (374) 
1

>  <s_m_source_file>  (374) 
/var/tmp/pbs.5076255.sched01/tmpu61_44ix/12937f0afz8.sdf

>  <i_m_source_file_index>  (374) 
31

>  <i_lp_mmshare_version>  (374) 
48012

>  <i_f3d_flags>  (374) 
0

>  <s_epik_input>  (374) 
W0NIM11bQ0gyXVtDSDJdW0NIMl1bQ0gyXVtDSDJdYzFjKFtDSDNdKVtuSF1uKGMxPU8pLWMybltjSF1uYyhuMilOM1tDSDJdW0NIMl1PW0NIMl1bQ0gyXTM=

>  <s_epik_cmdline>  (374) 
J2VwaWtfcHl0aG9uJywgJy1waHQnLCAnMi4wJywgJy1waCcsICc3LjAnLCAnLXRuJywgJzgnLCAnLW1hJywgJzIwMCcsICctaW1hZScsICc8aW5maWxlLm1hZT4nLCAnLW9tYWUnLCAnPG91dGZpbGUubWFlPic=

>  <r_lp_tautomer_probability>  (374) 
0.264447

>  <r_epik_Ionization_Penalty>  (374) 
1.25051e-08

>  <r_epik_Ionization_Penalty_Charging>  (374) 
0

>  <r_epik_Ionization_Penalty_Neutral>  (374) 
1.25051e-08

>  <r_epik_State_Penalty>  (374) 
0.820805

>  <r_epik_Charging_Adjusted_Penalty>  (374) 
0.820805

>  <i_epik_Tot_Q>  (374) 
0

>  <i_epik_Tot_abs_Q>  (374) 
0

>  <s_epik_Chemistry_Notes>  (374) 
This compound has an imine and may undergo hydrolysis.

>  <s_lp_Force_Field>  (374) 
OPLS3e

>  <r_lp_Energy>  (374) 
22.2549

>  <b_lp_Chiralities_Consistent>  (374) 
1

>  <s_lp_Variant>  (374) 
114:0-2

>  <s_i_glide_gridfile>  (374) 
pfpi4k_grid

>  <i_i_glide_lignum>  (374) 
31

>  <i_i_glide_rotatable_bonds>  (374) 
7

>  <r_i_docking_score>  (374) 
-3.46858

>  <r_i_glide_ligand_efficiency>  (374) 
-0.138743

>  <r_i_glide_ligand_efficiency_sa>  (374) 
-0.405687

>  <r_i_glide_ligand_efficiency_ln>  (374) 
-0.822157

>  <r_i_glide_gscore>  (374) 
-3.46858

>  <r_i_glide_lipo>  (374) 
-0.462322

>  <r_i_glide_hbond>  (374) 
-0.16

>  <r_i_glide_metal>  (374) 
-0

>  <r_i_glide_rewards>  (374) 
-1.822

>  <r_i_glide_evdw>  (374) 
-33.6558

>  <r_i_glide_ecoul>  (374) 
-1.91499

>  <r_i_glide_erotb>  (374) 
0.950505

>  <r_i_glide_esite>  (374) 
-0.00472373

>  <r_i_glide_emodel>  (374) 
-39.2464

>  <r_i_glide_energy>  (374) 
-35.5708

>  <r_i_glide_einternal>  (374) 
7.55565

>  <r_i_glide_intrahb_reward>  (374) 
-0

>  <i_i_glide_confnum>  (374) 
3

>  <i_i_glide_posenum>  (374) 
32

>  <r_i_glide_eff_state_penalty>  (374) 
0

>  <ligand_id>  (374) 
114

>  <original_smiles>  (374) 
CCCCCCc1c(C)[nH]n(-c2ncnc(N3CCOCC3)n2)c1=O

>  <smiles>  (374) 
[H]c1nc(N2N=C(C([H])([H])[H])C([H])(C([H])([H])C([H])([H])C([H])([H])C([H])([H])C([H])([H])C([H])([H])[H])C2=O)nc(N2C([H])([H])C([H])([H])OC([H])([H])C2([H])[H])n1

$$$$
114:1:2
     RDKit          3D

 51 53  0  0  1  0  0  0  0  0999 V2000
   -2.0051   -8.4994    2.0745 C   0  0  0  0  0  0  0  0  0  0  0  0
   -1.5226   -9.1249    3.3762 C   0  0  0  0  0  0  0  0  0  0  0  0
   -0.2117   -8.5351    3.9131 C   0  0  0  0  0  0  0  0  0  0  0  0
   -0.3368   -7.0591    4.3392 C   0  0  0  0  0  0  0  0  0  0  0  0
    1.0180   -6.3550    4.4384 C   0  0  0  0  0  0  0  0  0  0  0  0
    0.8718   -4.8358    4.6690 C   0  0  0  0  0  0  0  0  0  0  0  0
    2.1949   -4.0599    4.4852 C   0  0  2  0  0  0  0  0  0  0  0  0
    2.1383   -2.6258    4.9078 C   0  0  0  0  0  0  0  0  0  0  0  0
    1.5694   -2.1280    6.2004 C   0  0  0  0  0  0  0  0  0  0  0  0
    2.6340   -1.8405    4.0207 N   0  0  0  0  0  0  0  0  0  0  0  0
    3.0148   -2.5565    2.9212 N   0  0  0  0  0  0  0  0  0  0  0  0
    3.7872   -2.0189    1.9005 C   0  0  0  0  0  0  0  0  0  0  0  0
    4.6832   -1.1044    2.2911 N   0  0  0  0  0  0  0  0  0  0  0  0
    5.4358   -0.6576    1.2985 C   0  0  0  0  0  0  0  0  0  0  0  0
    5.3984   -1.0174    0.0203 N   0  0  0  0  0  0  0  0  0  0  0  0
    4.4397   -1.9070   -0.2440 C   0  0  0  0  0  0  0  0  0  0  0  0
    4.3284   -2.3176   -1.5717 N   0  0  0  0  0  0  0  0  0  0  0  0
    5.0132   -1.6504   -2.6814 C   0  0  0  0  0  0  0  0  0  0  0  0
    4.0050   -1.2602   -3.7722 C   0  0  0  0  0  0  0  0  0  0  0  0
    3.3095   -2.4249   -4.1916 O   0  0  0  0  0  0  0  0  0  0  0  0
    2.5555   -2.9972   -3.1254 C   0  0  0  0  0  0  0  0  0  0  0  0
    3.5077   -3.4464   -2.0074 C   0  0  0  0  0  0  0  0  0  0  0  0
    3.6092   -2.4556    0.6497 N   0  0  0  0  0  0  0  0  0  0  0  0
    2.6483   -3.8464    3.0470 C   0  0  0  0  0  0  0  0  0  0  0  0
    2.5988   -4.7145    2.1722 O   0  0  0  0  0  0  0  0  0  0  0  0
    2.9938   -4.5688    5.0279 H   0  0  0  0  0  0  0  0  0  0  0  0
   -2.9155   -8.9837    1.7203 H   0  0  0  0  0  0  0  0  0  0  0  0
   -1.2558   -8.6039    1.2872 H   0  0  0  0  0  0  0  0  0  0  0  0
   -2.2274   -7.4432    2.1892 H   0  0  0  0  0  0  0  0  0  0  0  0
   -2.3057   -9.0517    4.1304 H   0  0  0  0  0  0  0  0  0  0  0  0
   -1.3672  -10.1898    3.2014 H   0  0  0  0  0  0  0  0  0  0  0  0
    0.1169   -9.1274    4.7705 H   0  0  0  0  0  0  0  0  0  0  0  0
    0.5600   -8.6633    3.1517 H   0  0  0  0  0  0  0  0  0  0  0  0
   -0.9265   -6.5085    3.6115 H   0  0  0  0  0  0  0  0  0  0  0  0
   -0.8808   -6.9921    5.2832 H   0  0  0  0  0  0  0  0  0  0  0  0
    1.6101   -6.8040    5.2375 H   0  0  0  0  0  0  0  0  0  0  0  0
    1.5646   -6.5495    3.5156 H   0  0  0  0  0  0  0  0  0  0  0  0
    0.1212   -4.4169    4.0032 H   0  0  0  0  0  0  0  0  0  0  0  0
    0.4926   -4.6896    5.6804 H   0  0  0  0  0  0  0  0  0  0  0  0
    1.8326   -2.7902    7.0256 H   0  0  0  0  0  0  0  0  0  0  0  0
    0.4829   -2.0627    6.1384 H   0  0  0  0  0  0  0  0  0  0  0  0
    1.9540   -1.1348    6.4281 H   0  0  0  0  0  0  0  0  0  0  0  0
    6.1740    0.0814    1.5752 H   0  0  0  0  0  0  0  0  0  0  0  0
    5.5368   -0.7496   -2.3602 H   0  0  0  0  0  0  0  0  0  0  0  0
    5.7616   -2.3356   -3.0824 H   0  0  0  0  0  0  0  0  0  0  0  0
    3.3119   -0.5014   -3.4078 H   0  0  0  0  0  0  0  0  0  0  0  0
    4.5308   -0.8354   -4.6270 H   0  0  0  0  0  0  0  0  0  0  0  0
    1.8214   -2.2863   -2.7443 H   0  0  0  0  0  0  0  0  0  0  0  0
    2.0061   -3.8564   -3.5030 H   0  0  0  0  0  0  0  0  0  0  0  0
    4.1766   -4.2294   -2.3689 H   0  0  0  0  0  0  0  0  0  0  0  0
    2.9308   -3.8845   -1.1920 H   0  0  0  0  0  0  0  0  0  0  0  0
  1  2  1  0
  1 27  1  0
  1 28  1  0
  1 29  1  0
  2  3  1  0
  2 30  1  0
  2 31  1  0
  3  4  1  0
  3 32  1  0
  3 33  1  0
  4  5  1  0
  4 34  1  0
  4 35  1  0
  5  6  1  0
  5 36  1  0
  5 37  1  0
  6 38  1  0
  6 39  1  0
  6  7  1  0
  7 26  1  1
  7  8  1  0
  7 24  1  0
  8  9  1  0
  8 10  2  0
  9 40  1  0
  9 41  1  0
  9 42  1  0
 10 11  1  0
 11 12  1  0
 11 24  1  0
 12 23  1  0
 12 13  2  0
 13 14  1  0
 14 15  2  0
 14 43  1  0
 15 16  1  0
 16 17  1  0
 16 23  2  0
 17 22  1  0
 17 18  1  0
 18 19  1  0
 18 44  1  0
 18 45  1  0
 19 20  1  0
 19 46  1  0
 19 47  1  0
 20 21  1  0
 21 22  1  0
 21 48  1  0
 21 49  1  0
 22 50  1  0
 22 51  1  0
 24 25  2  0
M  END
>  <i_m_ct_stereo_status>  (375) 
1

>  <s_m_source_file>  (375) 
/var/tmp/pbs.5076255.sched01/tmpu61_44ix/12937f0afz8.sdf

>  <i_m_source_file_index>  (375) 
31

>  <i_lp_mmshare_version>  (375) 
48012

>  <i_f3d_flags>  (375) 
0

>  <s_epik_input>  (375) 
W0NIM11bQ0gyXVtDSDJdW0NIMl1bQ0gyXVtDSDJdYzFjKFtDSDNdKVtuSF1uKGMxPU8pLWMybltjSF1uYyhuMilOM1tDSDJdW0NIMl1PW0NIMl1bQ0gyXTM=

>  <s_epik_cmdline>  (375) 
J2VwaWtfcHl0aG9uJywgJy1waHQnLCAnMi4wJywgJy1waCcsICc3LjAnLCAnLXRuJywgJzgnLCAnLW1hJywgJzIwMCcsICctaW1hZScsICc8aW5maWxlLm1hZT4nLCAnLW9tYWUnLCAnPG91dGZpbGUubWFlPic=

>  <r_lp_tautomer_probability>  (375) 
0.264447

>  <r_epik_Ionization_Penalty>  (375) 
1.25051e-08

>  <r_epik_Ionization_Penalty_Charging>  (375) 
0

>  <r_epik_Ionization_Penalty_Neutral>  (375) 
1.25051e-08

>  <r_epik_State_Penalty>  (375) 
0.820805

>  <r_epik_Charging_Adjusted_Penalty>  (375) 
0.820805

>  <i_epik_Tot_Q>  (375) 
0

>  <i_epik_Tot_abs_Q>  (375) 
0

>  <s_epik_Chemistry_Notes>  (375) 
This compound has an imine and may undergo hydrolysis.

>  <s_lp_Force_Field>  (375) 
OPLS3e

>  <r_lp_Energy>  (375) 
22.2549

>  <b_lp_Chiralities_Consistent>  (375) 
1

>  <s_lp_Variant>  (375) 
114:0-2

>  <s_i_glide_gridfile>  (375) 
pfpi4k_grid

>  <i_i_glide_lignum>  (375) 
31

>  <i_i_glide_rotatable_bonds>  (375) 
7

>  <r_i_docking_score>  (375) 
-2.63496

>  <r_i_glide_ligand_efficiency>  (375) 
-0.105399

>  <r_i_glide_ligand_efficiency_sa>  (375) 
-0.308187

>  <r_i_glide_ligand_efficiency_ln>  (375) 
-0.624566

>  <r_i_glide_gscore>  (375) 
-2.63496

>  <r_i_glide_lipo>  (375) 
-0.446389

>  <r_i_glide_hbond>  (375) 
-0.236682

>  <r_i_glide_metal>  (375) 
-0

>  <r_i_glide_rewards>  (375) 
-1.21347

>  <r_i_glide_evdw>  (375) 
-27.4115

>  <r_i_glide_ecoul>  (375) 
-1.78373

>  <r_i_glide_erotb>  (375) 
0.950505

>  <r_i_glide_esite>  (375) 
-0.0507907

>  <r_i_glide_emodel>  (375) 
-33.4275

>  <r_i_glide_energy>  (375) 
-29.1952

>  <r_i_glide_einternal>  (375) 
2.65938

>  <r_i_glide_intrahb_reward>  (375) 
-0

>  <i_i_glide_confnum>  (375) 
4

>  <i_i_glide_posenum>  (375) 
13

>  <r_i_glide_eff_state_penalty>  (375) 
0

>  <ligand_id>  (375) 
114

>  <original_smiles>  (375) 
CCCCCCc1c(C)[nH]n(-c2ncnc(N3CCOCC3)n2)c1=O

>  <smiles>  (375) 
[H]c1nc(N2N=C(C([H])([H])[H])C([H])(C([H])([H])C([H])([H])C([H])([H])C([H])([H])C([H])([H])C([H])([H])[H])C2=O)nc(N2C([H])([H])C([H])([H])OC([H])([H])C2([H])[H])n1

$$$$
114:2:0
     RDKit          3D

 51 53  0  0  1  0  0  0  0  0999 V2000
    2.8795    1.1132   -5.1235 C   0  0  0  0  0  0  0  0  0  0  0  0
    3.5597   -0.1895   -4.6852 C   0  0  0  0  0  0  0  0  0  0  0  0
    3.6403   -0.3480   -3.1596 C   0  0  0  0  0  0  0  0  0  0  0  0
    4.2654   -1.6897   -2.7339 C   0  0  0  0  0  0  0  0  0  0  0  0
    4.3227   -1.8558   -1.2108 C   0  0  0  0  0  0  0  0  0  0  0  0
    4.8060   -3.2551   -0.7706 C   0  0  0  0  0  0  0  0  0  0  0  0
    4.8342   -3.5369    0.7621 C   0  0  1  0  0  0  0  0  0  0  0  0
    3.5200   -3.3705    1.4586 C   0  0  0  0  0  0  0  0  0  0  0  0
    2.8218   -2.0689    1.6959 C   0  0  0  0  0  0  0  0  0  0  0  0
    3.0298   -4.4873    1.8529 N   0  0  0  0  0  0  0  0  0  0  0  0
    3.8715   -5.5208    1.5451 N   0  0  0  0  0  0  0  0  0  0  0  0
    3.4982   -6.8618    1.7116 C   0  0  0  0  0  0  0  0  0  0  0  0
    4.2812   -7.8306    1.2111 N   0  0  0  0  0  0  0  0  0  0  0  0
    3.7649   -9.0533    1.3279 C   0  0  0  0  0  0  0  0  0  0  0  0
    2.5885   -9.3785    1.8526 N   0  0  0  0  0  0  0  0  0  0  0  0
    1.9151   -8.3349    2.3392 C   0  0  0  0  0  0  0  0  0  0  0  0
    0.6684   -8.5860    2.9192 N   0  0  0  0  0  0  0  0  0  0  0  0
    0.0338   -7.6982    3.8968 C   0  0  0  0  0  0  0  0  0  0  0  0
   -1.3985   -7.3570    3.4560 C   0  0  0  0  0  0  0  0  0  0  0  0
   -2.1443   -8.5448    3.2331 O   0  0  0  0  0  0  0  0  0  0  0  0
   -1.5546   -9.3647    2.2273 C   0  0  0  0  0  0  0  0  0  0  0  0
   -0.1309   -9.7798    2.6403 C   0  0  0  0  0  0  0  0  0  0  0  0
    2.3088   -7.0599    2.3052 N   0  0  0  0  0  0  0  0  0  0  0  0
    5.0206   -5.0245    1.0254 C   0  0  0  0  0  0  0  0  0  0  0  0
    6.0948   -5.5998    0.8442 O   0  0  0  0  0  0  0  0  0  0  0  0
    5.6097   -2.9565    1.2644 H   0  0  0  0  0  0  0  0  0  0  0  0
    2.8372    1.1908   -6.2047 H   0  0  0  0  0  0  0  0  0  0  0  0
    3.4131    1.9861   -4.7427 H   0  0  0  0  0  0  0  0  0  0  0  0
    1.8564    1.1648   -4.7478 H   0  0  0  0  0  0  0  0  0  0  0  0
    3.0132   -1.0300   -5.1129 H   0  0  0  0  0  0  0  0  0  0  0  0
    4.5638   -0.2225   -5.1025 H   0  0  0  0  0  0  0  0  0  0  0  0
    4.2144    0.4784   -2.7377 H   0  0  0  0  0  0  0  0  0  0  0  0
    2.6351   -0.2634   -2.7404 H   0  0  0  0  0  0  0  0  0  0  0  0
    3.6706   -2.5016   -3.1574 H   0  0  0  0  0  0  0  0  0  0  0  0
    5.2694   -1.7928   -3.1409 H   0  0  0  0  0  0  0  0  0  0  0  0
    4.9555   -1.0889   -0.7641 H   0  0  0  0  0  0  0  0  0  0  0  0
    3.3125   -1.6783   -0.8576 H   0  0  0  0  0  0  0  0  0  0  0  0
    4.2044   -4.0153   -1.2686 H   0  0  0  0  0  0  0  0  0  0  0  0
    5.8194   -3.3978   -1.1518 H   0  0  0  0  0  0  0  0  0  0  0  0
    3.5410   -1.2491    1.7189 H   0  0  0  0  0  0  0  0  0  0  0  0
    2.2823   -2.0840    2.6404 H   0  0  0  0  0  0  0  0  0  0  0  0
    2.0930   -1.8701    0.9107 H   0  0  0  0  0  0  0  0  0  0  0  0
    4.3549   -9.8628    0.9253 H   0  0  0  0  0  0  0  0  0  0  0  0
    0.0123   -8.2124    4.8579 H   0  0  0  0  0  0  0  0  0  0  0  0
    0.6043   -6.7814    4.0519 H   0  0  0  0  0  0  0  0  0  0  0  0
   -1.8996   -6.7713    4.2272 H   0  0  0  0  0  0  0  0  0  0  0  0
   -1.3891   -6.7591    2.5461 H   0  0  0  0  0  0  0  0  0  0  0  0
   -2.1712  -10.2484    2.0771 H   0  0  0  0  0  0  0  0  0  0  0  0
   -1.5413   -8.8306    1.2787 H   0  0  0  0  0  0  0  0  0  0  0  0
    0.3098  -10.3878    1.8486 H   0  0  0  0  0  0  0  0  0  0  0  0
   -0.1625  -10.4063    3.5322 H   0  0  0  0  0  0  0  0  0  0  0  0
  1  2  1  0
  1 27  1  0
  1 28  1  0
  1 29  1  0
  2  3  1  0
  2 30  1  0
  2 31  1  0
  3  4  1  0
  3 32  1  0
  3 33  1  0
  4  5  1  0
  4 34  1  0
  4 35  1  0
  5  6  1  0
  5 36  1  0
  5 37  1  0
  6 38  1  0
  6 39  1  0
  6  7  1  0
  7 26  1  1
  7  8  1  0
  7 24  1  0
  8  9  1  0
  8 10  2  0
  9 40  1  0
  9 41  1  0
  9 42  1  0
 10 11  1  0
 11 12  1  0
 11 24  1  0
 12 23  1  0
 12 13  2  0
 13 14  1  0
 14 15  2  0
 14 43  1  0
 15 16  1  0
 16 17  1  0
 16 23  2  0
 17 22  1  0
 17 18  1  0
 18 19  1  0
 18 44  1  0
 18 45  1  0
 19 20  1  0
 19 46  1  0
 19 47  1  0
 20 21  1  0
 21 22  1  0
 21 48  1  0
 21 49  1  0
 22 50  1  0
 22 51  1  0
 24 25  2  0
M  END
>  <i_m_ct_stereo_status>  (376) 
1

>  <s_m_source_file>  (376) 
/var/tmp/pbs.5076255.sched01/tmpu61_44ix/12937f0afz8.sdf

>  <i_m_source_file_index>  (376) 
32

>  <i_lp_mmshare_version>  (376) 
48012

>  <i_f3d_flags>  (376) 
0

>  <s_epik_input>  (376) 
W0NIM11bQ0gyXVtDSDJdW0NIMl1bQ0gyXVtDSDJdYzFjKFtDSDNdKVtuSF1uKGMxPU8pLWMybltjSF1uYyhuMilOM1tDSDJdW0NIMl1PW0NIMl1bQ0gyXTM=

>  <s_epik_cmdline>  (376) 
J2VwaWtfcHl0aG9uJywgJy1waHQnLCAnMi4wJywgJy1waCcsICc3LjAnLCAnLXRuJywgJzgnLCAnLW1hJywgJzIwMCcsICctaW1hZScsICc8aW5maWxlLm1hZT4nLCAnLW9tYWUnLCAnPG91dGZpbGUubWFlPic=

>  <r_lp_tautomer_probability>  (376) 
0.264447

>  <r_epik_Ionization_Penalty>  (376) 
1.25051e-08

>  <r_epik_Ionization_Penalty_Charging>  (376) 
0

>  <r_epik_Ionization_Penalty_Neutral>  (376) 
1.25051e-08

>  <r_epik_State_Penalty>  (376) 
0.820805

>  <r_epik_Charging_Adjusted_Penalty>  (376) 
0.820805

>  <i_epik_Tot_Q>  (376) 
0

>  <i_epik_Tot_abs_Q>  (376) 
0

>  <s_epik_Chemistry_Notes>  (376) 
This compound has an imine and may undergo hydrolysis.

>  <s_lp_Force_Field>  (376) 
OPLS3e

>  <r_lp_Energy>  (376) 
17.5371

>  <b_lp_Chiralities_Consistent>  (376) 
1

>  <s_lp_Variant>  (376) 
114:0-3

>  <s_i_glide_gridfile>  (376) 
pfpi4k_grid

>  <i_i_glide_lignum>  (376) 
32

>  <i_i_glide_rotatable_bonds>  (376) 
7

>  <r_i_docking_score>  (376) 
-3.06163

>  <r_i_glide_ligand_efficiency>  (376) 
-0.122465

>  <r_i_glide_ligand_efficiency_sa>  (376) 
-0.35809

>  <r_i_glide_ligand_efficiency_ln>  (376) 
-0.725698

>  <r_i_glide_gscore>  (376) 
-3.06163

>  <r_i_glide_lipo>  (376) 
-0.780822

>  <r_i_glide_hbond>  (376) 
0

>  <r_i_glide_metal>  (376) 
-0

>  <r_i_glide_rewards>  (376) 
-1.22018

>  <r_i_glide_evdw>  (376) 
-34.6898

>  <r_i_glide_ecoul>  (376) 
-1.20485

>  <r_i_glide_erotb>  (376) 
0.950505

>  <r_i_glide_esite>  (376) 
-0.0959183

>  <r_i_glide_emodel>  (376) 
-40.7467

>  <r_i_glide_energy>  (376) 
-35.8947

>  <r_i_glide_einternal>  (376) 
3.41497

>  <r_i_glide_intrahb_reward>  (376) 
-0

>  <i_i_glide_confnum>  (376) 
6

>  <i_i_glide_posenum>  (376) 
34

>  <r_i_glide_eff_state_penalty>  (376) 
0

>  <ligand_id>  (376) 
114

>  <original_smiles>  (376) 
CCCCCCc1c(C)[nH]n(-c2ncnc(N3CCOCC3)n2)c1=O

>  <smiles>  (376) 
[H]c1nc(N2N=C(C([H])([H])[H])C([H])(C([H])([H])C([H])([H])C([H])([H])C([H])([H])C([H])([H])C([H])([H])[H])C2=O)nc(N2C([H])([H])C([H])([H])OC([H])([H])C2([H])[H])n1

$$$$
114:2:1
     RDKit          3D

 51 53  0  0  1  0  0  0  0  0999 V2000
    3.4517    0.9761   -5.2926 C   0  0  0  0  0  0  0  0  0  0  0  0
    3.1009   -0.4821   -5.0474 C   0  0  0  0  0  0  0  0  0  0  0  0
    3.7327   -1.0455   -3.7717 C   0  0  0  0  0  0  0  0  0  0  0  0
    3.6271   -2.5779   -3.6771 C   0  0  0  0  0  0  0  0  0  0  0  0
    4.2557   -3.1374   -2.3901 C   0  0  0  0  0  0  0  0  0  0  0  0
    3.3816   -2.9130   -1.1347 C   0  0  0  0  0  0  0  0  0  0  0  0
    4.0753   -3.2621    0.2078 C   0  0  1  0  0  0  0  0  0  0  0  0
    3.1553   -3.1318    1.3771 C   0  0  0  0  0  0  0  0  0  0  0  0
    2.5635   -1.8582    1.8950 C   0  0  0  0  0  0  0  0  0  0  0  0
    2.8909   -4.2676    1.9128 N   0  0  0  0  0  0  0  0  0  0  0  0
    3.5592   -5.2711    1.2640 N   0  0  0  0  0  0  0  0  0  0  0  0
    3.2909   -6.6175    1.5081 C   0  0  0  0  0  0  0  0  0  0  0  0
    4.1682   -7.5572    1.1179 N   0  0  0  0  0  0  0  0  0  0  0  0
    3.7560   -8.8078    1.3510 C   0  0  0  0  0  0  0  0  0  0  0  0
    2.6055   -9.1769    1.9097 N   0  0  0  0  0  0  0  0  0  0  0  0
    1.8395   -8.1474    2.2775 C   0  0  0  0  0  0  0  0  0  0  0  0
    0.6246   -8.4335    2.8961 N   0  0  0  0  0  0  0  0  0  0  0  0
   -0.0381   -7.5246    3.8353 C   0  0  0  0  0  0  0  0  0  0  0  0
   -1.4874   -7.2679    3.3996 C   0  0  0  0  0  0  0  0  0  0  0  0
   -2.1768   -8.5009    3.2376 O   0  0  0  0  0  0  0  0  0  0  0  0
   -1.5635   -9.3300    2.2532 C   0  0  0  0  0  0  0  0  0  0  0  0
   -0.1238   -9.6693    2.6703 C   0  0  0  0  0  0  0  0  0  0  0  0
    2.1170   -6.8569    2.1075 N   0  0  0  0  0  0  0  0  0  0  0  0
    4.3861   -4.7425    0.3370 C   0  0  0  0  0  0  0  0  0  0  0  0
    5.3107   -5.2876   -0.2671 O   0  0  0  0  0  0  0  0  0  0  0  0
    4.9698   -2.6548    0.3584 H   0  0  0  0  0  0  0  0  0  0  0  0
    2.9626    1.3340   -6.1974 H   0  0  0  0  0  0  0  0  0  0  0  0
    4.5276    1.0751   -5.4068 H   0  0  0  0  0  0  0  0  0  0  0  0
    3.1402    1.6073   -4.4685 H   0  0  0  0  0  0  0  0  0  0  0  0
    2.0162   -0.5882   -4.9967 H   0  0  0  0  0  0  0  0  0  0  0  0
    3.4401   -1.0433   -5.9137 H   0  0  0  0  0  0  0  0  0  0  0  0
    4.7835   -0.7644   -3.7261 H   0  0  0  0  0  0  0  0  0  0  0  0
    3.2495   -0.5731   -2.9170 H   0  0  0  0  0  0  0  0  0  0  0  0
    2.5861   -2.8995   -3.7599 H   0  0  0  0  0  0  0  0  0  0  0  0
    4.1410   -3.0228   -4.5306 H   0  0  0  0  0  0  0  0  0  0  0  0
    4.4153   -4.2073   -2.5348 H   0  0  0  0  0  0  0  0  0  0  0  0
    5.2492   -2.7098   -2.2473 H   0  0  0  0  0  0  0  0  0  0  0  0
    3.0603   -1.8722   -1.0911 H   0  0  0  0  0  0  0  0  0  0  0  0
    2.4669   -3.4956   -1.2527 H   0  0  0  0  0  0  0  0  0  0  0  0
    3.2097   -1.0069    1.6757 H   0  0  0  0  0  0  0  0  0  0  0  0
    2.4392   -1.9190    2.9756 H   0  0  0  0  0  0  0  0  0  0  0  0
    1.5826   -1.6710    1.4553 H   0  0  0  0  0  0  0  0  0  0  0  0
    4.4140   -9.6081    1.0427 H   0  0  0  0  0  0  0  0  0  0  0  0
   -0.0273   -7.9989    4.8174 H   0  0  0  0  0  0  0  0  0  0  0  0
    0.4989   -6.5796    3.9446 H   0  0  0  0  0  0  0  0  0  0  0  0
   -2.0069   -6.6760    4.1523 H   0  0  0  0  0  0  0  0  0  0  0  0
   -1.5177   -6.7107    2.4670 H   0  0  0  0  0  0  0  0  0  0  0  0
   -2.1400  -10.2434    2.1396 H   0  0  0  0  0  0  0  0  0  0  0  0
   -1.5820   -8.8305    1.2884 H   0  0  0  0  0  0  0  0  0  0  0  0
    0.3484  -10.2842    1.9028 H   0  0  0  0  0  0  0  0  0  0  0  0
   -0.1177  -10.2531    3.5922 H   0  0  0  0  0  0  0  0  0  0  0  0
  1  2  1  0
  1 27  1  0
  1 28  1  0
  1 29  1  0
  2  3  1  0
  2 30  1  0
  2 31  1  0
  3  4  1  0
  3 32  1  0
  3 33  1  0
  4  5  1  0
  4 34  1  0
  4 35  1  0
  5  6  1  0
  5 36  1  0
  5 37  1  0
  6 38  1  0
  6 39  1  0
  6  7  1  0
  7 26  1  1
  7  8  1  0
  7 24  1  0
  8  9  1  0
  8 10  2  0
  9 40  1  0
  9 41  1  0
  9 42  1  0
 10 11  1  0
 11 12  1  0
 11 24  1  0
 12 23  1  0
 12 13  2  0
 13 14  1  0
 14 15  2  0
 14 43  1  0
 15 16  1  0
 16 17  1  0
 16 23  2  0
 17 22  1  0
 17 18  1  0
 18 19  1  0
 18 44  1  0
 18 45  1  0
 19 20  1  0
 19 46  1  0
 19 47  1  0
 20 21  1  0
 21 22  1  0
 21 48  1  0
 21 49  1  0
 22 50  1  0
 22 51  1  0
 24 25  2  0
M  END
>  <i_m_ct_stereo_status>  (377) 
1

>  <s_m_source_file>  (377) 
/var/tmp/pbs.5076255.sched01/tmpu61_44ix/12937f0afz8.sdf

>  <i_m_source_file_index>  (377) 
32

>  <i_lp_mmshare_version>  (377) 
48012

>  <i_f3d_flags>  (377) 
0

>  <s_epik_input>  (377) 
W0NIM11bQ0gyXVtDSDJdW0NIMl1bQ0gyXVtDSDJdYzFjKFtDSDNdKVtuSF1uKGMxPU8pLWMybltjSF1uYyhuMilOM1tDSDJdW0NIMl1PW0NIMl1bQ0gyXTM=

>  <s_epik_cmdline>  (377) 
J2VwaWtfcHl0aG9uJywgJy1waHQnLCAnMi4wJywgJy1waCcsICc3LjAnLCAnLXRuJywgJzgnLCAnLW1hJywgJzIwMCcsICctaW1hZScsICc8aW5maWxlLm1hZT4nLCAnLW9tYWUnLCAnPG91dGZpbGUubWFlPic=

>  <r_lp_tautomer_probability>  (377) 
0.264447

>  <r_epik_Ionization_Penalty>  (377) 
1.25051e-08

>  <r_epik_Ionization_Penalty_Charging>  (377) 
0

>  <r_epik_Ionization_Penalty_Neutral>  (377) 
1.25051e-08

>  <r_epik_State_Penalty>  (377) 
0.820805

>  <r_epik_Charging_Adjusted_Penalty>  (377) 
0.820805

>  <i_epik_Tot_Q>  (377) 
0

>  <i_epik_Tot_abs_Q>  (377) 
0

>  <s_epik_Chemistry_Notes>  (377) 
This compound has an imine and may undergo hydrolysis.

>  <s_lp_Force_Field>  (377) 
OPLS3e

>  <r_lp_Energy>  (377) 
17.5371

>  <b_lp_Chiralities_Consistent>  (377) 
1

>  <s_lp_Variant>  (377) 
114:0-3

>  <s_i_glide_gridfile>  (377) 
pfpi4k_grid

>  <i_i_glide_lignum>  (377) 
32

>  <i_i_glide_rotatable_bonds>  (377) 
7

>  <r_i_docking_score>  (377) 
-2.9812

>  <r_i_glide_ligand_efficiency>  (377) 
-0.119248

>  <r_i_glide_ligand_efficiency_sa>  (377) 
-0.348683

>  <r_i_glide_ligand_efficiency_ln>  (377) 
-0.706634

>  <r_i_glide_gscore>  (377) 
-2.9812

>  <r_i_glide_lipo>  (377) 
-0.878906

>  <r_i_glide_hbond>  (377) 
0

>  <r_i_glide_metal>  (377) 
-0

>  <r_i_glide_rewards>  (377) 
-1.18229

>  <r_i_glide_evdw>  (377) 
-33.0112

>  <r_i_glide_ecoul>  (377) 
-0.861194

>  <r_i_glide_erotb>  (377) 
0.950505

>  <r_i_glide_esite>  (377) 
-0.0907712

>  <r_i_glide_emodel>  (377) 
-38.2755

>  <r_i_glide_energy>  (377) 
-33.8724

>  <r_i_glide_einternal>  (377) 
3.37389

>  <r_i_glide_intrahb_reward>  (377) 
-0

>  <i_i_glide_confnum>  (377) 
4

>  <i_i_glide_posenum>  (377) 
14

>  <r_i_glide_eff_state_penalty>  (377) 
0

>  <ligand_id>  (377) 
114

>  <original_smiles>  (377) 
CCCCCCc1c(C)[nH]n(-c2ncnc(N3CCOCC3)n2)c1=O

>  <smiles>  (377) 
[H]c1nc(N2N=C(C([H])([H])[H])C([H])(C([H])([H])C([H])([H])C([H])([H])C([H])([H])C([H])([H])C([H])([H])[H])C2=O)nc(N2C([H])([H])C([H])([H])OC([H])([H])C2([H])[H])n1

$$$$
114:2:2
     RDKit          3D

 51 53  0  0  1  0  0  0  0  0999 V2000
   -1.9170   -4.3714    7.9270 C   0  0  0  0  0  0  0  0  0  0  0  0
   -0.5139   -3.7562    7.8291 C   0  0  0  0  0  0  0  0  0  0  0  0
    0.1074   -3.8767    6.4260 C   0  0  0  0  0  0  0  0  0  0  0  0
    0.4635   -5.3244    6.0378 C   0  0  0  0  0  0  0  0  0  0  0  0
    1.1043   -5.4368    4.6462 C   0  0  0  0  0  0  0  0  0  0  0  0
    1.5153   -6.8878    4.2983 C   0  0  0  0  0  0  0  0  0  0  0  0
    2.1844   -7.1188    2.9113 C   0  0  1  0  0  0  0  0  0  0  0  0
    1.3294   -6.7505    1.7406 C   0  0  0  0  0  0  0  0  0  0  0  0
    0.0531   -7.4340    1.3655 C   0  0  0  0  0  0  0  0  0  0  0  0
    1.8087   -5.7610    1.0754 N   0  0  0  0  0  0  0  0  0  0  0  0
    2.9837   -5.3517    1.6412 N   0  0  0  0  0  0  0  0  0  0  0  0
    3.6273   -4.1744    1.2986 C   0  0  0  0  0  0  0  0  0  0  0  0
    3.9183   -3.3287    2.2976 N   0  0  0  0  0  0  0  0  0  0  0  0
    4.4079   -2.1658    1.8748 C   0  0  0  0  0  0  0  0  0  0  0  0
    4.6167   -1.7889    0.6166 N   0  0  0  0  0  0  0  0  0  0  0  0
    4.3007   -2.7285   -0.2772 C   0  0  0  0  0  0  0  0  0  0  0  0
    4.5278   -2.4033   -1.6180 N   0  0  0  0  0  0  0  0  0  0  0  0
    4.7293   -3.4069   -2.6624 C   0  0  0  0  0  0  0  0  0  0  0  0
    3.7552   -3.1624   -3.8255 C   0  0  0  0  0  0  0  0  0  0  0  0
    3.9159   -1.8332   -4.3161 O   0  0  0  0  0  0  0  0  0  0  0  0
    3.6149   -0.8666   -3.3117 C   0  0  0  0  0  0  0  0  0  0  0  0
    4.5756   -1.0248   -2.1189 C   0  0  0  0  0  0  0  0  0  0  0  0
    3.7993   -3.9404   -0.0086 N   0  0  0  0  0  0  0  0  0  0  0  0
    3.3418   -6.1777    2.6420 C   0  0  0  0  0  0  0  0  0  0  0  0
    4.4281   -6.2388    3.2209 O   0  0  0  0  0  0  0  0  0  0  0  0
    2.5099   -8.1559    2.8176 H   0  0  0  0  0  0  0  0  0  0  0  0
   -2.3322   -4.2586    8.9289 H   0  0  0  0  0  0  0  0  0  0  0  0
   -1.8957   -5.4391    7.7119 H   0  0  0  0  0  0  0  0  0  0  0  0
   -2.6028   -3.9054    7.2195 H   0  0  0  0  0  0  0  0  0  0  0  0
   -0.5671   -2.7019    8.1003 H   0  0  0  0  0  0  0  0  0  0  0  0
    0.1446   -4.2179    8.5665 H   0  0  0  0  0  0  0  0  0  0  0  0
   -0.5670   -3.4433    5.6864 H   0  0  0  0  0  0  0  0  0  0  0  0
    1.0145   -3.2707    6.3971 H   0  0  0  0  0  0  0  0  0  0  0  0
    1.1398   -5.7358    6.7888 H   0  0  0  0  0  0  0  0  0  0  0  0
   -0.4314   -5.9455    6.0562 H   0  0  0  0  0  0  0  0  0  0  0  0
    0.4017   -5.0593    3.9031 H   0  0  0  0  0  0  0  0  0  0  0  0
    1.9749   -4.7805    4.6104 H   0  0  0  0  0  0  0  0  0  0  0  0
    2.2106   -7.2357    5.0649 H   0  0  0  0  0  0  0  0  0  0  0  0
    0.6444   -7.5395    4.3896 H   0  0  0  0  0  0  0  0  0  0  0  0
    0.0695   -8.4768    1.6842 H   0  0  0  0  0  0  0  0  0  0  0  0
   -0.0781   -7.4191    0.2860 H   0  0  0  0  0  0  0  0  0  0  0  0
   -0.8079   -6.9506    1.8250 H   0  0  0  0  0  0  0  0  0  0  0  0
    4.6423   -1.4398    2.6406 H   0  0  0  0  0  0  0  0  0  0  0  0
    5.7572   -3.3272   -3.0194 H   0  0  0  0  0  0  0  0  0  0  0  0
    4.6150   -4.4227   -2.2791 H   0  0  0  0  0  0  0  0  0  0  0  0
    3.9714   -3.8589   -4.6327 H   0  0  0  0  0  0  0  0  0  0  0  0
    2.7240   -3.3381   -3.5140 H   0  0  0  0  0  0  0  0  0  0  0  0
    3.7045    0.1321   -3.7396 H   0  0  0  0  0  0  0  0  0  0  0  0
    2.5852   -0.9746   -2.9755 H   0  0  0  0  0  0  0  0  0  0  0  0
    4.3185   -0.2927   -1.3493 H   0  0  0  0  0  0  0  0  0  0  0  0
    5.5946   -0.8012   -2.4256 H   0  0  0  0  0  0  0  0  0  0  0  0
  1  2  1  0
  1 27  1  0
  1 28  1  0
  1 29  1  0
  2  3  1  0
  2 30  1  0
  2 31  1  0
  3  4  1  0
  3 32  1  0
  3 33  1  0
  4  5  1  0
  4 34  1  0
  4 35  1  0
  5  6  1  0
  5 36  1  0
  5 37  1  0
  6 38  1  0
  6 39  1  0
  6  7  1  0
  7 26  1  6
  7  8  1  0
  7 24  1  0
  8  9  1  0
  8 10  2  0
  9 40  1  0
  9 41  1  0
  9 42  1  0
 10 11  1  0
 11 12  1  0
 11 24  1  0
 12 23  1  0
 12 13  2  0
 13 14  1  0
 14 15  2  0
 14 43  1  0
 15 16  1  0
 16 17  1  0
 16 23  2  0
 17 22  1  0
 17 18  1  0
 18 19  1  0
 18 44  1  0
 18 45  1  0
 19 20  1  0
 19 46  1  0
 19 47  1  0
 20 21  1  0
 21 22  1  0
 21 48  1  0
 21 49  1  0
 22 50  1  0
 22 51  1  0
 24 25  2  0
M  END
>  <i_m_ct_stereo_status>  (378) 
1

>  <s_m_source_file>  (378) 
/var/tmp/pbs.5076255.sched01/tmpu61_44ix/12937f0afz8.sdf

>  <i_m_source_file_index>  (378) 
32

>  <i_lp_mmshare_version>  (378) 
48012

>  <i_f3d_flags>  (378) 
0

>  <s_epik_input>  (378) 
W0NIM11bQ0gyXVtDSDJdW0NIMl1bQ0gyXVtDSDJdYzFjKFtDSDNdKVtuSF1uKGMxPU8pLWMybltjSF1uYyhuMilOM1tDSDJdW0NIMl1PW0NIMl1bQ0gyXTM=

>  <s_epik_cmdline>  (378) 
J2VwaWtfcHl0aG9uJywgJy1waHQnLCAnMi4wJywgJy1waCcsICc3LjAnLCAnLXRuJywgJzgnLCAnLW1hJywgJzIwMCcsICctaW1hZScsICc8aW5maWxlLm1hZT4nLCAnLW9tYWUnLCAnPG91dGZpbGUubWFlPic=

>  <r_lp_tautomer_probability>  (378) 
0.264447

>  <r_epik_Ionization_Penalty>  (378) 
1.25051e-08

>  <r_epik_Ionization_Penalty_Charging>  (378) 
0

>  <r_epik_Ionization_Penalty_Neutral>  (378) 
1.25051e-08

>  <r_epik_State_Penalty>  (378) 
0.820805

>  <r_epik_Charging_Adjusted_Penalty>  (378) 
0.820805

>  <i_epik_Tot_Q>  (378) 
0

>  <i_epik_Tot_abs_Q>  (378) 
0

>  <s_epik_Chemistry_Notes>  (378) 
This compound has an imine and may undergo hydrolysis.

>  <s_lp_Force_Field>  (378) 
OPLS3e

>  <r_lp_Energy>  (378) 
17.5371

>  <b_lp_Chiralities_Consistent>  (378) 
1

>  <s_lp_Variant>  (378) 
114:0-3

>  <s_i_glide_gridfile>  (378) 
pfpi4k_grid

>  <i_i_glide_lignum>  (378) 
32

>  <i_i_glide_rotatable_bonds>  (378) 
7

>  <r_i_docking_score>  (378) 
-2.79987

>  <r_i_glide_ligand_efficiency>  (378) 
-0.111995

>  <r_i_glide_ligand_efficiency_sa>  (378) 
-0.327474

>  <r_i_glide_ligand_efficiency_ln>  (378) 
-0.663653

>  <r_i_glide_gscore>  (378) 
-2.79987

>  <r_i_glide_lipo>  (378) 
-0.339688

>  <r_i_glide_hbond>  (378) 
-0.389972

>  <r_i_glide_metal>  (378) 
-0

>  <r_i_glide_rewards>  (378) 
-1.0793

>  <r_i_glide_evdw>  (378) 
-29.8891

>  <r_i_glide_ecoul>  (378) 
-2.43442

>  <r_i_glide_erotb>  (378) 
0.950505

>  <r_i_glide_esite>  (378) 
-0.0817898

>  <r_i_glide_emodel>  (378) 
-36.6028

>  <r_i_glide_energy>  (378) 
-32.3235

>  <r_i_glide_einternal>  (378) 
3.23142

>  <r_i_glide_intrahb_reward>  (378) 
-0

>  <i_i_glide_confnum>  (378) 
5

>  <i_i_glide_posenum>  (378) 
4

>  <r_i_glide_eff_state_penalty>  (378) 
0

>  <ligand_id>  (378) 
114

>  <original_smiles>  (378) 
CCCCCCc1c(C)[nH]n(-c2ncnc(N3CCOCC3)n2)c1=O

>  <smiles>  (378) 
[H]c1nc(N2N=C(C([H])([H])[H])C([H])(C([H])([H])C([H])([H])C([H])([H])C([H])([H])C([H])([H])C([H])([H])[H])C2=O)nc(N2C([H])([H])C([H])([H])OC([H])([H])C2([H])[H])n1

$$$$
114:3:0
     RDKit          3D

 50 52  0  0  1  0  0  0  0  0999 V2000
   -5.3716    7.2865    1.1215 C   0  0  0  0  0  0  0  0  0  0  0  0
   -5.0064    5.9727    0.4138 C   0  0  0  0  0  0  0  0  0  0  0  0
   -4.8620    4.7816    1.3791 C   0  0  0  0  0  0  0  0  0  0  0  0
   -3.6125    4.9041    2.2596 C   0  0  0  0  0  0  0  0  0  0  0  0
   -3.3213    3.6149    3.0741 C   0  0  0  0  0  0  0  0  0  0  0  0
   -2.1334    3.7552    4.0472 C   0  0  0  0  0  0  0  0  0  0  0  0
   -1.8116    2.4636    4.7694 C   0  0  0  0  0  0  0  0  0  0  0  0
   -2.0341    2.1117    6.1341 C   0  0  0  0  0  0  0  0  0  0  0  0
   -2.6505    2.9342    7.2255 C   0  0  0  0  0  0  0  0  0  0  0  0
   -1.6409    0.8763    6.4205 N   0  0  0  0  0  0  0  0  0  0  0  0
   -1.1164    0.3820    5.2689 N   0  0  0  0  0  0  0  0  0  0  0  0
   -0.5507   -0.9263    5.2398 C   0  0  0  0  0  0  0  0  0  0  0  0
   -1.1058   -1.8491    6.0370 N   0  0  0  0  0  0  0  0  0  0  0  0
   -0.5039   -3.0311    5.9679 C   0  0  0  0  0  0  0  0  0  0  0  0
    0.5247   -3.3918    5.2058 N   0  0  0  0  0  0  0  0  0  0  0  0
    0.9916   -2.3838    4.4672 C   0  0  0  0  0  0  0  0  0  0  0  0
    2.0858   -2.6586    3.6351 N   0  0  0  0  0  0  0  0  0  0  0  0
    2.7192   -1.6482    2.7814 C   0  0  0  0  0  0  0  0  0  0  0  0
    2.8086   -2.1561    1.3344 C   0  0  0  0  0  0  0  0  0  0  0  0
    3.4931   -3.4038    1.2995 O   0  0  0  0  0  0  0  0  0  0  0  0
    2.8220   -4.4005    2.0616 C   0  0  0  0  0  0  0  0  0  0  0  0
    2.7346   -3.9673    3.5341 C   0  0  0  0  0  0  0  0  0  0  0  0
    0.5118   -1.1426    4.4524 N   0  0  0  0  0  0  0  0  0  0  0  0
   -1.2295    1.3360    4.2649 C   0  0  0  0  0  0  0  0  0  0  0  0
   -0.8274    1.1095    2.9993 O   0  0  0  0  0  0  0  0  0  0  0  0
   -5.4797    8.0979    0.4018 H   0  0  0  0  0  0  0  0  0  0  0  0
   -4.6014    7.5902    1.8295 H   0  0  0  0  0  0  0  0  0  0  0  0
   -6.3121    7.1890    1.6653 H   0  0  0  0  0  0  0  0  0  0  0  0
   -5.7809    5.7398   -0.3147 H   0  0  0  0  0  0  0  0  0  0  0  0
   -4.0874    6.1154   -0.1579 H   0  0  0  0  0  0  0  0  0  0  0  0
   -5.7567    4.6918    2.0007 H   0  0  0  0  0  0  0  0  0  0  0  0
   -4.7961    3.8381    0.8507 H   0  0  0  0  0  0  0  0  0  0  0  0
   -2.7282    5.2260    1.7045 H   0  0  0  0  0  0  0  0  0  0  0  0
   -3.7949    5.7601    2.8808 H   0  0  0  0  0  0  0  0  0  0  0  0
   -4.2064    3.3236    3.6403 H   0  0  0  0  0  0  0  0  0  0  0  0
   -3.1268    2.7939    2.3847 H   0  0  0  0  0  0  0  0  0  0  0  0
   -1.2655    4.1048    3.4865 H   0  0  0  0  0  0  0  0  0  0  0  0
   -2.3508    4.5426    4.7608 H   0  0  0  0  0  0  0  0  0  0  0  0
   -3.0191    3.8836    6.8438 H   0  0  0  0  0  0  0  0  0  0  0  0
   -1.9239    3.1559    8.0078 H   0  0  0  0  0  0  0  0  0  0  0  0
   -3.4891    2.4068    7.6799 H   0  0  0  0  0  0  0  0  0  0  0  0
   -0.9212   -3.8049    6.5888 H   0  0  0  0  0  0  0  0  0  0  0  0
    2.1963   -0.6927    2.7771 H   0  0  0  0  0  0  0  0  0  0  0  0
    3.7184   -1.4435    3.1642 H   0  0  0  0  0  0  0  0  0  0  0  0
    1.8141   -2.2606    0.9004 H   0  0  0  0  0  0  0  0  0  0  0  0
    3.3420   -1.4369    0.7149 H   0  0  0  0  0  0  0  0  0  0  0  0
    1.8277   -4.5802    1.6540 H   0  0  0  0  0  0  0  0  0  0  0  0
    3.3730   -5.3354    1.9766 H   0  0  0  0  0  0  0  0  0  0  0  0
    3.7365   -3.8958    3.9582 H   0  0  0  0  0  0  0  0  0  0  0  0
    2.2188   -4.7427    4.0996 H   0  0  0  0  0  0  0  0  0  0  0  0
  1  2  1  0
  1 26  1  0
  1 27  1  0
  1 28  1  0
  2  3  1  0
  2 29  1  0
  2 30  1  0
  3  4  1  0
  3 31  1  0
  3 32  1  0
  4  5  1  0
  4 33  1  0
  4 34  1  0
  5  6  1  0
  5 35  1  0
  5 36  1  0
  6 37  1  0
  6 38  1  0
  6  7  1  0
  7  8  1  0
  7 24  2  0
  8  9  1  0
  8 10  2  0
  9 39  1  0
  9 40  1  0
  9 41  1  0
 10 11  1  0
 11 12  1  0
 11 24  1  0
 12 23  1  0
 12 13  2  0
 13 14  1  0
 14 15  2  0
 14 42  1  0
 15 16  1  0
 16 17  1  0
 16 23  2  0
 17 22  1  0
 17 18  1  0
 18 19  1  0
 18 43  1  0
 18 44  1  0
 19 20  1  0
 19 45  1  0
 19 46  1  0
 20 21  1  0
 21 22  1  0
 21 47  1  0
 21 48  1  0
 22 49  1  0
 22 50  1  0
 24 25  1  0
M  CHG  1  25  -1
M  END
>  <i_m_ct_stereo_status>  (379) 
1

>  <s_m_source_file>  (379) 
/var/tmp/pbs.5076255.sched01/tmpu61_44ix/12937f0afz8.sdf

>  <i_m_source_file_index>  (379) 
33

>  <i_lp_mmshare_version>  (379) 
48012

>  <i_f3d_flags>  (379) 
0

>  <s_epik_input>  (379) 
W0NIM11bQ0gyXVtDSDJdW0NIMl1bQ0gyXVtDSDJdYzFjKFtDSDNdKVtuSF1uKGMxPU8pLWMybltjSF1uYyhuMilOM1tDSDJdW0NIMl1PW0NIMl1bQ0gyXTM=

>  <s_epik_cmdline>  (379) 
J2VwaWtfcHl0aG9uJywgJy1waHQnLCAnMi4wJywgJy1waCcsICc3LjAnLCAnLXRuJywgJzgnLCAnLW1hJywgJzIwMCcsICctaW1hZScsICc8aW5maWxlLm1hZT4nLCAnLW9tYWUnLCAnPG91dGZpbGUubWFlPic=

>  <r_lp_tautomer_probability>  (379) 
1

>  <r_epik_Ionization_Penalty>  (379) 
1.3757

>  <r_epik_Ionization_Penalty_Charging>  (379) 
0.959607

>  <r_epik_Ionization_Penalty_Neutral>  (379) 
0.416092

>  <r_epik_State_Penalty>  (379) 
1.41794

>  <r_epik_Charging_Adjusted_Penalty>  (379) 
2.37755

>  <i_epik_Tot_Q>  (379) 
-1

>  <i_epik_Tot_abs_Q>  (379) 
1

>  <s_lp_Force_Field>  (379) 
OPLS3e

>  <r_lp_Energy>  (379) 
29.7185

>  <b_lp_Chiralities_Consistent>  (379) 
1

>  <s_lp_Variant>  (379) 
114:0-4

>  <s_i_glide_gridfile>  (379) 
pfpi4k_grid

>  <i_i_glide_lignum>  (379) 
33

>  <i_i_glide_rotatable_bonds>  (379) 
7

>  <r_i_docking_score>  (379) 
-2.88902

>  <r_i_glide_ligand_efficiency>  (379) 
-0.115561

>  <r_i_glide_ligand_efficiency_sa>  (379) 
-0.337901

>  <r_i_glide_ligand_efficiency_ln>  (379) 
-0.684783

>  <r_i_glide_gscore>  (379) 
-2.88902

>  <r_i_glide_lipo>  (379) 
-1.01307

>  <r_i_glide_hbond>  (379) 
-0.0708655

>  <r_i_glide_metal>  (379) 
-0

>  <r_i_glide_rewards>  (379) 
-1.07106

>  <r_i_glide_evdw>  (379) 
-23.3439

>  <r_i_glide_ecoul>  (379) 
-2.95727

>  <r_i_glide_erotb>  (379) 
0.955436

>  <r_i_glide_esite>  (379) 
-0.0786721

>  <r_i_glide_emodel>  (379) 
-32.6825

>  <r_i_glide_energy>  (379) 
-26.3012

>  <r_i_glide_einternal>  (379) 
1.24924

>  <r_i_glide_intrahb_reward>  (379) 
-0

>  <i_i_glide_confnum>  (379) 
6

>  <i_i_glide_posenum>  (379) 
4

>  <r_i_glide_eff_state_penalty>  (379) 
0

>  <ligand_id>  (379) 
114

>  <original_smiles>  (379) 
CCCCCCc1c(C)[nH]n(-c2ncnc(N3CCOCC3)n2)c1=O

>  <smiles>  (379) 
[H]c1nc(N2C([H])([H])C([H])([H])OC([H])([H])C2([H])[H])nc(-n2nc(C([H])([H])[H])c(C([H])([H])C([H])([H])C([H])([H])C([H])([H])C([H])([H])C([H])([H])[H])c2[O-])n1

$$$$
114:3:1
     RDKit          3D

 50 52  0  0  1  0  0  0  0  0999 V2000
   -2.1886   -8.6541    2.7115 C   0  0  0  0  0  0  0  0  0  0  0  0
   -0.6823   -8.5037    2.8845 C   0  0  0  0  0  0  0  0  0  0  0  0
   -0.2918   -8.1936    4.3421 C   0  0  0  0  0  0  0  0  0  0  0  0
    1.2073   -7.9260    4.4916 C   0  0  0  0  0  0  0  0  0  0  0  0
    2.1143   -9.1371    4.1791 C   0  0  0  0  0  0  0  0  0  0  0  0
    3.6124   -8.7917    4.0948 C   0  0  0  0  0  0  0  0  0  0  0  0
    3.9384   -7.7802    3.0168 C   0  0  0  0  0  0  0  0  0  0  0  0
    4.4141   -8.0113    1.6916 C   0  0  0  0  0  0  0  0  0  0  0  0
    4.7460   -9.3167    1.0246 C   0  0  0  0  0  0  0  0  0  0  0  0
    4.5772   -6.8924    1.0014 N   0  0  0  0  0  0  0  0  0  0  0  0
    4.2385   -5.8805    1.8351 N   0  0  0  0  0  0  0  0  0  0  0  0
    4.3064   -4.5256    1.3944 C   0  0  0  0  0  0  0  0  0  0  0  0
    4.6991   -3.6054    2.2860 N   0  0  0  0  0  0  0  0  0  0  0  0
    4.7386   -2.3729    1.8018 C   0  0  0  0  0  0  0  0  0  0  0  0
    4.4642   -1.9778    0.5641 N   0  0  0  0  0  0  0  0  0  0  0  0
    4.0954   -2.9837   -0.2325 C   0  0  0  0  0  0  0  0  0  0  0  0
    3.8123   -2.6525   -1.5529 N   0  0  0  0  0  0  0  0  0  0  0  0
    3.9791   -3.5847   -2.6612 C   0  0  0  0  0  0  0  0  0  0  0  0
    4.8114   -2.9322   -3.7628 C   0  0  0  0  0  0  0  0  0  0  0  0
    4.2152   -1.7040   -4.1724 O   0  0  0  0  0  0  0  0  0  0  0  0
    4.1200   -0.7739   -3.0939 C   0  0  0  0  0  0  0  0  0  0  0  0
    3.2663   -1.3642   -1.9659 C   0  0  0  0  0  0  0  0  0  0  0  0
    3.9924   -4.2693    0.1134 N   0  0  0  0  0  0  0  0  0  0  0  0
    3.8671   -6.4119    3.0647 C   0  0  0  0  0  0  0  0  0  0  0  0
    3.4801   -5.6330    4.0947 O   0  0  0  0  0  0  0  0  0  0  0  0
   -2.4318   -8.9140    1.6799 H   0  0  0  0  0  0  0  0  0  0  0  0
   -2.6994   -7.7296    2.9709 H   0  0  0  0  0  0  0  0  0  0  0  0
   -2.5683   -9.4518    3.3461 H   0  0  0  0  0  0  0  0  0  0  0  0
   -0.2237   -9.4351    2.5560 H   0  0  0  0  0  0  0  0  0  0  0  0
   -0.3130   -7.7248    2.2134 H   0  0  0  0  0  0  0  0  0  0  0  0
   -0.8212   -7.2950    4.6672 H   0  0  0  0  0  0  0  0  0  0  0  0
   -0.5987   -9.0020    5.0087 H   0  0  0  0  0  0  0  0  0  0  0  0
    1.4107   -7.1042    3.8115 H   0  0  0  0  0  0  0  0  0  0  0  0
    1.4308   -7.5648    5.4987 H   0  0  0  0  0  0  0  0  0  0  0  0
    1.9511   -9.9028    4.9394 H   0  0  0  0  0  0  0  0  0  0  0  0
    1.8385   -9.5918    3.2294 H   0  0  0  0  0  0  0  0  0  0  0  0
    3.9548   -8.4464    5.0682 H   0  0  0  0  0  0  0  0  0  0  0  0
    4.1540   -9.7231    3.9178 H   0  0  0  0  0  0  0  0  0  0  0  0
    4.4871  -10.1722    1.6462 H   0  0  0  0  0  0  0  0  0  0  0  0
    5.8105   -9.3822    0.8046 H   0  0  0  0  0  0  0  0  0  0  0  0
    4.2070   -9.4249    0.0856 H   0  0  0  0  0  0  0  0  0  0  0  0
    5.0426   -1.5997    2.4958 H   0  0  0  0  0  0  0  0  0  0  0  0
    4.4779   -4.4998   -2.3394 H   0  0  0  0  0  0  0  0  0  0  0  0
    2.9943   -3.8419   -3.0464 H   0  0  0  0  0  0  0  0  0  0  0  0
    5.8280   -2.7543   -3.4167 H   0  0  0  0  0  0  0  0  0  0  0  0
    4.8748   -3.6057   -4.6165 H   0  0  0  0  0  0  0  0  0  0  0  0
    5.1112   -0.5275   -2.7195 H   0  0  0  0  0  0  0  0  0  0  0  0
    3.6734    0.1509   -3.4554 H   0  0  0  0  0  0  0  0  0  0  0  0
    2.2492   -1.5206   -2.3255 H   0  0  0  0  0  0  0  0  0  0  0  0
    3.2036   -0.6684   -1.1269 H   0  0  0  0  0  0  0  0  0  0  0  0
  1  2  1  0
  1 26  1  0
  1 27  1  0
  1 28  1  0
  2  3  1  0
  2 29  1  0
  2 30  1  0
  3  4  1  0
  3 31  1  0
  3 32  1  0
  4  5  1  0
  4 33  1  0
  4 34  1  0
  5  6  1  0
  5 35  1  0
  5 36  1  0
  6 37  1  0
  6 38  1  0
  6  7  1  0
  7  8  1  0
  7 24  2  0
  8  9  1  0
  8 10  2  0
  9 39  1  0
  9 40  1  0
  9 41  1  0
 10 11  1  0
 11 12  1  0
 11 24  1  0
 12 23  1  0
 12 13  2  0
 13 14  1  0
 14 15  2  0
 14 42  1  0
 15 16  1  0
 16 17  1  0
 16 23  2  0
 17 22  1  0
 17 18  1  0
 18 19  1  0
 18 43  1  0
 18 44  1  0
 19 20  1  0
 19 45  1  0
 19 46  1  0
 20 21  1  0
 21 22  1  0
 21 47  1  0
 21 48  1  0
 22 49  1  0
 22 50  1  0
 24 25  1  0
M  CHG  1  25  -1
M  END
>  <i_m_ct_stereo_status>  (380) 
1

>  <s_m_source_file>  (380) 
/var/tmp/pbs.5076255.sched01/tmpu61_44ix/12937f0afz8.sdf

>  <i_m_source_file_index>  (380) 
33

>  <i_lp_mmshare_version>  (380) 
48012

>  <i_f3d_flags>  (380) 
0

>  <s_epik_input>  (380) 
W0NIM11bQ0gyXVtDSDJdW0NIMl1bQ0gyXVtDSDJdYzFjKFtDSDNdKVtuSF1uKGMxPU8pLWMybltjSF1uYyhuMilOM1tDSDJdW0NIMl1PW0NIMl1bQ0gyXTM=

>  <s_epik_cmdline>  (380) 
J2VwaWtfcHl0aG9uJywgJy1waHQnLCAnMi4wJywgJy1waCcsICc3LjAnLCAnLXRuJywgJzgnLCAnLW1hJywgJzIwMCcsICctaW1hZScsICc8aW5maWxlLm1hZT4nLCAnLW9tYWUnLCAnPG91dGZpbGUubWFlPic=

>  <r_lp_tautomer_probability>  (380) 
1

>  <r_epik_Ionization_Penalty>  (380) 
1.3757

>  <r_epik_Ionization_Penalty_Charging>  (380) 
0.959607

>  <r_epik_Ionization_Penalty_Neutral>  (380) 
0.416092

>  <r_epik_State_Penalty>  (380) 
1.41794

>  <r_epik_Charging_Adjusted_Penalty>  (380) 
2.37755

>  <i_epik_Tot_Q>  (380) 
-1

>  <i_epik_Tot_abs_Q>  (380) 
1

>  <s_lp_Force_Field>  (380) 
OPLS3e

>  <r_lp_Energy>  (380) 
29.7185

>  <b_lp_Chiralities_Consistent>  (380) 
1

>  <s_lp_Variant>  (380) 
114:0-4

>  <s_i_glide_gridfile>  (380) 
pfpi4k_grid

>  <i_i_glide_lignum>  (380) 
33

>  <i_i_glide_rotatable_bonds>  (380) 
7

>  <r_i_docking_score>  (380) 
-2.39406

>  <r_i_glide_ligand_efficiency>  (380) 
-0.0957623

>  <r_i_glide_ligand_efficiency_sa>  (380) 
-0.280011

>  <r_i_glide_ligand_efficiency_ln>  (380) 
-0.567463

>  <r_i_glide_gscore>  (380) 
-2.39406

>  <r_i_glide_lipo>  (380) 
-0.337419

>  <r_i_glide_hbond>  (380) 
-0.272113

>  <r_i_glide_metal>  (380) 
-0

>  <r_i_glide_rewards>  (380) 
-1.16644

>  <r_i_glide_evdw>  (380) 
-27.3694

>  <r_i_glide_ecoul>  (380) 
-1.18831

>  <r_i_glide_erotb>  (380) 
0.955436

>  <r_i_glide_esite>  (380) 
-0.0268042

>  <r_i_glide_emodel>  (380) 
-32.6609

>  <r_i_glide_energy>  (380) 
-28.5577

>  <r_i_glide_einternal>  (380) 
2.86847

>  <r_i_glide_intrahb_reward>  (380) 
-0

>  <i_i_glide_confnum>  (380) 
7

>  <i_i_glide_posenum>  (380) 
23

>  <r_i_glide_eff_state_penalty>  (380) 
0

>  <ligand_id>  (380) 
114

>  <original_smiles>  (380) 
CCCCCCc1c(C)[nH]n(-c2ncnc(N3CCOCC3)n2)c1=O

>  <smiles>  (380) 
[H]c1nc(N2C([H])([H])C([H])([H])OC([H])([H])C2([H])[H])nc(-n2nc(C([H])([H])[H])c(C([H])([H])C([H])([H])C([H])([H])C([H])([H])C([H])([H])C([H])([H])[H])c2[O-])n1

$$$$
114:3:2
     RDKit          3D

 50 52  0  0  1  0  0  0  0  0999 V2000
   -0.6423   -7.4597    1.5218 C   0  0  0  0  0  0  0  0  0  0  0  0
   -1.5541   -8.3168    2.4325 C   0  0  0  0  0  0  0  0  0  0  0  0
   -1.4638   -7.9764    3.9386 C   0  0  0  0  0  0  0  0  0  0  0  0
   -0.0230   -7.8721    4.4486 C   0  0  0  0  0  0  0  0  0  0  0  0
    0.8759   -9.1007    4.1539 C   0  0  0  0  0  0  0  0  0  0  0  0
    2.3874   -8.7994    4.1995 C   0  0  0  0  0  0  0  0  0  0  0  0
    2.8464   -7.7841    3.1659 C   0  0  0  0  0  0  0  0  0  0  0  0
    3.4661   -8.0232    1.8985 C   0  0  0  0  0  0  0  0  0  0  0  0
    3.8661   -9.3296    1.2697 C   0  0  0  0  0  0  0  0  0  0  0  0
    3.7142   -6.9022    1.2358 N   0  0  0  0  0  0  0  0  0  0  0  0
    3.3033   -5.8813    2.0324 N   0  0  0  0  0  0  0  0  0  0  0  0
    3.4338   -4.5287    1.6003 C   0  0  0  0  0  0  0  0  0  0  0  0
    3.5794   -3.5896    2.5445 N   0  0  0  0  0  0  0  0  0  0  0  0
    3.6973   -2.3578    2.0767 C   0  0  0  0  0  0  0  0  0  0  0  0
    3.7172   -1.9807    0.8032 N   0  0  0  0  0  0  0  0  0  0  0  0
    3.5679   -3.0001   -0.0468 C   0  0  0  0  0  0  0  0  0  0  0  0
    3.5981   -2.6880   -1.4013 N   0  0  0  0  0  0  0  0  0  0  0  0
    3.9593   -3.6529   -2.4335 C   0  0  0  0  0  0  0  0  0  0  0  0
    5.0478   -3.0709   -3.3374 C   0  0  0  0  0  0  0  0  0  0  0  0
    4.6063   -1.8294   -3.8784 O   0  0  0  0  0  0  0  0  0  0  0  0
    4.3365   -0.8680   -2.8598 C   0  0  0  0  0  0  0  0  0  0  0  0
    3.2252   -1.3848   -1.9392 C   0  0  0  0  0  0  0  0  0  0  0  0
    3.4113   -4.2814    0.2834 N   0  0  0  0  0  0  0  0  0  0  0  0
    2.8080   -6.4195    3.2169 C   0  0  0  0  0  0  0  0  0  0  0  0
    2.3483   -5.6361    4.2184 O   0  0  0  0  0  0  0  0  0  0  0  0
   -0.7429   -7.7576    0.4787 H   0  0  0  0  0  0  0  0  0  0  0  0
    0.4154   -7.5737    1.7575 H   0  0  0  0  0  0  0  0  0  0  0  0
   -0.8817   -6.4017    1.6018 H   0  0  0  0  0  0  0  0  0  0  0  0
   -2.5892   -8.2222    2.1076 H   0  0  0  0  0  0  0  0  0  0  0  0
   -1.3127   -9.3706    2.2840 H   0  0  0  0  0  0  0  0  0  0  0  0
   -1.9411   -7.0085    4.1073 H   0  0  0  0  0  0  0  0  0  0  0  0
   -2.0156   -8.7059    4.5306 H   0  0  0  0  0  0  0  0  0  0  0  0
    0.3486   -6.9854    3.9430 H   0  0  0  0  0  0  0  0  0  0  0  0
    0.0091   -7.6349    5.5160 H   0  0  0  0  0  0  0  0  0  0  0  0
    0.6214   -9.8967    4.8576 H   0  0  0  0  0  0  0  0  0  0  0  0
    0.6844   -9.5167    3.1655 H   0  0  0  0  0  0  0  0  0  0  0  0
    2.6602   -8.4816    5.2037 H   0  0  0  0  0  0  0  0  0  0  0  0
    2.9059   -9.7435    4.0464 H   0  0  0  0  0  0  0  0  0  0  0  0
    3.5327  -10.1898    1.8475 H   0  0  0  0  0  0  0  0  0  0  0  0
    4.9497   -9.4016    1.1755 H   0  0  0  0  0  0  0  0  0  0  0  0
    3.4502   -9.4396    0.2699 H   0  0  0  0  0  0  0  0  0  0  0  0
    3.8004   -1.5765    2.8158 H   0  0  0  0  0  0  0  0  0  0  0  0
    4.3152   -4.5882   -1.9986 H   0  0  0  0  0  0  0  0  0  0  0  0
    3.0660   -3.8517   -3.0229 H   0  0  0  0  0  0  0  0  0  0  0  0
    5.9748   -2.9337   -2.7824 H   0  0  0  0  0  0  0  0  0  0  0  0
    5.2600   -3.7647   -4.1492 H   0  0  0  0  0  0  0  0  0  0  0  0
    5.2393   -0.6626   -2.2855 H   0  0  0  0  0  0  0  0  0  0  0  0
    4.0283    0.0677   -3.3203 H   0  0  0  0  0  0  0  0  0  0  0  0
    2.2959   -1.4982   -2.4981 H   0  0  0  0  0  0  0  0  0  0  0  0
    3.0194   -0.6652   -1.1466 H   0  0  0  0  0  0  0  0  0  0  0  0
  1  2  1  0
  1 26  1  0
  1 27  1  0
  1 28  1  0
  2  3  1  0
  2 29  1  0
  2 30  1  0
  3  4  1  0
  3 31  1  0
  3 32  1  0
  4  5  1  0
  4 33  1  0
  4 34  1  0
  5  6  1  0
  5 35  1  0
  5 36  1  0
  6 37  1  0
  6 38  1  0
  6  7  1  0
  7  8  1  0
  7 24  2  0
  8  9  1  0
  8 10  2  0
  9 39  1  0
  9 40  1  0
  9 41  1  0
 10 11  1  0
 11 12  1  0
 11 24  1  0
 12 23  1  0
 12 13  2  0
 13 14  1  0
 14 15  2  0
 14 42  1  0
 15 16  1  0
 16 17  1  0
 16 23  2  0
 17 22  1  0
 17 18  1  0
 18 19  1  0
 18 43  1  0
 18 44  1  0
 19 20  1  0
 19 45  1  0
 19 46  1  0
 20 21  1  0
 21 22  1  0
 21 47  1  0
 21 48  1  0
 22 49  1  0
 22 50  1  0
 24 25  1  0
M  CHG  1  25  -1
M  END
>  <i_m_ct_stereo_status>  (381) 
1

>  <s_m_source_file>  (381) 
/var/tmp/pbs.5076255.sched01/tmpu61_44ix/12937f0afz8.sdf

>  <i_m_source_file_index>  (381) 
33

>  <i_lp_mmshare_version>  (381) 
48012

>  <i_f3d_flags>  (381) 
0

>  <s_epik_input>  (381) 
W0NIM11bQ0gyXVtDSDJdW0NIMl1bQ0gyXVtDSDJdYzFjKFtDSDNdKVtuSF1uKGMxPU8pLWMybltjSF1uYyhuMilOM1tDSDJdW0NIMl1PW0NIMl1bQ0gyXTM=

>  <s_epik_cmdline>  (381) 
J2VwaWtfcHl0aG9uJywgJy1waHQnLCAnMi4wJywgJy1waCcsICc3LjAnLCAnLXRuJywgJzgnLCAnLW1hJywgJzIwMCcsICctaW1hZScsICc8aW5maWxlLm1hZT4nLCAnLW9tYWUnLCAnPG91dGZpbGUubWFlPic=

>  <r_lp_tautomer_probability>  (381) 
1

>  <r_epik_Ionization_Penalty>  (381) 
1.3757

>  <r_epik_Ionization_Penalty_Charging>  (381) 
0.959607

>  <r_epik_Ionization_Penalty_Neutral>  (381) 
0.416092

>  <r_epik_State_Penalty>  (381) 
1.41794

>  <r_epik_Charging_Adjusted_Penalty>  (381) 
2.37755

>  <i_epik_Tot_Q>  (381) 
-1

>  <i_epik_Tot_abs_Q>  (381) 
1

>  <s_lp_Force_Field>  (381) 
OPLS3e

>  <r_lp_Energy>  (381) 
29.7185

>  <b_lp_Chiralities_Consistent>  (381) 
1

>  <s_lp_Variant>  (381) 
114:0-4

>  <s_i_glide_gridfile>  (381) 
pfpi4k_grid

>  <i_i_glide_lignum>  (381) 
33

>  <i_i_glide_rotatable_bonds>  (381) 
7

>  <r_i_docking_score>  (381) 
-2.05628

>  <r_i_glide_ligand_efficiency>  (381) 
-0.082251

>  <r_i_glide_ligand_efficiency_sa>  (381) 
-0.240503

>  <r_i_glide_ligand_efficiency_ln>  (381) 
-0.487399

>  <r_i_glide_gscore>  (381) 
-2.05628

>  <r_i_glide_lipo>  (381) 
-0.302294

>  <r_i_glide_hbond>  (381) 
-0.0511643

>  <r_i_glide_metal>  (381) 
-0

>  <r_i_glide_rewards>  (381) 
-1.07649

>  <r_i_glide_evdw>  (381) 
-28.0396

>  <r_i_glide_ecoul>  (381) 
-0.930776

>  <r_i_glide_erotb>  (381) 
0.955436

>  <r_i_glide_esite>  (381) 
-0.0401655

>  <r_i_glide_emodel>  (381) 
-30.9665

>  <r_i_glide_energy>  (381) 
-28.9704

>  <r_i_glide_einternal>  (381) 
4.8417

>  <r_i_glide_intrahb_reward>  (381) 
-0

>  <i_i_glide_confnum>  (381) 
7

>  <i_i_glide_posenum>  (381) 
2

>  <r_i_glide_eff_state_penalty>  (381) 
0

>  <ligand_id>  (381) 
114

>  <original_smiles>  (381) 
CCCCCCc1c(C)[nH]n(-c2ncnc(N3CCOCC3)n2)c1=O

>  <smiles>  (381) 
[H]c1nc(N2C([H])([H])C([H])([H])OC([H])([H])C2([H])[H])nc(-n2nc(C([H])([H])[H])c(C([H])([H])C([H])([H])C([H])([H])C([H])([H])C([H])([H])C([H])([H])[H])c2[O-])n1

$$$$
114:4:0
     RDKit          3D

 51 53  0  0  1  0  0  0  0  0999 V2000
   -3.5535    3.3322    2.7151 C   0  0  0  0  0  0  0  0  0  0  0  0
   -2.1860    3.9315    3.0431 C   0  0  0  0  0  0  0  0  0  0  0  0
   -1.0305    2.9361    2.8899 C   0  0  0  0  0  0  0  0  0  0  0  0
   -1.0429    1.7796    3.9112 C   0  0  0  0  0  0  0  0  0  0  0  0
    0.1536    0.8235    3.7884 C   0  0  0  0  0  0  0  0  0  0  0  0
    1.5143    1.4868    4.0833 C   0  0  0  0  0  0  0  0  0  0  0  0
    2.7083    0.6289    3.7026 C   0  0  0  0  0  0  0  0  0  0  0  0
    3.6568    0.1122    4.4855 C   0  0  0  0  0  0  0  0  0  0  0  0
    3.8216    0.1802    5.9957 C   0  0  0  0  0  0  0  0  0  0  0  0
    4.5403   -0.5879    3.7140 N   0  0  0  0  0  0  0  0  0  0  0  0
    4.1557   -0.4855    2.3777 N   0  0  0  0  0  0  0  0  0  0  0  0
    4.9154   -1.0670    1.3679 C   0  0  0  0  0  0  0  0  0  0  0  0
    6.1661   -1.4097    1.6957 N   0  0  0  0  0  0  0  0  0  0  0  0
    6.8384   -1.9394    0.6774 C   0  0  0  0  0  0  0  0  0  0  0  0
    6.4157   -2.1400   -0.5596 N   0  0  0  0  0  0  0  0  0  0  0  0
    5.1308   -1.8172   -0.7346 C   0  0  0  0  0  0  0  0  0  0  0  0
    4.5695   -2.0752   -1.9681 N   0  0  0  0  0  0  0  0  0  0  0  0
    3.1710   -1.7723   -2.3143 C   0  0  0  0  0  0  0  0  0  0  0  0
    2.4953   -3.0137   -2.9119 C   0  0  0  0  0  0  0  0  0  0  0  0
    3.2337   -3.4575   -4.0471 O   0  0  0  0  0  0  0  0  0  0  0  0
    4.5608   -3.8419   -3.7059 C   0  0  0  0  0  0  0  0  0  0  0  0
    5.2947   -2.6348   -3.1228 C   0  0  0  0  0  0  0  0  0  0  0  0
    4.3394   -1.2630    0.1969 N   0  0  0  0  0  0  0  0  0  0  0  0
    3.0221    0.2635    2.3191 C   0  0  0  0  0  0  0  0  0  0  0  0
    2.4019    0.5731    1.3101 O   0  0  0  0  0  0  0  0  0  0  0  0
    4.9229   -1.4503    4.0848 H   0  0  0  0  0  0  0  0  0  0  0  0
   -4.3502    4.0665    2.8115 H   0  0  0  0  0  0  0  0  0  0  0  0
   -3.7873    2.5266    3.4044 H   0  0  0  0  0  0  0  0  0  0  0  0
   -3.5725    2.9349    1.6991 H   0  0  0  0  0  0  0  0  0  0  0  0
   -1.9936    4.7756    2.3797 H   0  0  0  0  0  0  0  0  0  0  0  0
   -2.1773    4.3309    4.0572 H   0  0  0  0  0  0  0  0  0  0  0  0
   -0.9921    2.5217    1.8821 H   0  0  0  0  0  0  0  0  0  0  0  0
   -0.1331    3.5421    2.9942 H   0  0  0  0  0  0  0  0  0  0  0  0
   -1.1123    2.1743    4.9243 H   0  0  0  0  0  0  0  0  0  0  0  0
   -1.9448    1.1878    3.7543 H   0  0  0  0  0  0  0  0  0  0  0  0
    0.0060   -0.0088    4.4765 H   0  0  0  0  0  0  0  0  0  0  0  0
    0.1383    0.3841    2.7913 H   0  0  0  0  0  0  0  0  0  0  0  0
    1.6626    2.3844    3.4951 H   0  0  0  0  0  0  0  0  0  0  0  0
    1.5567    1.7996    5.1241 H   0  0  0  0  0  0  0  0  0  0  0  0
    3.0196    0.7478    6.4686 H   0  0  0  0  0  0  0  0  0  0  0  0
    4.7597    0.6741    6.2458 H   0  0  0  0  0  0  0  0  0  0  0  0
    3.8352   -0.8173    6.4291 H   0  0  0  0  0  0  0  0  0  0  0  0
    7.8565   -2.2109    0.8766 H   0  0  0  0  0  0  0  0  0  0  0  0
    2.6141   -1.4531   -1.4459 H   0  0  0  0  0  0  0  0  0  0  0  0
    3.1440   -0.9407   -3.0196 H   0  0  0  0  0  0  0  0  0  0  0  0
    2.4253   -3.8128   -2.1748 H   0  0  0  0  0  0  0  0  0  0  0  0
    1.4766   -2.7707   -3.2160 H   0  0  0  0  0  0  0  0  0  0  0  0
    4.6042   -4.6583   -2.9906 H   0  0  0  0  0  0  0  0  0  0  0  0
    5.0563   -4.1840   -4.6130 H   0  0  0  0  0  0  0  0  0  0  0  0
    5.3093   -1.8631   -3.8882 H   0  0  0  0  0  0  0  0  0  0  0  0
    6.3328   -2.9026   -2.8967 H   0  0  0  0  0  0  0  0  0  0  0  0
  1  2  1  0
  1 27  1  0
  1 28  1  0
  1 29  1  0
  2  3  1  0
  2 30  1  0
  2 31  1  0
  3  4  1  0
  3 32  1  0
  3 33  1  0
  4  5  1  0
  4 34  1  0
  4 35  1  0
  5  6  1  0
  5 36  1  0
  5 37  1  0
  6  7  1  0
  6 38  1  0
  6 39  1  0
  7 24  1  0
  7  8  2  0
  8  9  1  0
  8 10  1  0
  9 40  1  0
  9 41  1  0
  9 42  1  0
 10 26  1  0
 10 11  1  0
 11 12  1  0
 11 24  1  0
 12 23  1  0
 12 13  2  0
 13 14  1  0
 14 15  2  0
 14 43  1  0
 15 16  1  0
 16 17  1  0
 16 23  2  0
 17 22  1  0
 17 18  1  0
 18 19  1  0
 18 44  1  0
 18 45  1  0
 19 20  1  0
 19 46  1  0
 19 47  1  0
 20 21  1  0
 21 22  1  0
 21 48  1  0
 21 49  1  0
 22 50  1  0
 22 51  1  0
 24 25  2  0
M  END
>  <i_m_ct_stereo_status>  (382) 
1

>  <s_m_source_file>  (382) 
/var/tmp/pbs.5076255.sched01/tmpu61_44ix/12937f0afz8.sdf

>  <i_m_source_file_index>  (382) 
34

>  <i_lp_mmshare_version>  (382) 
48012

>  <i_f3d_flags>  (382) 
0

>  <s_epik_input>  (382) 
W0NIM11bQ0gyXVtDSDJdW0NIMl1bQ0gyXVtDSDJdYzFjKFtDSDNdKVtuSF1uKGMxPU8pLWMybltjSF1uYyhuMilOM1tDSDJdW0NIMl1PW0NIMl1bQ0gyXTM=

>  <s_epik_cmdline>  (382) 
J2VwaWtfcHl0aG9uJywgJy1waHQnLCAnMi4wJywgJy1waCcsICc3LjAnLCAnLXRuJywgJzgnLCAnLW1hJywgJzIwMCcsICctaW1hZScsICc8aW5maWxlLm1hZT4nLCAnLW9tYWUnLCAnPG91dGZpbGUubWFlPic=

>  <r_lp_tautomer_probability>  (382) 
0.0650725

>  <r_epik_Ionization_Penalty>  (382) 
0.405336

>  <r_epik_Ionization_Penalty_Charging>  (382) 
0.405336

>  <r_epik_Ionization_Penalty_Neutral>  (382) 
8.35855e-12

>  <r_epik_State_Penalty>  (382) 
1.63207

>  <r_epik_Charging_Adjusted_Penalty>  (382) 
2.03741

>  <i_epik_Tot_Q>  (382) 
0

>  <i_epik_Tot_abs_Q>  (382) 
0

>  <s_lp_Force_Field>  (382) 
OPLS3e

>  <r_lp_Energy>  (382) 
22.6053

>  <b_lp_Chiralities_Consistent>  (382) 
1

>  <s_lp_Variant>  (382) 
114:0-5

>  <s_i_glide_gridfile>  (382) 
pfpi4k_grid

>  <i_i_glide_lignum>  (382) 
34

>  <i_i_glide_rotatable_bonds>  (382) 
7

>  <r_i_docking_score>  (382) 
-2.47909

>  <r_i_glide_ligand_efficiency>  (382) 
-0.0991634

>  <r_i_glide_ligand_efficiency_sa>  (382) 
-0.289956

>  <r_i_glide_ligand_efficiency_ln>  (382) 
-0.587618

>  <r_i_glide_gscore>  (382) 
-2.47909

>  <r_i_glide_lipo>  (382) 
-0.248355

>  <r_i_glide_hbond>  (382) 
-0.0428585

>  <r_i_glide_metal>  (382) 
-0

>  <r_i_glide_rewards>  (382) 
-1.29329

>  <r_i_glide_evdw>  (382) 
-32.7154

>  <r_i_glide_ecoul>  (382) 
-1.14643

>  <r_i_glide_erotb>  (382) 
0.950505

>  <r_i_glide_esite>  (382) 
-0.0373481

>  <r_i_glide_emodel>  (382) 
-36.8364

>  <r_i_glide_energy>  (382) 
-33.8618

>  <r_i_glide_einternal>  (382) 
2.40233

>  <r_i_glide_intrahb_reward>  (382) 
-0

>  <i_i_glide_confnum>  (382) 
5

>  <i_i_glide_posenum>  (382) 
38

>  <r_i_glide_eff_state_penalty>  (382) 
0

>  <ligand_id>  (382) 
114

>  <original_smiles>  (382) 
CCCCCCc1c(C)[nH]n(-c2ncnc(N3CCOCC3)n2)c1=O

>  <smiles>  (382) 
[H]c1nc(N2C([H])([H])C([H])([H])OC([H])([H])C2([H])[H])nc(-n2c(=O)c(C([H])([H])C([H])([H])C([H])([H])C([H])([H])C([H])([H])C([H])([H])[H])c(C([H])([H])[H])n2[H])n1

$$$$
114:4:1
     RDKit          3D

 51 53  0  0  1  0  0  0  0  0999 V2000
    2.6348    0.4980   -5.0342 C   0  0  0  0  0  0  0  0  0  0  0  0
    3.9672    0.1149   -4.4091 C   0  0  0  0  0  0  0  0  0  0  0  0
    4.1057   -1.3967   -4.1019 C   0  0  0  0  0  0  0  0  0  0  0  0
    3.2240   -1.8971   -2.9649 C   0  0  0  0  0  0  0  0  0  0  0  0
    3.6661   -1.3760   -1.5930 C   0  0  0  0  0  0  0  0  0  0  0  0
    4.6838   -2.2844   -0.8990 C   0  0  0  0  0  0  0  0  0  0  0  0
    5.0619   -1.7962    0.4912 C   0  0  0  0  0  0  0  0  0  0  0  0
    6.2706   -1.4996    0.9669 C   0  0  0  0  0  0  0  0  0  0  0  0
    7.6384   -1.5959    0.3101 C   0  0  0  0  0  0  0  0  0  0  0  0
    6.1435   -1.0289    2.2398 N   0  0  0  0  0  0  0  0  0  0  0  0
    4.8044   -1.0667    2.6321 N   0  0  0  0  0  0  0  0  0  0  0  0
    4.4194   -0.7505    3.9221 C   0  0  0  0  0  0  0  0  0  0  0  0
    5.3630   -0.2210    4.6945 N   0  0  0  0  0  0  0  0  0  0  0  0
    4.9233    0.0773    5.9052 C   0  0  0  0  0  0  0  0  0  0  0  0
    3.6972   -0.0881    6.3928 N   0  0  0  0  0  0  0  0  0  0  0  0
    2.8658   -0.6323    5.5169 C   0  0  0  0  0  0  0  0  0  0  0  0
    1.5508   -0.8246    5.9256 N   0  0  0  0  0  0  0  0  0  0  0  0
    0.4682   -1.3020    5.0338 C   0  0  0  0  0  0  0  0  0  0  0  0
   -0.7388   -0.3582    5.1062 C   0  0  0  0  0  0  0  0  0  0  0  0
   -1.1898   -0.2537    6.4558 O   0  0  0  0  0  0  0  0  0  0  0  0
   -0.1810    0.3018    7.2950 C   0  0  0  0  0  0  0  0  0  0  0  0
    1.0523   -0.6149    7.3031 C   0  0  0  0  0  0  0  0  0  0  0  0
    3.1773   -0.9904    4.2764 N   0  0  0  0  0  0  0  0  0  0  0  0
    4.0804   -1.5334    1.5683 C   0  0  0  0  0  0  0  0  0  0  0  0
    2.8704   -1.6975    1.5397 O   0  0  0  0  0  0  0  0  0  0  0  0
    6.8206   -0.3390    2.5842 H   0  0  0  0  0  0  0  0  0  0  0  0
    2.5901    1.5622   -5.2561 H   0  0  0  0  0  0  0  0  0  0  0  0
    1.8171    0.2923   -4.3544 H   0  0  0  0  0  0  0  0  0  0  0  0
    2.4750   -0.0670   -5.9452 H   0  0  0  0  0  0  0  0  0  0  0  0
    4.7049    0.4128   -5.1194 H   0  0  0  0  0  0  0  0  0  0  0  0
    4.1544    0.7323   -3.5303 H   0  0  0  0  0  0  0  0  0  0  0  0
    3.8685   -1.9601   -4.9977 H   0  0  0  0  0  0  0  0  0  0  0  0
    5.1180   -1.6693   -3.8270 H   0  0  0  0  0  0  0  0  0  0  0  0
    2.2085   -1.5776   -3.1628 H   0  0  0  0  0  0  0  0  0  0  0  0
    3.1648   -2.9888   -2.9650 H   0  0  0  0  0  0  0  0  0  0  0  0
    4.0358   -0.3524   -1.6260 H   0  0  0  0  0  0  0  0  0  0  0  0
    2.7734   -1.3331   -0.9886 H   0  0  0  0  0  0  0  0  0  0  0  0
    4.2527   -3.2745   -0.7905 H   0  0  0  0  0  0  0  0  0  0  0  0
    5.5601   -2.3823   -1.5279 H   0  0  0  0  0  0  0  0  0  0  0  0
    7.5791   -1.9268   -0.7223 H   0  0  0  0  0  0  0  0  0  0  0  0
    8.2508   -2.3298    0.8327 H   0  0  0  0  0  0  0  0  0  0  0  0
    8.1630   -0.6502    0.3745 H   0  0  0  0  0  0  0  0  0  0  0  0
    5.6377    0.4996    6.5864 H   0  0  0  0  0  0  0  0  0  0  0  0
    0.7888   -1.3721    3.9935 H   0  0  0  0  0  0  0  0  0  0  0  0
    0.1887   -2.3085    5.3371 H   0  0  0  0  0  0  0  0  0  0  0  0
   -0.4813    0.6260    4.7119 H   0  0  0  0  0  0  0  0  0  0  0  0
   -1.5455   -0.7455    4.4867 H   0  0  0  0  0  0  0  0  0  0  0  0
    0.0845    1.3054    6.9619 H   0  0  0  0  0  0  0  0  0  0  0  0
   -0.5767    0.3946    8.3043 H   0  0  0  0  0  0  0  0  0  0  0  0
    0.7939   -1.5866    7.7244 H   0  0  0  0  0  0  0  0  0  0  0  0
    1.8165   -0.1905    7.9582 H   0  0  0  0  0  0  0  0  0  0  0  0
  1  2  1  0
  1 27  1  0
  1 28  1  0
  1 29  1  0
  2  3  1  0
  2 30  1  0
  2 31  1  0
  3  4  1  0
  3 32  1  0
  3 33  1  0
  4  5  1  0
  4 34  1  0
  4 35  1  0
  5  6  1  0
  5 36  1  0
  5 37  1  0
  6  7  1  0
  6 38  1  0
  6 39  1  0
  7 24  1  0
  7  8  2  0
  8  9  1  0
  8 10  1  0
  9 40  1  0
  9 41  1  0
  9 42  1  0
 10 26  1  0
 10 11  1  0
 11 12  1  0
 11 24  1  0
 12 23  1  0
 12 13  2  0
 13 14  1  0
 14 15  2  0
 14 43  1  0
 15 16  1  0
 16 17  1  0
 16 23  2  0
 17 22  1  0
 17 18  1  0
 18 19  1  0
 18 44  1  0
 18 45  1  0
 19 20  1  0
 19 46  1  0
 19 47  1  0
 20 21  1  0
 21 22  1  0
 21 48  1  0
 21 49  1  0
 22 50  1  0
 22 51  1  0
 24 25  2  0
M  END
>  <i_m_ct_stereo_status>  (383) 
1

>  <s_m_source_file>  (383) 
/var/tmp/pbs.5076255.sched01/tmpu61_44ix/12937f0afz8.sdf

>  <i_m_source_file_index>  (383) 
34

>  <i_lp_mmshare_version>  (383) 
48012

>  <i_f3d_flags>  (383) 
0

>  <s_epik_input>  (383) 
W0NIM11bQ0gyXVtDSDJdW0NIMl1bQ0gyXVtDSDJdYzFjKFtDSDNdKVtuSF1uKGMxPU8pLWMybltjSF1uYyhuMilOM1tDSDJdW0NIMl1PW0NIMl1bQ0gyXTM=

>  <s_epik_cmdline>  (383) 
J2VwaWtfcHl0aG9uJywgJy1waHQnLCAnMi4wJywgJy1waCcsICc3LjAnLCAnLXRuJywgJzgnLCAnLW1hJywgJzIwMCcsICctaW1hZScsICc8aW5maWxlLm1hZT4nLCAnLW9tYWUnLCAnPG91dGZpbGUubWFlPic=

>  <r_lp_tautomer_probability>  (383) 
0.0650725

>  <r_epik_Ionization_Penalty>  (383) 
0.405336

>  <r_epik_Ionization_Penalty_Charging>  (383) 
0.405336

>  <r_epik_Ionization_Penalty_Neutral>  (383) 
8.35855e-12

>  <r_epik_State_Penalty>  (383) 
1.63207

>  <r_epik_Charging_Adjusted_Penalty>  (383) 
2.03741

>  <i_epik_Tot_Q>  (383) 
0

>  <i_epik_Tot_abs_Q>  (383) 
0

>  <s_lp_Force_Field>  (383) 
OPLS3e

>  <r_lp_Energy>  (383) 
22.6053

>  <b_lp_Chiralities_Consistent>  (383) 
1

>  <s_lp_Variant>  (383) 
114:0-5

>  <s_i_glide_gridfile>  (383) 
pfpi4k_grid

>  <i_i_glide_lignum>  (383) 
34

>  <i_i_glide_rotatable_bonds>  (383) 
7

>  <r_i_docking_score>  (383) 
-2.33573

>  <r_i_glide_ligand_efficiency>  (383) 
-0.0934294

>  <r_i_glide_ligand_efficiency_sa>  (383) 
-0.273189

>  <r_i_glide_ligand_efficiency_ln>  (383) 
-0.553639

>  <r_i_glide_gscore>  (383) 
-2.33573

>  <r_i_glide_lipo>  (383) 
-0.389935

>  <r_i_glide_hbond>  (383) 
-0.302741

>  <r_i_glide_metal>  (383) 
-0

>  <r_i_glide_rewards>  (383) 
-1.23146

>  <r_i_glide_evdw>  (383) 
-22.2391

>  <r_i_glide_ecoul>  (383) 
-1.66602

>  <r_i_glide_erotb>  (383) 
0.950505

>  <r_i_glide_esite>  (383) 
-0.000248194

>  <r_i_glide_emodel>  (383) 
-25.8366

>  <r_i_glide_energy>  (383) 
-23.9051

>  <r_i_glide_einternal>  (383) 
4.13035

>  <r_i_glide_intrahb_reward>  (383) 
-0

>  <i_i_glide_confnum>  (383) 
6

>  <i_i_glide_posenum>  (383) 
2

>  <r_i_glide_eff_state_penalty>  (383) 
0

>  <ligand_id>  (383) 
114

>  <original_smiles>  (383) 
CCCCCCc1c(C)[nH]n(-c2ncnc(N3CCOCC3)n2)c1=O

>  <smiles>  (383) 
[H]c1nc(N2C([H])([H])C([H])([H])OC([H])([H])C2([H])[H])nc(-n2c(=O)c(C([H])([H])C([H])([H])C([H])([H])C([H])([H])C([H])([H])C([H])([H])[H])c(C([H])([H])[H])n2[H])n1

$$$$
114:4:2
     RDKit          3D

 51 53  0  0  1  0  0  0  0  0999 V2000
   -2.8282    3.0631    5.4872 C   0  0  0  0  0  0  0  0  0  0  0  0
   -2.7867    2.7831    3.9728 C   0  0  0  0  0  0  0  0  0  0  0  0
   -1.6760    1.7975    3.5654 C   0  0  0  0  0  0  0  0  0  0  0  0
   -0.2555    2.3336    3.8354 C   0  0  0  0  0  0  0  0  0  0  0  0
    0.8302    1.2901    3.5826 C   0  0  0  0  0  0  0  0  0  0  0  0
    2.2441    1.8281    3.8862 C   0  0  0  0  0  0  0  0  0  0  0  0
    3.3538    0.8515    3.5615 C   0  0  0  0  0  0  0  0  0  0  0  0
    4.3471    0.3752    4.3375 C   0  0  0  0  0  0  0  0  0  0  0  0
    4.6537    0.6555    5.7995 C   0  0  0  0  0  0  0  0  0  0  0  0
    5.1118   -0.4972    3.6216 N   0  0  0  0  0  0  0  0  0  0  0  0
    4.5957   -0.5927    2.3321 N   0  0  0  0  0  0  0  0  0  0  0  0
    5.2346   -1.3516    1.3491 C   0  0  0  0  0  0  0  0  0  0  0  0
    6.5517   -1.4615    1.4567 N   0  0  0  0  0  0  0  0  0  0  0  0
    7.0789   -2.2057    0.5011 C   0  0  0  0  0  0  0  0  0  0  0  0
    6.4602   -2.8012   -0.5039 N   0  0  0  0  0  0  0  0  0  0  0  0
    5.1568   -2.6135   -0.4557 C   0  0  0  0  0  0  0  0  0  0  0  0
    4.4107   -3.2453   -1.4799 N   0  0  0  0  0  0  0  0  0  0  0  0
    5.0192   -3.9214   -2.6288 C   0  0  0  0  0  0  0  0  0  0  0  0
    4.4888   -3.3114   -3.9219 C   0  0  0  0  0  0  0  0  0  0  0  0
    3.0765   -3.3740   -3.9591 O   0  0  0  0  0  0  0  0  0  0  0  0
    2.4937   -2.6361   -2.8912 C   0  0  0  0  0  0  0  0  0  0  0  0
    2.9440   -3.2254   -1.5494 C   0  0  0  0  0  0  0  0  0  0  0  0
    4.4628   -1.9101    0.4313 N   0  0  0  0  0  0  0  0  0  0  0  0
    3.5208    0.2258    2.2441 C   0  0  0  0  0  0  0  0  0  0  0  0
    2.8597    0.4283    1.2380 O   0  0  0  0  0  0  0  0  0  0  0  0
    5.5006   -1.2983    4.0977 H   0  0  0  0  0  0  0  0  0  0  0  0
   -3.6498    3.7277    5.7261 H   0  0  0  0  0  0  0  0  0  0  0  0
   -1.9212    3.5523    5.8394 H   0  0  0  0  0  0  0  0  0  0  0  0
   -2.9576    2.1528    6.0708 H   0  0  0  0  0  0  0  0  0  0  0  0
   -3.7507    2.3799    3.6570 H   0  0  0  0  0  0  0  0  0  0  0  0
   -2.6785    3.7105    3.4139 H   0  0  0  0  0  0  0  0  0  0  0  0
   -1.8322    0.8468    4.0763 H   0  0  0  0  0  0  0  0  0  0  0  0
   -1.7811    1.5757    2.4979 H   0  0  0  0  0  0  0  0  0  0  0  0
   -0.0921    3.2152    3.2102 H   0  0  0  0  0  0  0  0  0  0  0  0
   -0.1515    2.6539    4.8695 H   0  0  0  0  0  0  0  0  0  0  0  0
    0.6482    0.4117    4.1984 H   0  0  0  0  0  0  0  0  0  0  0  0
    0.7505    0.9788    2.5452 H   0  0  0  0  0  0  0  0  0  0  0  0
    2.4284    2.7271    3.3027 H   0  0  0  0  0  0  0  0  0  0  0  0
    2.3159    2.1334    4.9209 H   0  0  0  0  0  0  0  0  0  0  0  0
    3.9373    1.3416    6.2349 H   0  0  0  0  0  0  0  0  0  0  0  0
    5.6463    1.1046    5.8827 H   0  0  0  0  0  0  0  0  0  0  0  0
    4.6496   -0.2717    6.3705 H   0  0  0  0  0  0  0  0  0  0  0  0
    8.1676   -2.3254    0.5313 H   0  0  0  0  0  0  0  0  0  0  0  0
    6.1134   -3.8490   -2.6475 H   0  0  0  0  0  0  0  0  0  0  0  0
    4.7946   -4.9836   -2.5714 H   0  0  0  0  0  0  0  0  0  0  0  0
    4.8125   -2.2750   -4.0171 H   0  0  0  0  0  0  0  0  0  0  0  0
    4.8879   -3.8785   -4.7622 H   0  0  0  0  0  0  0  0  0  0  0  0
    2.7541   -1.5781   -2.9634 H   0  0  0  0  0  0  0  0  0  0  0  0
    1.4098   -2.7146   -2.9747 H   0  0  0  0  0  0  0  0  0  0  0  0
    2.5872   -4.2500   -1.4444 H   0  0  0  0  0  0  0  0  0  0  0  0
    2.4899   -2.6553   -0.7342 H   0  0  0  0  0  0  0  0  0  0  0  0
  1  2  1  0
  1 27  1  0
  1 28  1  0
  1 29  1  0
  2  3  1  0
  2 30  1  0
  2 31  1  0
  3  4  1  0
  3 32  1  0
  3 33  1  0
  4  5  1  0
  4 34  1  0
  4 35  1  0
  5  6  1  0
  5 36  1  0
  5 37  1  0
  6  7  1  0
  6 38  1  0
  6 39  1  0
  7 24  1  0
  7  8  2  0
  8  9  1  0
  8 10  1  0
  9 40  1  0
  9 41  1  0
  9 42  1  0
 10 26  1  0
 10 11  1  0
 11 12  1  0
 11 24  1  0
 12 23  1  0
 12 13  2  0
 13 14  1  0
 14 15  2  0
 14 43  1  0
 15 16  1  0
 16 17  1  0
 16 23  2  0
 17 22  1  0
 17 18  1  0
 18 19  1  0
 18 44  1  0
 18 45  1  0
 19 20  1  0
 19 46  1  0
 19 47  1  0
 20 21  1  0
 21 22  1  0
 21 48  1  0
 21 49  1  0
 22 50  1  0
 22 51  1  0
 24 25  2  0
M  END
>  <i_m_ct_stereo_status>  (384) 
1

>  <s_m_source_file>  (384) 
/var/tmp/pbs.5076255.sched01/tmpu61_44ix/12937f0afz8.sdf

>  <i_m_source_file_index>  (384) 
34

>  <i_lp_mmshare_version>  (384) 
48012

>  <i_f3d_flags>  (384) 
0

>  <s_epik_input>  (384) 
W0NIM11bQ0gyXVtDSDJdW0NIMl1bQ0gyXVtDSDJdYzFjKFtDSDNdKVtuSF1uKGMxPU8pLWMybltjSF1uYyhuMilOM1tDSDJdW0NIMl1PW0NIMl1bQ0gyXTM=

>  <s_epik_cmdline>  (384) 
J2VwaWtfcHl0aG9uJywgJy1waHQnLCAnMi4wJywgJy1waCcsICc3LjAnLCAnLXRuJywgJzgnLCAnLW1hJywgJzIwMCcsICctaW1hZScsICc8aW5maWxlLm1hZT4nLCAnLW9tYWUnLCAnPG91dGZpbGUubWFlPic=

>  <r_lp_tautomer_probability>  (384) 
0.0650725

>  <r_epik_Ionization_Penalty>  (384) 
0.405336

>  <r_epik_Ionization_Penalty_Charging>  (384) 
0.405336

>  <r_epik_Ionization_Penalty_Neutral>  (384) 
8.35855e-12

>  <r_epik_State_Penalty>  (384) 
1.63207

>  <r_epik_Charging_Adjusted_Penalty>  (384) 
2.03741

>  <i_epik_Tot_Q>  (384) 
0

>  <i_epik_Tot_abs_Q>  (384) 
0

>  <s_lp_Force_Field>  (384) 
OPLS3e

>  <r_lp_Energy>  (384) 
22.6053

>  <b_lp_Chiralities_Consistent>  (384) 
1

>  <s_lp_Variant>  (384) 
114:0-5

>  <s_i_glide_gridfile>  (384) 
pfpi4k_grid

>  <i_i_glide_lignum>  (384) 
34

>  <i_i_glide_rotatable_bonds>  (384) 
7

>  <r_i_docking_score>  (384) 
-2.08671

>  <r_i_glide_ligand_efficiency>  (384) 
-0.0834682

>  <r_i_glide_ligand_efficiency_sa>  (384) 
-0.244063

>  <r_i_glide_ligand_efficiency_ln>  (384) 
-0.494612

>  <r_i_glide_gscore>  (384) 
-2.08671

>  <r_i_glide_lipo>  (384) 
-0.273796

>  <r_i_glide_hbond>  (384) 
0

>  <r_i_glide_metal>  (384) 
-0

>  <r_i_glide_rewards>  (384) 
-1.41251

>  <r_i_glide_evdw>  (384) 
-29.6894

>  <r_i_glide_ecoul>  (384) 
0.945806

>  <r_i_glide_erotb>  (384) 
0.950505

>  <r_i_glide_esite>  (384) 
-0.00830425

>  <r_i_glide_emodel>  (384) 
-31.0488

>  <r_i_glide_energy>  (384) 
-28.7436

>  <r_i_glide_einternal>  (384) 
2.48855

>  <r_i_glide_intrahb_reward>  (384) 
-0

>  <i_i_glide_confnum>  (384) 
5

>  <i_i_glide_posenum>  (384) 
1

>  <r_i_glide_eff_state_penalty>  (384) 
0

>  <ligand_id>  (384) 
114

>  <original_smiles>  (384) 
CCCCCCc1c(C)[nH]n(-c2ncnc(N3CCOCC3)n2)c1=O

>  <smiles>  (384) 
[H]c1nc(N2C([H])([H])C([H])([H])OC([H])([H])C2([H])[H])nc(-n2c(=O)c(C([H])([H])C([H])([H])C([H])([H])C([H])([H])C([H])([H])C([H])([H])[H])c(C([H])([H])[H])n2[H])n1

$$$$
115:0:0
     RDKit          3D

 17 18  0  0  1  0  0  0  0  0999 V2000
   -7.2213  -10.4254   -7.3720 C   0  0  0  0  0  0  0  0  0  0  0  0
   -6.6213   -9.2345   -6.6573 C   0  0  0  0  0  0  0  0  0  0  0  0
   -7.3079   -8.0036   -6.6518 C   0  0  0  0  0  0  0  0  0  0  0  0
   -6.7592   -6.8953   -5.9828 C   0  0  0  0  0  0  0  0  0  0  0  0
   -7.4158   -5.2661   -5.8033 S   0  0  0  0  0  0  0  0  0  0  0  0
   -5.9639   -4.8470   -4.8869 C   0  0  0  0  0  0  0  0  0  0  0  0
   -5.0538   -5.8113   -4.7209 N   0  0  0  0  0  0  0  0  0  0  0  0
   -5.5015   -6.9833   -5.3161 C   0  0  0  0  0  0  0  0  0  0  0  0
   -4.8331   -8.2265   -5.3371 C   0  0  0  0  0  0  0  0  0  0  0  0
   -5.3798   -9.3436   -5.9925 C   0  0  0  0  0  0  0  0  0  0  0  0
   -4.5044  -10.8337   -5.9821 Cl  0  0  0  0  0  0  0  0  0  0  0  0
   -8.1816  -10.1769   -7.8262 H   0  0  0  0  0  0  0  0  0  0  0  0
   -7.3809  -11.2424   -6.6665 H   0  0  0  0  0  0  0  0  0  0  0  0
   -6.5487  -10.7646   -8.1607 H   0  0  0  0  0  0  0  0  0  0  0  0
   -8.2622   -7.9014   -7.1498 H   0  0  0  0  0  0  0  0  0  0  0  0
   -5.7836   -3.8673   -4.4633 H   0  0  0  0  0  0  0  0  0  0  0  0
   -3.8822   -8.3194   -4.8331 H   0  0  0  0  0  0  0  0  0  0  0  0
  1  2  1  0
  1 12  1  0
  1 13  1  0
  1 14  1  0
  2 10  2  0
  2  3  1  0
  3  4  2  0
  3 15  1  0
  4  8  1  0
  4  5  1  0
  5  6  1  0
  6  7  2  0
  6 16  1  0
  7  8  1  0
  8  9  2  0
  9 10  1  0
  9 17  1  0
 10 11  1  0
M  END
>  <i_m_ct_stereo_status>  (385) 
1

>  <s_m_source_file>  (385) 
/var/tmp/pbs.5076255.sched01/tmpu61_44ix/12937f0afz8.sdf

>  <i_m_source_file_index>  (385) 
35

>  <i_lp_mmshare_version>  (385) 
48012

>  <i_f3d_flags>  (385) 
0

>  <s_epik_input>  (385) 
W0NIM11jKFtjSF0xKWMoQ2wpW2NIXWMoYzEyKW5bY0hdczI=

>  <s_epik_cmdline>  (385) 
J2VwaWtfcHl0aG9uJywgJy1waHQnLCAnMi4wJywgJy1waCcsICc3LjAnLCAnLXRuJywgJzgnLCAnLW1hJywgJzIwMCcsICctaW1hZScsICc8aW5maWxlLm1hZT4nLCAnLW9tYWUnLCAnPG91dGZpbGUubWFlPic=

>  <r_lp_tautomer_probability>  (385) 
1

>  <r_epik_Ionization_Penalty>  (385) 
3.93246e-07

>  <r_epik_Ionization_Penalty_Charging>  (385) 
0

>  <r_epik_Ionization_Penalty_Neutral>  (385) 
3.93246e-07

>  <r_epik_State_Penalty>  (385) 
-0

>  <r_epik_Charging_Adjusted_Penalty>  (385) 
0

>  <i_epik_Tot_Q>  (385) 
0

>  <i_epik_Tot_abs_Q>  (385) 
0

>  <s_lp_Force_Field>  (385) 
OPLS3e

>  <r_lp_Energy>  (385) 
6.5185

>  <b_lp_Chiralities_Consistent>  (385) 
1

>  <s_lp_Variant>  (385) 
115:0-1

>  <s_i_glide_gridfile>  (385) 
pfpi4k_grid

>  <i_i_glide_lignum>  (385) 
35

>  <i_i_glide_rotatable_bonds>  (385) 
0

>  <r_i_docking_score>  (385) 
-7.72258

>  <r_i_glide_ligand_efficiency>  (385) 
-0.702053

>  <r_i_glide_ligand_efficiency_sa>  (385) 
-1.56135

>  <r_i_glide_ligand_efficiency_ln>  (385) 
-2.27275

>  <r_i_glide_gscore>  (385) 
-7.72258

>  <r_i_glide_lipo>  (385) 
-2.17361

>  <r_i_glide_hbond>  (385) 
-0.32

>  <r_i_glide_metal>  (385) 
-0

>  <r_i_glide_rewards>  (385) 
-3.57354

>  <r_i_glide_evdw>  (385) 
-23.513

>  <r_i_glide_ecoul>  (385) 
-3.19854

>  <r_i_glide_erotb>  (385) 
0

>  <r_i_glide_esite>  (385) 
0

>  <r_i_glide_emodel>  (385) 
-39.2661

>  <r_i_glide_energy>  (385) 
-26.7116

>  <r_i_glide_einternal>  (385) 
0

>  <r_i_glide_intrahb_reward>  (385) 
-0

>  <i_i_glide_confnum>  (385) 
2

>  <i_i_glide_posenum>  (385) 
3

>  <r_i_glide_eff_state_penalty>  (385) 
0

>  <ligand_id>  (385) 
115

>  <original_smiles>  (385) 
Cc1cc2scnc2cc1Cl

>  <smiles>  (385) 
[H]c1nc2c([H])c(Cl)c(C([H])([H])[H])c([H])c2s1

$$$$
115:0:1
     RDKit          3D

 17 18  0  0  1  0  0  0  0  0999 V2000
   -5.0056   -7.1402   -4.8234 C   0  0  0  0  0  0  0  0  0  0  0  0
   -6.2377   -6.7080   -5.5861 C   0  0  0  0  0  0  0  0  0  0  0  0
   -6.9826   -5.5957   -5.1449 C   0  0  0  0  0  0  0  0  0  0  0  0
   -8.1134   -5.1761   -5.8677 C   0  0  0  0  0  0  0  0  0  0  0  0
   -9.2102   -3.8411   -5.5209 S   0  0  0  0  0  0  0  0  0  0  0  0
  -10.1365   -4.2982   -6.9411 C   0  0  0  0  0  0  0  0  0  0  0  0
   -9.6748   -5.3234   -7.6659 N   0  0  0  0  0  0  0  0  0  0  0  0
   -8.5360   -5.8454   -7.0505 C   0  0  0  0  0  0  0  0  0  0  0  0
   -7.7777   -6.9612   -7.4691 C   0  0  0  0  0  0  0  0  0  0  0  0
   -6.6432   -7.3936   -6.7527 C   0  0  0  0  0  0  0  0  0  0  0  0
   -5.7391   -8.7385   -7.3456 Cl  0  0  0  0  0  0  0  0  0  0  0  0
   -4.8604   -6.4995   -3.9565 H   0  0  0  0  0  0  0  0  0  0  0  0
   -4.1193   -7.0768   -5.4554 H   0  0  0  0  0  0  0  0  0  0  0  0
   -5.1098   -8.1680   -4.4779 H   0  0  0  0  0  0  0  0  0  0  0  0
   -6.7038   -5.0517   -4.2553 H   0  0  0  0  0  0  0  0  0  0  0  0
  -11.0452   -3.8011   -7.2325 H   0  0  0  0  0  0  0  0  0  0  0  0
   -8.0712   -7.4884   -8.3659 H   0  0  0  0  0  0  0  0  0  0  0  0
  1  2  1  0
  1 12  1  0
  1 13  1  0
  1 14  1  0
  2 10  2  0
  2  3  1  0
  3  4  2  0
  3 15  1  0
  4  8  1  0
  4  5  1  0
  5  6  1  0
  6  7  2  0
  6 16  1  0
  7  8  1  0
  8  9  2  0
  9 10  1  0
  9 17  1  0
 10 11  1  0
M  END
>  <i_m_ct_stereo_status>  (386) 
1

>  <s_m_source_file>  (386) 
/var/tmp/pbs.5076255.sched01/tmpu61_44ix/12937f0afz8.sdf

>  <i_m_source_file_index>  (386) 
35

>  <i_lp_mmshare_version>  (386) 
48012

>  <i_f3d_flags>  (386) 
0

>  <s_epik_input>  (386) 
W0NIM11jKFtjSF0xKWMoQ2wpW2NIXWMoYzEyKW5bY0hdczI=

>  <s_epik_cmdline>  (386) 
J2VwaWtfcHl0aG9uJywgJy1waHQnLCAnMi4wJywgJy1waCcsICc3LjAnLCAnLXRuJywgJzgnLCAnLW1hJywgJzIwMCcsICctaW1hZScsICc8aW5maWxlLm1hZT4nLCAnLW9tYWUnLCAnPG91dGZpbGUubWFlPic=

>  <r_lp_tautomer_probability>  (386) 
1

>  <r_epik_Ionization_Penalty>  (386) 
3.93246e-07

>  <r_epik_Ionization_Penalty_Charging>  (386) 
0

>  <r_epik_Ionization_Penalty_Neutral>  (386) 
3.93246e-07

>  <r_epik_State_Penalty>  (386) 
-0

>  <r_epik_Charging_Adjusted_Penalty>  (386) 
0

>  <i_epik_Tot_Q>  (386) 
0

>  <i_epik_Tot_abs_Q>  (386) 
0

>  <s_lp_Force_Field>  (386) 
OPLS3e

>  <r_lp_Energy>  (386) 
6.5185

>  <b_lp_Chiralities_Consistent>  (386) 
1

>  <s_lp_Variant>  (386) 
115:0-1

>  <s_i_glide_gridfile>  (386) 
pfpi4k_grid

>  <i_i_glide_lignum>  (386) 
35

>  <i_i_glide_rotatable_bonds>  (386) 
0

>  <r_i_docking_score>  (386) 
-6.34544

>  <r_i_glide_ligand_efficiency>  (386) 
-0.576858

>  <r_i_glide_ligand_efficiency_sa>  (386) 
-1.28292

>  <r_i_glide_ligand_efficiency_ln>  (386) 
-1.86746

>  <r_i_glide_gscore>  (386) 
-6.34544

>  <r_i_glide_lipo>  (386) 
-2.4333

>  <r_i_glide_hbond>  (386) 
0

>  <r_i_glide_metal>  (386) 
-0

>  <r_i_glide_rewards>  (386) 
-2.81521

>  <r_i_glide_evdw>  (386) 
-24.193

>  <r_i_glide_ecoul>  (386) 
0.751409

>  <r_i_glide_erotb>  (386) 
0

>  <r_i_glide_esite>  (386) 
0

>  <r_i_glide_emodel>  (386) 
-33.7501

>  <r_i_glide_energy>  (386) 
-23.4416

>  <r_i_glide_einternal>  (386) 
0

>  <r_i_glide_intrahb_reward>  (386) 
-0

>  <i_i_glide_confnum>  (386) 
1

>  <i_i_glide_posenum>  (386) 
1

>  <r_i_glide_eff_state_penalty>  (386) 
0

>  <ligand_id>  (386) 
115

>  <original_smiles>  (386) 
Cc1cc2scnc2cc1Cl

>  <smiles>  (386) 
[H]c1nc2c([H])c(Cl)c(C([H])([H])[H])c([H])c2s1

$$$$
115:0:2
     RDKit          3D

 17 18  0  0  1  0  0  0  0  0999 V2000
   -6.2133   -4.7770   -4.0087 C   0  0  0  0  0  0  0  0  0  0  0  0
   -6.9804   -5.3639   -5.1724 C   0  0  0  0  0  0  0  0  0  0  0  0
   -8.1302   -4.7103   -5.6488 C   0  0  0  0  0  0  0  0  0  0  0  0
   -8.8376   -5.2486   -6.7380 C   0  0  0  0  0  0  0  0  0  0  0  0
  -10.2989   -4.6479   -7.5066 S   0  0  0  0  0  0  0  0  0  0  0  0
  -10.2389   -6.0318   -8.5954 C   0  0  0  0  0  0  0  0  0  0  0  0
   -9.2136   -6.8779   -8.4431 N   0  0  0  0  0  0  0  0  0  0  0  0
   -8.4199   -6.4505   -7.3811 C   0  0  0  0  0  0  0  0  0  0  0  0
   -7.2693   -7.0923   -6.8756 C   0  0  0  0  0  0  0  0  0  0  0  0
   -6.5527   -6.5615   -5.7854 C   0  0  0  0  0  0  0  0  0  0  0  0
   -5.1328   -7.3807   -5.2322 Cl  0  0  0  0  0  0  0  0  0  0  0  0
   -6.6717   -3.8587   -3.6408 H   0  0  0  0  0  0  0  0  0  0  0  0
   -5.1937   -4.5419   -4.3200 H   0  0  0  0  0  0  0  0  0  0  0  0
   -6.1894   -5.4946   -3.1894 H   0  0  0  0  0  0  0  0  0  0  0  0
   -8.4832   -3.8016   -5.1853 H   0  0  0  0  0  0  0  0  0  0  0  0
  -10.9785   -6.2158   -9.3674 H   0  0  0  0  0  0  0  0  0  0  0  0
   -6.9385   -8.0072   -7.3423 H   0  0  0  0  0  0  0  0  0  0  0  0
  1  2  1  0
  1 12  1  0
  1 13  1  0
  1 14  1  0
  2 10  2  0
  2  3  1  0
  3  4  2  0
  3 15  1  0
  4  8  1  0
  4  5  1  0
  5  6  1  0
  6  7  2  0
  6 16  1  0
  7  8  1  0
  8  9  2  0
  9 10  1  0
  9 17  1  0
 10 11  1  0
M  END
>  <i_m_ct_stereo_status>  (387) 
1

>  <s_m_source_file>  (387) 
/var/tmp/pbs.5076255.sched01/tmpu61_44ix/12937f0afz8.sdf

>  <i_m_source_file_index>  (387) 
35

>  <i_lp_mmshare_version>  (387) 
48012

>  <i_f3d_flags>  (387) 
0

>  <s_epik_input>  (387) 
W0NIM11jKFtjSF0xKWMoQ2wpW2NIXWMoYzEyKW5bY0hdczI=

>  <s_epik_cmdline>  (387) 
J2VwaWtfcHl0aG9uJywgJy1waHQnLCAnMi4wJywgJy1waCcsICc3LjAnLCAnLXRuJywgJzgnLCAnLW1hJywgJzIwMCcsICctaW1hZScsICc8aW5maWxlLm1hZT4nLCAnLW9tYWUnLCAnPG91dGZpbGUubWFlPic=

>  <r_lp_tautomer_probability>  (387) 
1

>  <r_epik_Ionization_Penalty>  (387) 
3.93246e-07

>  <r_epik_Ionization_Penalty_Charging>  (387) 
0

>  <r_epik_Ionization_Penalty_Neutral>  (387) 
3.93246e-07

>  <r_epik_State_Penalty>  (387) 
-0

>  <r_epik_Charging_Adjusted_Penalty>  (387) 
0

>  <i_epik_Tot_Q>  (387) 
0

>  <i_epik_Tot_abs_Q>  (387) 
0

>  <s_lp_Force_Field>  (387) 
OPLS3e

>  <r_lp_Energy>  (387) 
6.5185

>  <b_lp_Chiralities_Consistent>  (387) 
1

>  <s_lp_Variant>  (387) 
115:0-1

>  <s_i_glide_gridfile>  (387) 
pfpi4k_grid

>  <i_i_glide_lignum>  (387) 
35

>  <i_i_glide_rotatable_bonds>  (387) 
0

>  <r_i_docking_score>  (387) 
-5.93657

>  <r_i_glide_ligand_efficiency>  (387) 
-0.539688

>  <r_i_glide_ligand_efficiency_sa>  (387) 
-1.20026

>  <r_i_glide_ligand_efficiency_ln>  (387) 
-1.74713

>  <r_i_glide_gscore>  (387) 
-5.93657

>  <r_i_glide_lipo>  (387) 
-2.11107

>  <r_i_glide_hbond>  (387) 
0

>  <r_i_glide_metal>  (387) 
-0

>  <r_i_glide_rewards>  (387) 
-2.64854

>  <r_i_glide_evdw>  (387) 
-22.2885

>  <r_i_glide_ecoul>  (387) 
-0.416937

>  <r_i_glide_erotb>  (387) 
0

>  <r_i_glide_esite>  (387) 
0

>  <r_i_glide_emodel>  (387) 
-32.3549

>  <r_i_glide_energy>  (387) 
-22.7054

>  <r_i_glide_einternal>  (387) 
0

>  <r_i_glide_intrahb_reward>  (387) 
-0

>  <i_i_glide_confnum>  (387) 
1

>  <i_i_glide_posenum>  (387) 
4

>  <r_i_glide_eff_state_penalty>  (387) 
0

>  <ligand_id>  (387) 
115

>  <original_smiles>  (387) 
Cc1cc2scnc2cc1Cl

>  <smiles>  (387) 
[H]c1nc2c([H])c(Cl)c(C([H])([H])[H])c([H])c2s1

$$$$
116:0:0
     RDKit          3D

 68 73  0  0  1  0  0  0  0  0999 V2000
    3.6993   -2.3680   -3.1426 C   0  0  0  0  0  0  0  0  0  0  0  0
    4.3174   -2.5024   -1.9536 C   0  0  0  0  0  0  0  0  0  0  0  0
    5.3363   -1.5447   -1.3862 C   0  0  0  0  0  0  0  0  0  0  0  0
    5.0437   -1.6018    0.1231 C   0  0  1  0  0  0  0  0  0  0  0  0
    3.8403   -0.6683    0.4491 C   0  0  0  0  0  0  0  0  0  0  0  0
    3.2081   -0.7345    1.8669 C   0  0  0  0  0  0  0  0  0  0  0  0
    4.2504   -0.8434    3.0157 C   0  0  2  0  0  0  0  0  0  0  0  0
    4.9298   -2.2435    3.1632 C   0  0  1  0  0  0  0  0  0  0  0  0
    4.8074   -2.5996    4.6573 C   0  0  0  0  0  0  0  0  0  0  0  0
    3.7025   -1.7086    5.2459 C   0  0  2  0  0  0  0  0  0  0  0  0
    2.3477   -2.4225    5.1710 C   0  0  0  0  0  0  0  0  0  0  0  0
    1.1663   -1.4935    5.4321 C   0  0  0  0  0  0  0  0  0  0  0  0
    1.1747   -0.3190    4.4194 C   0  0  2  0  0  0  0  0  0  0  0  0
    2.4959    0.4858    4.6245 C   0  0  1  0  0  0  0  0  0  0  0  0
    2.4108    1.2626    5.9746 C   0  0  0  0  0  0  0  0  0  0  0  0
    1.0761    1.9567    6.1837 C   0  0  0  0  0  0  0  0  0  0  0  0
   -0.0408    1.6788    5.4822 C   0  0  0  0  0  0  0  0  0  0  0  0
   -1.2669    2.5921    5.5575 C   0  0  0  0  0  0  0  0  0  0  0  0
   -1.4423    3.2936    4.2121 C   0  0  0  0  0  0  0  0  0  0  0  0
   -1.6249    4.5253    4.1324 O   0  0  0  0  0  0  0  0  0  0  0  0
   -1.3755    2.4019    2.9761 C   0  0  0  0  0  0  0  0  0  0  0  0
   -0.2243    1.3550    3.0454 C   0  0  0  0  0  0  0  0  0  0  0  0
   -0.1139    0.5959    4.4075 C   0  0  1  0  0  0  0  0  0  0  0  0
   -1.3860   -0.2755    4.5929 C   0  0  0  0  0  0  0  0  0  0  0  0
    3.8138   -0.3795    4.4660 C   0  0  2  0  0  0  0  0  0  0  0  0
    5.0205    0.4371    5.0184 C   0  0  0  0  0  0  0  0  0  0  0  0
    4.1470   -3.5573    2.0488 S   0  0  0  0  0  0  0  0  0  0  0  0
    4.8414   -4.9009    2.3609 O   0  0  0  0  0  0  0  0  0  0  0  0
    4.7585   -3.0510    0.3475 N   0  0  1  0  0  0  0  0  0  0  0  0
    4.0419   -3.5471   -0.8985 C   0  0  0  0  0  0  0  0  0  0  0  0
    2.9626   -3.1029   -3.4602 H   0  0  0  0  0  0  0  0  0  0  0  0
    3.9989   -1.5262   -3.7697 H   0  0  0  0  0  0  0  0  0  0  0  0
    6.3457   -1.9374   -1.5858 H   0  0  0  0  0  0  0  0  0  0  0  0
    5.2365   -0.5296   -1.7992 H   0  0  0  0  0  0  0  0  0  0  0  0
    5.9176   -1.2961    0.7034 H   0  0  0  0  0  0  0  0  0  0  0  0
    4.1990    0.3686    0.3162 H   0  0  0  0  0  0  0  0  0  0  0  0
    3.0094   -0.8231   -0.2629 H   0  0  0  0  0  0  0  0  0  0  0  0
    2.6158    0.1790    1.9614 H   0  0  0  0  0  0  0  0  0  0  0  0
    2.4648   -1.5249    1.9111 H   0  0  0  0  0  0  0  0  0  0  0  0
    5.0322   -0.1478    2.6870 H   0  0  0  0  0  0  0  0  0  0  0  0
    5.9754   -2.1718    2.8706 H   0  0  0  0  0  0  0  0  0  0  0  0
    4.6745   -3.6678    4.8372 H   0  0  0  0  0  0  0  0  0  0  0  0
    5.7601   -2.3374    5.1238 H   0  0  0  0  0  0  0  0  0  0  0  0
    3.9228   -1.5410    6.2906 H   0  0  0  0  0  0  0  0  0  0  0  0
    2.2405   -2.8470    4.1775 H   0  0  0  0  0  0  0  0  0  0  0  0
    2.3308   -3.2604    5.8707 H   0  0  0  0  0  0  0  0  0  0  0  0
    0.2742   -2.1003    5.3272 H   0  0  0  0  0  0  0  0  0  0  0  0
    1.1586   -1.1432    6.4651 H   0  0  0  0  0  0  0  0  0  0  0  0
    1.1765   -0.7963    3.4468 H   0  0  0  0  0  0  0  0  0  0  0  0
    2.5528    1.2533    3.8600 H   0  0  0  0  0  0  0  0  0  0  0  0
    2.5946    0.6153    6.8364 H   0  0  0  0  0  0  0  0  0  0  0  0
    3.1624    2.0576    5.9913 H   0  0  0  0  0  0  0  0  0  0  0  0
    1.0650    2.7681    6.8957 H   0  0  0  0  0  0  0  0  0  0  0  0
   -2.1636    2.0205    5.7812 H   0  0  0  0  0  0  0  0  0  0  0  0
   -1.1581    3.3203    6.3503 H   0  0  0  0  0  0  0  0  0  0  0  0
   -2.3368    1.8972    2.8821 H   0  0  0  0  0  0  0  0  0  0  0  0
   -1.2535    3.0165    2.0849 H   0  0  0  0  0  0  0  0  0  0  0  0
   -0.3336    0.6463    2.2233 H   0  0  0  0  0  0  0  0  0  0  0  0
    0.7039    1.8901    2.8367 H   0  0  0  0  0  0  0  0  0  0  0  0
   -1.3711   -1.1103    3.8942 H   0  0  0  0  0  0  0  0  0  0  0  0
   -2.3054    0.2840    4.4070 H   0  0  0  0  0  0  0  0  0  0  0  0
   -1.4526   -0.6744    5.6081 H   0  0  0  0  0  0  0  0  0  0  0  0
    4.9666    0.5789    6.0953 H   0  0  0  0  0  0  0  0  0  0  0  0
    5.0427    1.4175    4.5485 H   0  0  0  0  0  0  0  0  0  0  0  0
    5.9791   -0.0400    4.8139 H   0  0  0  0  0  0  0  0  0  0  0  0
    2.9845   -3.6596   -0.7093 H   0  0  0  0  0  0  0  0  0  0  0  0
    4.4558   -4.5108   -1.1679 H   0  0  0  0  0  0  0  0  0  0  0  0
    5.6865   -3.4639    0.2583 H   0  0  0  0  0  0  0  0  0  0  0  0
  1  2  2  0
  1 31  1  0
  1 32  1  0
  2 30  1  0
  2  3  1  0
  3  4  1  0
  3 33  1  0
  3 34  1  0
  4 29  1  0
  4  5  1  0
  4 35  1  1
  5  6  1  0
  5 36  1  0
  5 37  1  0
  6  7  1  0
  6 38  1  0
  6 39  1  0
  7 25  1  0
  7  8  1  0
  7 40  1  6
  8  9  1  0
 27  8  1  1
  8 41  1  6
  9 10  1  0
  9 42  1  0
  9 43  1  0
 10 25  1  0
 10 11  1  0
 10 44  1  1
 11 12  1  0
 11 45  1  0
 11 46  1  0
 12 13  1  0
 12 47  1  0
 12 48  1  0
 13 23  1  0
 13 14  1  0
 13 49  1  6
 14 15  1  0
 14 25  1  0
 14 50  1  6
 15 16  1  0
 15 51  1  0
 15 52  1  0
 16 17  2  0
 16 53  1  0
 17 23  1  0
 17 18  1  0
 18 19  1  0
 18 54  1  0
 18 55  1  0
 19 20  2  0
 19 21  1  0
 21 22  1  0
 21 56  1  0
 21 57  1  0
 22 23  1  0
 22 58  1  0
 22 59  1  0
 23 24  1  1
 24 60  1  0
 24 61  1  0
 24 62  1  0
 25 26  1  1
 26 63  1  0
 26 64  1  0
 26 65  1  0
 27 28  2  0
 27 29  1  0
 29 30  1  0
 29 68  1  6
 30 66  1  0
 30 67  1  0
M  CHG  1  29   1
M  END
>  <i_m_ct_stereo_status>  (388) 
1

>  <s_m_source_file>  (388) 
/var/tmp/pbs.5076255.sched01/tmpu61_44ix/12937f0afz8.sdf

>  <i_m_source_file_index>  (388) 
36

>  <i_lp_mmshare_version>  (388) 
48012

>  <i_f3d_flags>  (388) 
0

>  <s_epik_input>  (388) 
W0NIMl09QyhbQ0gyXTEpW0NIMl1bQ0BASF0oW0NIMl1bQ0gyXTIpTjFbUytdKFtPLV0pW0NASF0oW0NIMl1bQ0BASF0zW0NIMl1bQ0gyXTQpW0NAQEhdMltDQEBdMyhbQ0gzXSlbQ0BASF0oW0NAQEhdNFtDQEBdNTZbQ0gzXSlbQ0gyXVtDSF09QzVbQ0gyXUMoPU8pW0NIMl1bQ0gyXTY=

>  <s_epik_cmdline>  (388) 
J2VwaWtfcHl0aG9uJywgJy1waHQnLCAnMi4wJywgJy1waCcsICc3LjAnLCAnLXRuJywgJzgnLCAnLW1hJywgJzIwMCcsICctaW1hZScsICc8aW5maWxlLm1hZT4nLCAnLW9tYWUnLCAnPG91dGZpbGUubWFlPic=

>  <r_lp_tautomer_probability>  (388) 
1

>  <r_epik_Ionization_Penalty>  (388) 
8.03677e-08

>  <r_epik_Ionization_Penalty_Charging>  (388) 
8.03676e-08

>  <r_epik_Ionization_Penalty_Neutral>  (388) 
1.67211e-13

>  <r_epik_State_Penalty>  (388) 
-0

>  <r_epik_Charging_Adjusted_Penalty>  (388) 
8.03676e-08

>  <i_epik_Tot_Q>  (388) 
1

>  <i_epik_Tot_abs_Q>  (388) 
3

>  <s_lp_Force_Field>  (388) 
OPLS3e

>  <r_lp_Energy>  (388) 
64.3161

>  <b_lp_Chiralities_Consistent>  (388) 
1

>  <s_lp_Variant>  (388) 
116:0-1

>  <s_i_glide_gridfile>  (388) 
pfpi4k_grid

>  <i_i_glide_lignum>  (388) 
36

>  <i_i_glide_rotatable_bonds>  (388) 
0

>  <r_i_docking_score>  (388) 
-3.39355

>  <r_i_glide_ligand_efficiency>  (388) 
-0.113118

>  <r_i_glide_ligand_efficiency_sa>  (388) 
-0.351485

>  <r_i_glide_ligand_efficiency_ln>  (388) 
-0.771051

>  <r_i_glide_gscore>  (388) 
-3.39355

>  <r_i_glide_lipo>  (388) 
-0.327148

>  <r_i_glide_hbond>  (388) 
-0.129726

>  <r_i_glide_metal>  (388) 
-0

>  <r_i_glide_rewards>  (388) 
-0.494761

>  <r_i_glide_evdw>  (388) 
-31.2894

>  <r_i_glide_ecoul>  (388) 
-5.57203

>  <r_i_glide_erotb>  (388) 
0

>  <r_i_glide_esite>  (388) 
-0.0416374

>  <r_i_glide_emodel>  (388) 
-43.1549

>  <r_i_glide_energy>  (388) 
-36.8615

>  <r_i_glide_einternal>  (388) 
0

>  <r_i_glide_intrahb_reward>  (388) 
-0

>  <i_i_glide_confnum>  (388) 
2

>  <i_i_glide_posenum>  (388) 
13

>  <r_i_glide_eff_state_penalty>  (388) 
0

>  <ligand_id>  (388) 
116

>  <original_smiles>  (388) 
C=C1CC2CCC3C(CC4CCC5C(CC=C6CC(=O)CCC65C)C43C)[S+]([O-])N2C1

>  <smiles>  (388) 
[H]C([H])=C1C([H])([H])C2([H])C([H])([H])C([H])([H])C3([H])C([H])(S(=O)[N+]2([H])C1([H])[H])C([H])([H])C1([H])C([H])([H])C([H])([H])C2([H])C([H])(C([H])([H])C([H])=C4C([H])([H])C(=O)C([H])([H])C([H])([H])C42C([H])([H])[H])C13C([H])([H])[H]

$$$$
116:0:1
     RDKit          3D

 68 73  0  0  1  0  0  0  0  0999 V2000
   -2.0596   -8.5363    3.0385 C   0  0  0  0  0  0  0  0  0  0  0  0
   -0.8777   -9.0199    3.4874 C   0  0  0  0  0  0  0  0  0  0  0  0
   -0.0329  -10.0477    2.7804 C   0  0  0  0  0  0  0  0  0  0  0  0
    1.3838   -9.5874    3.1200 C   0  0  1  0  0  0  0  0  0  0  0  0
    1.7856   -8.4300    2.1478 C   0  0  0  0  0  0  0  0  0  0  0  0
    3.0919   -7.6499    2.4408 C   0  0  0  0  0  0  0  0  0  0  0  0
    4.2727   -8.5553    2.8807 C   0  0  2  0  0  0  0  0  0  0  0  0
    4.1728   -9.1096    4.3464 C   0  0  1  0  0  0  0  0  0  0  0  0
    5.5385   -8.7985    4.9872 C   0  0  0  0  0  0  0  0  0  0  0  0
    6.1990   -7.7082    4.1320 C   0  0  2  0  0  0  0  0  0  0  0  0
    5.8440   -6.3248    4.6808 C   0  0  0  0  0  0  0  0  0  0  0  0
    6.1876   -5.2009    3.7104 C   0  0  0  0  0  0  0  0  0  0  0  0
    5.4625   -5.3965    2.3599 C   0  0  2  0  0  0  0  0  0  0  0  0
    5.9639   -6.7420    1.7497 C   0  0  1  0  0  0  0  0  0  0  0  0
    7.4419   -6.5676    1.2813 C   0  0  0  0  0  0  0  0  0  0  0  0
    7.6814   -5.2740    0.5186 C   0  0  0  0  0  0  0  0  0  0  0  0
    6.8312   -4.2249    0.5287 C   0  0  0  0  0  0  0  0  0  0  0  0
    6.9953   -3.0716   -0.4712 C   0  0  0  0  0  0  0  0  0  0  0  0
    5.8200   -3.1041   -1.4455 C   0  0  0  0  0  0  0  0  0  0  0  0
    5.9910   -3.0547   -2.6834 O   0  0  0  0  0  0  0  0  0  0  0  0
    4.4309   -3.2322   -0.8359 C   0  0  0  0  0  0  0  0  0  0  0  0
    4.3735   -4.2901    0.3091 C   0  0  0  0  0  0  0  0  0  0  0  0
    5.5396   -4.1899    1.3416 C   0  0  1  0  0  0  0  0  0  0  0  0
    5.3886   -2.8383    2.0971 C   0  0  0  0  0  0  0  0  0  0  0  0
    5.7416   -8.0002    2.6870 C   0  0  2  0  0  0  0  0  0  0  0  0
    6.5619   -9.1971    2.1241 C   0  0  0  0  0  0  0  0  0  0  0  0
    2.7327   -8.3546    5.3108 S   0  0  0  0  0  0  0  0  0  0  0  0
    2.8107   -8.8740    6.7700 O   0  0  0  0  0  0  0  0  0  0  0  0
    1.2738   -9.1793    4.5383 N   0  0  1  0  0  0  0  0  0  0  0  0
   -0.1101   -8.5667    4.7023 C   0  0  0  0  0  0  0  0  0  0  0  0
   -2.5967   -7.7931    3.6192 H   0  0  0  0  0  0  0  0  0  0  0  0
   -2.4593   -8.9721    2.1245 H   0  0  0  0  0  0  0  0  0  0  0  0
   -0.1698  -11.0385    3.2469 H   0  0  0  0  0  0  0  0  0  0  0  0
   -0.2519  -10.1009    1.7054 H   0  0  0  0  0  0  0  0  0  0  0  0
    2.0850  -10.4141    3.0024 H   0  0  0  0  0  0  0  0  0  0  0  0
    1.8904   -8.8712    1.1404 H   0  0  0  0  0  0  0  0  0  0  0  0
    0.9731   -7.6873    2.0810 H   0  0  0  0  0  0  0  0  0  0  0  0
    3.3243   -7.1217    1.5118 H   0  0  0  0  0  0  0  0  0  0  0  0
    2.8997   -6.8459    3.1537 H   0  0  0  0  0  0  0  0  0  0  0  0
    4.1685   -9.4219    2.2086 H   0  0  0  0  0  0  0  0  0  0  0  0
    4.0118  -10.1874    4.3148 H   0  0  0  0  0  0  0  0  0  0  0  0
    5.4712   -8.5628    6.0511 H   0  0  0  0  0  0  0  0  0  0  0  0
    6.1373   -9.7132    4.9198 H   0  0  0  0  0  0  0  0  0  0  0  0
    7.2696   -7.8193    4.2101 H   0  0  0  0  0  0  0  0  0  0  0  0
    4.7774   -6.2989    4.8992 H   0  0  0  0  0  0  0  0  0  0  0  0
    6.3545   -6.1598    5.6309 H   0  0  0  0  0  0  0  0  0  0  0  0
    5.8750   -4.2773    4.1908 H   0  0  0  0  0  0  0  0  0  0  0  0
    7.2707   -5.1398    3.5705 H   0  0  0  0  0  0  0  0  0  0  0  0
    4.4107   -5.4675    2.6124 H   0  0  0  0  0  0  0  0  0  0  0  0
    5.4013   -6.9461    0.8449 H   0  0  0  0  0  0  0  0  0  0  0  0
    8.1592   -6.6083    2.1036 H   0  0  0  0  0  0  0  0  0  0  0  0
    7.7162   -7.3643    0.5844 H   0  0  0  0  0  0  0  0  0  0  0  0
    8.5472   -5.2496   -0.1231 H   0  0  0  0  0  0  0  0  0  0  0  0
    7.0116   -2.1157    0.0469 H   0  0  0  0  0  0  0  0  0  0  0  0
    7.9294   -3.1526   -1.0091 H   0  0  0  0  0  0  0  0  0  0  0  0
    4.1368   -2.2503   -0.4576 H   0  0  0  0  0  0  0  0  0  0  0  0
    3.7105   -3.5009   -1.6096 H   0  0  0  0  0  0  0  0  0  0  0  0
    3.4134   -4.2091    0.8228 H   0  0  0  0  0  0  0  0  0  0  0  0
    4.3722   -5.2753   -0.1642 H   0  0  0  0  0  0  0  0  0  0  0  0
    4.5277   -2.8630    2.7647 H   0  0  0  0  0  0  0  0  0  0  0  0
    5.2469   -1.9889    1.4250 H   0  0  0  0  0  0  0  0  0  0  0  0
    6.2702   -2.6153    2.6944 H   0  0  0  0  0  0  0  0  0  0  0  0
    7.6323   -9.0331    2.2111 H   0  0  0  0  0  0  0  0  0  0  0  0
    6.3252   -9.3582    1.0731 H   0  0  0  0  0  0  0  0  0  0  0  0
    6.3530  -10.1321    2.6461 H   0  0  0  0  0  0  0  0  0  0  0  0
   -0.0490   -7.4846    4.7568 H   0  0  0  0  0  0  0  0  0  0  0  0
   -0.5605   -8.9400    5.6098 H   0  0  0  0  0  0  0  0  0  0  0  0
    1.1651  -10.0840    5.0075 H   0  0  0  0  0  0  0  0  0  0  0  0
  1  2  2  0
  1 31  1  0
  1 32  1  0
  2 30  1  0
  2  3  1  0
  3  4  1  0
  3 33  1  0
  3 34  1  0
  4 29  1  0
  4  5  1  0
  4 35  1  1
  5  6  1  0
  5 36  1  0
  5 37  1  0
  6  7  1  0
  6 38  1  0
  6 39  1  0
  7 25  1  0
  7  8  1  0
  7 40  1  6
  8  9  1  0
 27  8  1  6
  8 41  1  6
  9 10  1  0
  9 42  1  0
  9 43  1  0
 10 25  1  0
 10 11  1  0
 10 44  1  6
 11 12  1  0
 11 45  1  0
 11 46  1  0
 12 13  1  0
 12 47  1  0
 12 48  1  0
 13 23  1  0
 13 14  1  0
 13 49  1  1
 14 15  1  0
 14 25  1  0
 14 50  1  6
 15 16  1  0
 15 51  1  0
 15 52  1  0
 16 17  2  0
 16 53  1  0
 17 23  1  0
 17 18  1  0
 18 19  1  0
 18 54  1  0
 18 55  1  0
 19 20  2  0
 19 21  1  0
 21 22  1  0
 21 56  1  0
 21 57  1  0
 22 23  1  0
 22 58  1  0
 22 59  1  0
 23 24  1  1
 24 60  1  0
 24 61  1  0
 24 62  1  0
 25 26  1  6
 26 63  1  0
 26 64  1  0
 26 65  1  0
 27 28  2  0
 27 29  1  0
 29 30  1  0
 29 68  1  1
 30 66  1  0
 30 67  1  0
M  CHG  1  29   1
M  END
>  <i_m_ct_stereo_status>  (389) 
1

>  <s_m_source_file>  (389) 
/var/tmp/pbs.5076255.sched01/tmpu61_44ix/12937f0afz8.sdf

>  <i_m_source_file_index>  (389) 
36

>  <i_lp_mmshare_version>  (389) 
48012

>  <i_f3d_flags>  (389) 
0

>  <s_epik_input>  (389) 
W0NIMl09QyhbQ0gyXTEpW0NIMl1bQ0BASF0oW0NIMl1bQ0gyXTIpTjFbUytdKFtPLV0pW0NASF0oW0NIMl1bQ0BASF0zW0NIMl1bQ0gyXTQpW0NAQEhdMltDQEBdMyhbQ0gzXSlbQ0BASF0oW0NAQEhdNFtDQEBdNTZbQ0gzXSlbQ0gyXVtDSF09QzVbQ0gyXUMoPU8pW0NIMl1bQ0gyXTY=

>  <s_epik_cmdline>  (389) 
J2VwaWtfcHl0aG9uJywgJy1waHQnLCAnMi4wJywgJy1waCcsICc3LjAnLCAnLXRuJywgJzgnLCAnLW1hJywgJzIwMCcsICctaW1hZScsICc8aW5maWxlLm1hZT4nLCAnLW9tYWUnLCAnPG91dGZpbGUubWFlPic=

>  <r_lp_tautomer_probability>  (389) 
1

>  <r_epik_Ionization_Penalty>  (389) 
8.03677e-08

>  <r_epik_Ionization_Penalty_Charging>  (389) 
8.03676e-08

>  <r_epik_Ionization_Penalty_Neutral>  (389) 
1.67211e-13

>  <r_epik_State_Penalty>  (389) 
-0

>  <r_epik_Charging_Adjusted_Penalty>  (389) 
8.03676e-08

>  <i_epik_Tot_Q>  (389) 
1

>  <i_epik_Tot_abs_Q>  (389) 
3

>  <s_lp_Force_Field>  (389) 
OPLS3e

>  <r_lp_Energy>  (389) 
64.3161

>  <b_lp_Chiralities_Consistent>  (389) 
1

>  <s_lp_Variant>  (389) 
116:0-1

>  <s_i_glide_gridfile>  (389) 
pfpi4k_grid

>  <i_i_glide_lignum>  (389) 
36

>  <i_i_glide_rotatable_bonds>  (389) 
0

>  <r_i_docking_score>  (389) 
-3.07798

>  <r_i_glide_ligand_efficiency>  (389) 
-0.102599

>  <r_i_glide_ligand_efficiency_sa>  (389) 
-0.3188

>  <r_i_glide_ligand_efficiency_ln>  (389) 
-0.699352

>  <r_i_glide_gscore>  (389) 
-3.07798

>  <r_i_glide_lipo>  (389) 
-0.681516

>  <r_i_glide_hbond>  (389) 
0

>  <r_i_glide_metal>  (389) 
-0

>  <r_i_glide_rewards>  (389) 
-0.587107

>  <r_i_glide_evdw>  (389) 
-28.2094

>  <r_i_glide_ecoul>  (389) 
-2.49087

>  <r_i_glide_erotb>  (389) 
0

>  <r_i_glide_esite>  (389) 
-0.0252641

>  <r_i_glide_emodel>  (389) 
-37.2843

>  <r_i_glide_energy>  (389) 
-30.7002

>  <r_i_glide_einternal>  (389) 
0

>  <r_i_glide_intrahb_reward>  (389) 
-0

>  <i_i_glide_confnum>  (389) 
1

>  <i_i_glide_posenum>  (389) 
33

>  <r_i_glide_eff_state_penalty>  (389) 
0

>  <ligand_id>  (389) 
116

>  <original_smiles>  (389) 
C=C1CC2CCC3C(CC4CCC5C(CC=C6CC(=O)CCC65C)C43C)[S+]([O-])N2C1

>  <smiles>  (389) 
[H]C([H])=C1C([H])([H])C2([H])C([H])([H])C([H])([H])C3([H])C([H])(S(=O)[N+]2([H])C1([H])[H])C([H])([H])C1([H])C([H])([H])C([H])([H])C2([H])C([H])(C([H])([H])C([H])=C4C([H])([H])C(=O)C([H])([H])C([H])([H])C42C([H])([H])[H])C13C([H])([H])[H]

$$$$
116:0:2
     RDKit          3D

 68 73  0  0  1  0  0  0  0  0999 V2000
   -1.2305    1.6597    3.0978 C   0  0  0  0  0  0  0  0  0  0  0  0
    0.0644    1.3577    3.0155 C   0  0  0  0  0  0  0  0  0  0  0  0
    1.0262    1.2959    4.1761 C   0  0  0  0  0  0  0  0  0  0  0  0
    1.9815    0.1682    3.7438 C   0  0  1  0  0  0  0  0  0  0  0  0
    1.3135   -1.1986    4.0834 C   0  0  0  0  0  0  0  0  0  0  0  0
    1.9664   -2.4994    3.5497 C   0  0  0  0  0  0  0  0  0  0  0  0
    3.5120   -2.4966    3.6575 C   0  0  2  0  0  0  0  0  0  0  0  0
    4.2215   -1.5753    2.6169 C   0  0  1  0  0  0  0  0  0  0  0  0
    5.2928   -2.4655    1.9514 C   0  0  0  0  0  0  0  0  0  0  0  0
    4.9342   -3.9268    2.2567 C   0  0  2  0  0  0  0  0  0  0  0  0
    4.0894   -4.5042    1.1175 C   0  0  0  0  0  0  0  0  0  0  0  0
    3.4073   -5.8218    1.4754 C   0  0  0  0  0  0  0  0  0  0  0  0
    2.5135   -5.6382    2.7239 C   0  0  2  0  0  0  0  0  0  0  0  0
    3.4203   -5.2047    3.9153 C   0  0  1  0  0  0  0  0  0  0  0  0
    4.2826   -6.4232    4.3559 C   0  0  0  0  0  0  0  0  0  0  0  0
    3.4959   -7.7216    4.4572 C   0  0  0  0  0  0  0  0  0  0  0  0
    2.2834   -7.9115    3.9049 C   0  0  0  0  0  0  0  0  0  0  0  0
    1.4344   -9.1316    4.2660 C   0  0  0  0  0  0  0  0  0  0  0  0
    0.2331   -8.6407    5.0860 C   0  0  0  0  0  0  0  0  0  0  0  0
   -0.0541   -9.1178    6.1853 O   0  0  0  0  0  0  0  0  0  0  0  0
   -0.5500   -7.4680    4.4892 C   0  0  0  0  0  0  0  0  0  0  0  0
    0.3918   -6.3419    3.9732 C   0  0  0  0  0  0  0  0  0  0  0  0
    1.5640   -6.8460    3.0826 C   0  0  1  0  0  0  0  0  0  0  0  0
    0.9662   -7.4504    1.7827 C   0  0  0  0  0  0  0  0  0  0  0  0
    4.2595   -3.8873    3.6470 C   0  0  2  0  0  0  0  0  0  0  0  0
    5.3471   -3.7635    4.7496 C   0  0  0  0  0  0  0  0  0  0  0  0
    3.0169   -0.8736    1.3442 S   0  0  0  0  0  0  0  0  0  0  0  0
    3.9053   -0.0878    0.3732 O   0  0  0  0  0  0  0  0  0  0  0  0
    2.1359    0.4054    2.2992 N   0  0  1  0  0  0  0  0  0  0  0  0
    0.8085    0.9008    1.7871 C   0  0  0  0  0  0  0  0  0  0  0  0
   -1.8610    1.6707    2.2071 H   0  0  0  0  0  0  0  0  0  0  0  0
   -1.6082    1.9363    4.0747 H   0  0  0  0  0  0  0  0  0  0  0  0
    1.5601    2.2505    4.2166 H   0  0  0  0  0  0  0  0  0  0  0  0
    0.5063    1.0908    5.1152 H   0  0  0  0  0  0  0  0  0  0  0  0
    2.9440    0.2591    4.2716 H   0  0  0  0  0  0  0  0  0  0  0  0
    1.2963   -1.2774    5.1733 H   0  0  0  0  0  0  0  0  0  0  0  0
    0.2642   -1.2090    3.7461 H   0  0  0  0  0  0  0  0  0  0  0  0
    1.5345   -3.3084    4.1444 H   0  0  0  0  0  0  0  0  0  0  0  0
    1.6186   -2.7162    2.5374 H   0  0  0  0  0  0  0  0  0  0  0  0
    3.6887   -2.0388    4.6418 H   0  0  0  0  0  0  0  0  0  0  0  0
    4.7067   -0.7443    3.1308 H   0  0  0  0  0  0  0  0  0  0  0  0
    5.4676   -2.2455    0.8950 H   0  0  0  0  0  0  0  0  0  0  0  0
    6.2231   -2.2331    2.4640 H   0  0  0  0  0  0  0  0  0  0  0  0
    5.8517   -4.5004    2.3009 H   0  0  0  0  0  0  0  0  0  0  0  0
    3.3349   -3.7689    0.8518 H   0  0  0  0  0  0  0  0  0  0  0  0
    4.7134   -4.6494    0.2344 H   0  0  0  0  0  0  0  0  0  0  0  0
    2.8292   -6.1117    0.6031 H   0  0  0  0  0  0  0  0  0  0  0  0
    4.1439   -6.6132    1.6150 H   0  0  0  0  0  0  0  0  0  0  0  0
    1.8397   -4.8330    2.4606 H   0  0  0  0  0  0  0  0  0  0  0  0
    2.7911   -4.9780    4.7699 H   0  0  0  0  0  0  0  0  0  0  0  0
    5.1228   -6.6000    3.6814 H   0  0  0  0  0  0  0  0  0  0  0  0
    4.6894   -6.2507    5.3555 H   0  0  0  0  0  0  0  0  0  0  0  0
    3.9341   -8.4938    5.0694 H   0  0  0  0  0  0  0  0  0  0  0  0
    1.0937   -9.6441    3.3704 H   0  0  0  0  0  0  0  0  0  0  0  0
    2.0096   -9.8499    4.8394 H   0  0  0  0  0  0  0  0  0  0  0  0
   -1.1912   -7.8510    3.6942 H   0  0  0  0  0  0  0  0  0  0  0  0
   -1.2114   -7.0686    5.2573 H   0  0  0  0  0  0  0  0  0  0  0  0
   -0.1703   -5.5899    3.4208 H   0  0  0  0  0  0  0  0  0  0  0  0
    0.7773   -5.8222    4.8534 H   0  0  0  0  0  0  0  0  0  0  0  0
    0.5541   -6.6702    1.1422 H   0  0  0  0  0  0  0  0  0  0  0  0
    0.1591   -8.1611    1.9746 H   0  0  0  0  0  0  0  0  0  0  0  0
    1.7278   -7.9926    1.2190 H   0  0  0  0  0  0  0  0  0  0  0  0
    6.1129   -4.5324    4.6708 H   0  0  0  0  0  0  0  0  0  0  0  0
    4.8960   -3.8364    5.7382 H   0  0  0  0  0  0  0  0  0  0  0  0
    5.8565   -2.8010    4.7076 H   0  0  0  0  0  0  0  0  0  0  0  0
    0.2355    0.1150    1.3133 H   0  0  0  0  0  0  0  0  0  0  0  0
    0.9484    1.7325    1.1050 H   0  0  0  0  0  0  0  0  0  0  0  0
    2.7267    1.2300    2.2593 H   0  0  0  0  0  0  0  0  0  0  0  0
  1  2  2  0
  1 31  1  0
  1 32  1  0
  2 30  1  0
  2  3  1  0
  3  4  1  0
  3 33  1  0
  3 34  1  0
  4 29  1  0
  4  5  1  0
  4 35  1  1
  5  6  1  0
  5 36  1  0
  5 37  1  0
  6  7  1  0
  6 38  1  0
  6 39  1  0
  7 25  1  0
  7  8  1  0
  7 40  1  1
  8  9  1  0
 27  8  1  1
  8 41  1  1
  9 10  1  0
  9 42  1  0
  9 43  1  0
 10 25  1  0
 10 11  1  0
 10 44  1  1
 11 12  1  0
 11 45  1  0
 11 46  1  0
 12 13  1  0
 12 47  1  0
 12 48  1  0
 13 23  1  0
 13 14  1  0
 13 49  1  6
 14 15  1  0
 14 25  1  0
 14 50  1  1
 15 16  1  0
 15 51  1  0
 15 52  1  0
 16 17  2  0
 16 53  1  0
 17 23  1  0
 17 18  1  0
 18 19  1  0
 18 54  1  0
 18 55  1  0
 19 20  2  0
 19 21  1  0
 21 22  1  0
 21 56  1  0
 21 57  1  0
 22 23  1  0
 22 58  1  0
 22 59  1  0
 23 24  1  6
 24 60  1  0
 24 61  1  0
 24 62  1  0
 25 26  1  1
 26 63  1  0
 26 64  1  0
 26 65  1  0
 27 28  2  0
 27 29  1  0
 29 30  1  0
 29 68  1  1
 30 66  1  0
 30 67  1  0
M  CHG  1  29   1
M  END
>  <i_m_ct_stereo_status>  (390) 
1

>  <s_m_source_file>  (390) 
/var/tmp/pbs.5076255.sched01/tmpu61_44ix/12937f0afz8.sdf

>  <i_m_source_file_index>  (390) 
36

>  <i_lp_mmshare_version>  (390) 
48012

>  <i_f3d_flags>  (390) 
0

>  <s_epik_input>  (390) 
W0NIMl09QyhbQ0gyXTEpW0NIMl1bQ0BASF0oW0NIMl1bQ0gyXTIpTjFbUytdKFtPLV0pW0NASF0oW0NIMl1bQ0BASF0zW0NIMl1bQ0gyXTQpW0NAQEhdMltDQEBdMyhbQ0gzXSlbQ0BASF0oW0NAQEhdNFtDQEBdNTZbQ0gzXSlbQ0gyXVtDSF09QzVbQ0gyXUMoPU8pW0NIMl1bQ0gyXTY=

>  <s_epik_cmdline>  (390) 
J2VwaWtfcHl0aG9uJywgJy1waHQnLCAnMi4wJywgJy1waCcsICc3LjAnLCAnLXRuJywgJzgnLCAnLW1hJywgJzIwMCcsICctaW1hZScsICc8aW5maWxlLm1hZT4nLCAnLW9tYWUnLCAnPG91dGZpbGUubWFlPic=

>  <r_lp_tautomer_probability>  (390) 
1

>  <r_epik_Ionization_Penalty>  (390) 
8.03677e-08

>  <r_epik_Ionization_Penalty_Charging>  (390) 
8.03676e-08

>  <r_epik_Ionization_Penalty_Neutral>  (390) 
1.67211e-13

>  <r_epik_State_Penalty>  (390) 
-0

>  <r_epik_Charging_Adjusted_Penalty>  (390) 
8.03676e-08

>  <i_epik_Tot_Q>  (390) 
1

>  <i_epik_Tot_abs_Q>  (390) 
3

>  <s_lp_Force_Field>  (390) 
OPLS3e

>  <r_lp_Energy>  (390) 
64.3161

>  <b_lp_Chiralities_Consistent>  (390) 
1

>  <s_lp_Variant>  (390) 
116:0-1

>  <s_i_glide_gridfile>  (390) 
pfpi4k_grid

>  <i_i_glide_lignum>  (390) 
36

>  <i_i_glide_rotatable_bonds>  (390) 
0

>  <r_i_docking_score>  (390) 
-2.58255

>  <r_i_glide_ligand_efficiency>  (390) 
-0.0860851

>  <r_i_glide_ligand_efficiency_sa>  (390) 
-0.267486

>  <r_i_glide_ligand_efficiency_ln>  (390) 
-0.586784

>  <r_i_glide_gscore>  (390) 
-2.58255

>  <r_i_glide_lipo>  (390) 
-0.17149

>  <r_i_glide_hbond>  (390) 
0

>  <r_i_glide_metal>  (390) 
-0

>  <r_i_glide_rewards>  (390) 
-0.486468

>  <r_i_glide_evdw>  (390) 
-28.0723

>  <r_i_glide_ecoul>  (390) 
-2.7406

>  <r_i_glide_erotb>  (390) 
0

>  <r_i_glide_esite>  (390) 
-0.109892

>  <r_i_glide_emodel>  (390) 
-36.2416

>  <r_i_glide_energy>  (390) 
-30.8129

>  <r_i_glide_einternal>  (390) 
0

>  <r_i_glide_intrahb_reward>  (390) 
-0

>  <i_i_glide_confnum>  (390) 
2

>  <i_i_glide_posenum>  (390) 
4

>  <r_i_glide_eff_state_penalty>  (390) 
0

>  <ligand_id>  (390) 
116

>  <original_smiles>  (390) 
C=C1CC2CCC3C(CC4CCC5C(CC=C6CC(=O)CCC65C)C43C)[S+]([O-])N2C1

>  <smiles>  (390) 
[H]C([H])=C1C([H])([H])C2([H])C([H])([H])C([H])([H])C3([H])C([H])(S(=O)[N+]2([H])C1([H])[H])C([H])([H])C1([H])C([H])([H])C([H])([H])C2([H])C([H])(C([H])([H])C([H])=C4C([H])([H])C(=O)C([H])([H])C([H])([H])C42C([H])([H])[H])C13C([H])([H])[H]

$$$$
117:0:0
     RDKit          3D

 69 74  0  0  1  0  0  0  0  0999 V2000
   -2.4585    2.9401    5.3868 C   0  0  0  0  0  0  0  0  0  0  0  0
   -1.2465    2.7659    4.8313 C   0  0  0  0  0  0  0  0  0  0  0  0
   -0.3203    1.6273    5.0817 C   0  0  1  0  0  0  0  0  0  0  0  0
   -0.2747    1.2279    3.5375 C   0  0  1  0  0  0  0  0  0  0  0  0
   -0.9704    2.3380    2.7228 C   0  0  0  0  0  0  0  0  0  0  0  0
   -0.6522    3.4685    3.6436 C   0  0  1  0  0  0  0  0  0  0  0  0
   -1.3173    4.6548    3.2656 O   0  0  0  0  0  0  0  0  0  0  0  0
    0.9010    3.5782    3.7757 C   0  0  0  0  0  0  0  0  0  0  0  0
    1.7196    2.5484    3.3761 C   0  0  0  0  0  0  0  0  0  0  0  0
    1.1399    1.1214    3.0947 C   0  0  2  0  0  0  0  0  0  0  0  0
    1.1997    0.8690    1.7064 O   0  0  0  0  0  0  0  0  0  0  0  0
    1.5770   -0.2393    3.8186 C   0  0  1  0  0  0  0  0  0  0  0  0
    2.2308   -1.0783    2.8802 O   0  0  0  0  0  0  0  0  0  0  0  0
    2.3047   -0.3294    5.1849 C   0  0  1  0  0  0  0  0  0  0  0  0
    3.7657    0.3311    5.1054 C   0  0  1  0  0  0  0  0  0  0  0  0
    4.8271   -0.6157    5.7191 C   0  0  0  0  0  0  0  0  0  0  0  0
    4.3362    0.5373    3.8173 O   0  0  0  0  0  0  0  0  0  0  0  0
    3.7317    1.6610    5.8697 C   0  0  1  0  0  0  0  0  0  0  0  0
    4.2209    2.8619    5.2985 O   0  0  0  0  0  0  0  0  0  0  0  0
    2.4378    1.7536    6.6642 C   0  0  2  0  0  0  0  0  0  0  0  0
    2.4841    0.5009    7.3196 O   0  0  0  0  0  0  0  0  0  0  0  0
    1.5063   -0.1721    6.6568 C   0  0  2  0  0  0  0  0  0  0  0  0
    1.2535   -1.5292    7.3848 C   0  0  0  0  0  0  0  0  0  0  0  0
    2.5285   -2.3052    7.7859 C   0  0  0  0  0  0  0  0  0  0  0  0
    0.3298   -2.4632    6.5872 C   0  0  0  0  0  0  0  0  0  0  0  0
    0.5310    1.0268    7.1793 C   0  0  1  0  0  0  0  0  0  0  0  0
    0.5328    1.4403    8.6938 C   0  0  0  0  0  0  0  0  0  0  0  0
    0.8988    2.1503    6.1863 C   0  0  2  0  0  0  0  0  0  0  0  0
    0.9433    3.8062    6.3654 C   0  0  0  0  0  0  0  0  0  0  0  0
   -0.3619    4.4767    6.9130 C   0  0  0  0  0  0  0  0  0  0  0  0
    1.9763    4.4604    7.3507 C   0  0  0  0  0  0  0  0  0  0  0  0
    1.3462    4.3662    4.9465 C   0  0  0  0  0  0  0  0  0  0  0  0
    1.9728    5.4174    4.8359 O   0  0  0  0  0  0  0  0  0  0  0  0
   -3.0627    3.7564    5.0333 H   0  0  0  0  0  0  0  0  0  0  0  0
   -2.7920    2.2887    6.1958 H   0  0  0  0  0  0  0  0  0  0  0  0
   -0.9904    0.8314    5.3930 H   0  0  0  0  0  0  0  0  0  0  0  0
   -0.8427    0.3117    3.3412 H   0  0  0  0  0  0  0  0  0  0  0  0
   -0.5833    2.5065    1.7248 H   0  0  0  0  0  0  0  0  0  0  0  0
   -2.0429    2.1479    2.6343 H   0  0  0  0  0  0  0  0  0  0  0  0
   -0.9679    4.8574    2.3964 H   0  0  0  0  0  0  0  0  0  0  0  0
    2.7713    2.5824    3.5186 H   0  0  0  0  0  0  0  0  0  0  0  0
    0.7067    1.5157    1.2165 H   0  0  0  0  0  0  0  0  0  0  0  0
    0.6911   -0.8527    3.9846 H   0  0  0  0  0  0  0  0  0  0  0  0
    1.8518   -0.8060    2.0358 H   0  0  0  0  0  0  0  0  0  0  0  0
    2.5306   -1.3855    5.1864 H   0  0  0  0  0  0  0  0  0  0  0  0
    4.6469   -0.8221    6.7774 H   0  0  0  0  0  0  0  0  0  0  0  0
    5.8300   -0.1805    5.6193 H   0  0  0  0  0  0  0  0  0  0  0  0
    4.8294   -1.5569    5.1730 H   0  0  0  0  0  0  0  0  0  0  0  0
    3.8021    1.1387    3.3254 H   0  0  0  0  0  0  0  0  0  0  0  0
    4.4751    1.5385    6.6648 H   0  0  0  0  0  0  0  0  0  0  0  0
    3.6692    3.1164    4.5738 H   0  0  0  0  0  0  0  0  0  0  0  0
    2.7376    2.3057    7.5395 H   0  0  0  0  0  0  0  0  0  0  0  0
    0.7587   -1.2827    8.3256 H   0  0  0  0  0  0  0  0  0  0  0  0
    3.1137   -2.5987    6.9142 H   0  0  0  0  0  0  0  0  0  0  0  0
    2.2840   -3.2166    8.3362 H   0  0  0  0  0  0  0  0  0  0  0  0
    3.1646   -1.7071    8.4358 H   0  0  0  0  0  0  0  0  0  0  0  0
    0.8690   -2.8856    5.7357 H   0  0  0  0  0  0  0  0  0  0  0  0
   -0.5543   -1.9572    6.1940 H   0  0  0  0  0  0  0  0  0  0  0  0
    0.0114   -3.3016    7.2138 H   0  0  0  0  0  0  0  0  0  0  0  0
   -0.5080    0.6990    7.2114 H   0  0  0  0  0  0  0  0  0  0  0  0
    1.5146    1.6126    9.1302 H   0  0  0  0  0  0  0  0  0  0  0  0
    0.0463    0.6711    9.2885 H   0  0  0  0  0  0  0  0  0  0  0  0
   -0.0302    2.3672    8.8175 H   0  0  0  0  0  0  0  0  0  0  0  0
   -1.0330    3.7471    7.3664 H   0  0  0  0  0  0  0  0  0  0  0  0
   -0.8942    5.0312    6.1375 H   0  0  0  0  0  0  0  0  0  0  0  0
   -0.2093    5.2199    7.7037 H   0  0  0  0  0  0  0  0  0  0  0  0
    1.8520    4.1035    8.3815 H   0  0  0  0  0  0  0  0  0  0  0  0
    1.8659    5.5526    7.3857 H   0  0  0  0  0  0  0  0  0  0  0  0
    3.0161    4.3239    7.0392 H   0  0  0  0  0  0  0  0  0  0  0  0
  1  2  2  0
  1 34  1  0
  1 35  1  0
  2  6  1  0
  2  3  1  0
  3 28  1  0
  3  4  1  0
  3 36  1  1
  4 10  1  0
  4  5  1  0
  4 37  1  1
  5  6  1  0
  5 38  1  0
  5 39  1  0
  6  7  1  6
  6  8  1  0
  7 40  1  0
  8 32  1  0
  8  9  2  0
  9 10  1  0
  9 41  1  0
 10 11  1  6
 10 12  1  0
 11 42  1  0
 12 13  1  0
 12 14  1  0
 12 43  1  1
 13 44  1  0
 14 22  1  0
 14 15  1  0
 14 45  1  1
 15 16  1  0
 15 17  1  6
 15 18  1  0
 16 46  1  0
 16 47  1  0
 16 48  1  0
 17 49  1  0
 18 19  1  0
 18 20  1  0
 18 50  1  1
 19 51  1  0
 20 28  1  0
 20 21  1  0
 20 52  1  1
 21 22  1  0
 22 23  1  1
 22 26  1  0
 23 24  1  0
 23 25  1  0
 23 53  1  0
 24 54  1  0
 24 55  1  0
 24 56  1  0
 25 57  1  0
 25 58  1  0
 25 59  1  0
 26 27  1  0
 26 28  1  0
 26 60  1  6
 27 61  1  0
 27 62  1  0
 27 63  1  0
 28 29  1  1
 29 30  1  0
 29 31  1  0
 29 32  1  0
 30 64  1  0
 30 65  1  0
 30 66  1  0
 31 67  1  0
 31 68  1  0
 31 69  1  0
 32 33  2  0
M  END
>  <i_m_ct_stereo_status>  (391) 
1

>  <s_m_source_file>  (391) 
/var/tmp/pbs.5076255.sched01/tmpu61_44ix/12937f0afz8.sdf

>  <i_m_source_file_index>  (391) 
37

>  <i_lp_mmshare_version>  (391) 
48012

>  <i_f3d_flags>  (391) 
0

>  <s_epik_input>  (391) 
W0NIMl09QzFbQ0BAXShbQ0gyXTIpKFtPSF0pQyhDKD1PKUMzKFtDSDNdKVtDSDNdKT1bQ0hdW0NAXShbT0hdKShbQ0BIXTJbQ0BIXTFbQ0BdMzQ1KVtDQEBIXShbT0hdKVtDQEBIXTZbQ0BdKFtDSF0oW0NIM10pW0NIM10pKFtDQEhdNVtDSDNdKU9bQ0BIXTRbQ0BIXShbT0hdKVtDQF02KFtDSDNdKVtPSF0=

>  <s_epik_cmdline>  (391) 
J2VwaWtfcHl0aG9uJywgJy1waHQnLCAnMi4wJywgJy1waCcsICc3LjAnLCAnLXRuJywgJzgnLCAnLW1hJywgJzIwMCcsICctaW1hZScsICc8aW5maWxlLm1hZT4nLCAnLW9tYWUnLCAnPG91dGZpbGUubWFlPic=

>  <r_lp_tautomer_probability>  (391) 
1

>  <r_epik_Ionization_Penalty>  (391) 
1.48216e-06

>  <r_epik_Ionization_Penalty_Charging>  (391) 
0

>  <r_epik_Ionization_Penalty_Neutral>  (391) 
1.48216e-06

>  <r_epik_State_Penalty>  (391) 
-0

>  <r_epik_Charging_Adjusted_Penalty>  (391) 
0

>  <i_epik_Tot_Q>  (391) 
0

>  <i_epik_Tot_abs_Q>  (391) 
0

>  <s_lp_Force_Field>  (391) 
OPLS3e

>  <r_lp_Energy>  (391) 
295.478

>  <b_lp_Chiralities_Consistent>  (391) 
1

>  <s_lp_Variant>  (391) 
117:0-1

>  <s_i_glide_gridfile>  (391) 
pfpi4k_grid

>  <i_i_glide_lignum>  (391) 
37

>  <i_i_glide_rotatable_bonds>  (391) 
6

>  <r_i_docking_score>  (391) 
-2.98002

>  <r_i_glide_ligand_efficiency>  (391) 
-0.0903035

>  <r_i_glide_ligand_efficiency_sa>  (391) 
-0.289652

>  <r_i_glide_ligand_efficiency_ln>  (391) 
-0.66274

>  <r_i_glide_gscore>  (391) 
-2.98002

>  <r_i_glide_lipo>  (391) 
-0.0171295

>  <r_i_glide_hbond>  (391) 
-0.288099

>  <r_i_glide_metal>  (391) 
-0

>  <r_i_glide_rewards>  (391) 
-0.76891

>  <r_i_glide_evdw>  (391) 
-19.3024

>  <r_i_glide_ecoul>  (391) 
-6.19112

>  <r_i_glide_erotb>  (391) 
0

>  <r_i_glide_esite>  (391) 
-0.0120919

>  <r_i_glide_emodel>  (391) 
-34.0333

>  <r_i_glide_energy>  (391) 
-25.4935

>  <r_i_glide_einternal>  (391) 
2.01376

>  <r_i_glide_intrahb_reward>  (391) 
-0.5

>  <i_i_glide_confnum>  (391) 
1

>  <i_i_glide_posenum>  (391) 
15

>  <r_i_glide_eff_state_penalty>  (391) 
0

>  <ligand_id>  (391) 
117

>  <original_smiles>  (391) 
C=C1C2C3CC1(O)C1=CC3(O)C(O)C3C(C)(O)C(O)C4OC3(C(C)C)C(C)C42C(C)(C)C1=O

>  <smiles>  (391) 
[H]OC12C3=C([H])C4(O[H])C([H])(O[H])C5([H])C(O[H])(C([H])([H])[H])C([H])(O[H])C6([H])OC5(C([H])(C([H])([H])[H])C([H])([H])[H])C([H])(C([H])([H])[H])C6(C([H])(C1=C([H])[H])C4([H])C2([H])[H])C(C([H])([H])[H])(C([H])([H])[H])C3=O

$$$$
117:0:1
     RDKit          3D

 69 74  0  0  1  0  0  0  0  0999 V2000
    4.1658   -0.2271    7.7943 C   0  0  0  0  0  0  0  0  0  0  0  0
    3.8840    0.6389    6.7988 C   0  0  0  0  0  0  0  0  0  0  0  0
    2.6961    1.5473    6.6920 C   0  0  1  0  0  0  0  0  0  0  0  0
    3.6214    2.8578    6.6042 C   0  0  1  0  0  0  0  0  0  0  0  0
    5.0994    2.4159    6.4245 C   0  0  0  0  0  0  0  0  0  0  0  0
    4.8124    1.1253    5.7225 C   0  0  1  0  0  0  0  0  0  0  0  0
    5.9807    0.3465    5.5391 O   0  0  0  0  0  0  0  0  0  0  0  0
    4.0192    1.4504    4.4255 C   0  0  0  0  0  0  0  0  0  0  0  0
    3.4123    2.6828    4.2490 C   0  0  0  0  0  0  0  0  0  0  0  0
    3.2327    3.6767    5.4218 C   0  0  2  0  0  0  0  0  0  0  0  0
    4.1378    4.7556    5.2452 O   0  0  0  0  0  0  0  0  0  0  0  0
    1.8317    4.2619    5.9261 C   0  0  1  0  0  0  0  0  0  0  0  0
    1.7756    5.6557    5.6638 O   0  0  0  0  0  0  0  0  0  0  0  0
    0.4409    3.6204    5.6150 C   0  0  1  0  0  0  0  0  0  0  0  0
    0.1107    3.7076    4.0576 C   0  0  1  0  0  0  0  0  0  0  0  0
   -1.3060    4.2968    3.8571 C   0  0  0  0  0  0  0  0  0  0  0  0
    0.9046    4.5994    3.2857 O   0  0  0  0  0  0  0  0  0  0  0  0
    0.2100    2.2988    3.4625 C   0  0  1  0  0  0  0  0  0  0  0  0
    1.0270    2.0911    2.3324 O   0  0  0  0  0  0  0  0  0  0  0  0
    0.2912    1.2898    4.6085 C   0  0  2  0  0  0  0  0  0  0  0  0
   -0.8243    1.7229    5.3692 O   0  0  0  0  0  0  0  0  0  0  0  0
   -0.1827    2.2869    6.4333 C   0  0  2  0  0  0  0  0  0  0  0  0
   -1.2194    2.7397    7.5134 C   0  0  0  0  0  0  0  0  0  0  0  0
   -0.5370    3.3961    8.7199 C   0  0  0  0  0  0  0  0  0  0  0  0
   -2.2186    1.6843    8.0061 C   0  0  0  0  0  0  0  0  0  0  0  0
    0.4832    0.8128    6.6609 C   0  0  1  0  0  0  0  0  0  0  0  0
   -0.3780   -0.4966    6.6624 C   0  0  0  0  0  0  0  0  0  0  0  0
    1.5713    0.8437    5.5738 C   0  0  2  0  0  0  0  0  0  0  0  0
    2.2300   -0.3859    4.6708 C   0  0  0  0  0  0  0  0  0  0  0  0
    2.7921   -1.6056    5.4712 C   0  0  0  0  0  0  0  0  0  0  0  0
    1.3418   -1.1571    3.6279 C   0  0  0  0  0  0  0  0  0  0  0  0
    3.3526    0.2979    3.8091 C   0  0  0  0  0  0  0  0  0  0  0  0
    3.6707   -0.1365    2.7004 O   0  0  0  0  0  0  0  0  0  0  0  0
    5.1132   -0.7473    7.8205 H   0  0  0  0  0  0  0  0  0  0  0  0
    3.4521   -0.4245    8.5786 H   0  0  0  0  0  0  0  0  0  0  0  0
    2.3844    1.6818    7.7259 H   0  0  0  0  0  0  0  0  0  0  0  0
    3.5977    3.4321    7.5328 H   0  0  0  0  0  0  0  0  0  0  0  0
    5.7427    3.0721    5.8437 H   0  0  0  0  0  0  0  0  0  0  0  0
    5.5943    2.2593    7.3826 H   0  0  0  0  0  0  0  0  0  0  0  0
    5.7466   -0.4287    5.0500 H   0  0  0  0  0  0  0  0  0  0  0  0
    2.8328    2.9084    3.3937 H   0  0  0  0  0  0  0  0  0  0  0  0
    4.0709    5.3207    6.0046 H   0  0  0  0  0  0  0  0  0  0  0  0
    1.8316    4.3180    7.0135 H   0  0  0  0  0  0  0  0  0  0  0  0
    1.7967    5.7449    4.7137 H   0  0  0  0  0  0  0  0  0  0  0  0
   -0.1944    4.4087    6.0136 H   0  0  0  0  0  0  0  0  0  0  0  0
   -2.0733    3.7210    4.3781 H   0  0  0  0  0  0  0  0  0  0  0  0
   -1.5822    4.3356    2.8007 H   0  0  0  0  0  0  0  0  0  0  0  0
   -1.3344    5.3140    4.2425 H   0  0  0  0  0  0  0  0  0  0  0  0
    0.6163    4.5444    2.3613 H   0  0  0  0  0  0  0  0  0  0  0  0
   -0.7637    2.1045    3.0070 H   0  0  0  0  0  0  0  0  0  0  0  0
    0.7761    2.7182    1.6602 H   0  0  0  0  0  0  0  0  0  0  0  0
   -0.2217    0.4361    4.1950 H   0  0  0  0  0  0  0  0  0  0  0  0
   -1.8495    3.4959    7.0465 H   0  0  0  0  0  0  0  0  0  0  0  0
    0.1399    2.7004    9.2214 H   0  0  0  0  0  0  0  0  0  0  0  0
   -1.2738    3.7269    9.4546 H   0  0  0  0  0  0  0  0  0  0  0  0
    0.0353    4.2743    8.4264 H   0  0  0  0  0  0  0  0  0  0  0  0
   -1.7552    1.0096    8.7245 H   0  0  0  0  0  0  0  0  0  0  0  0
   -2.6519    1.1153    7.1831 H   0  0  0  0  0  0  0  0  0  0  0  0
   -3.0435    2.1682    8.5290 H   0  0  0  0  0  0  0  0  0  0  0  0
    0.7837    0.7055    7.6994 H   0  0  0  0  0  0  0  0  0  0  0  0
   -1.1139   -0.5941    5.8648 H   0  0  0  0  0  0  0  0  0  0  0  0
   -0.9044   -0.5865    7.6001 H   0  0  0  0  0  0  0  0  0  0  0  0
    0.2525   -1.3838    6.6212 H   0  0  0  0  0  0  0  0  0  0  0  0
    2.4358   -1.6057    6.4985 H   0  0  0  0  0  0  0  0  0  0  0  0
    3.8836   -1.6357    5.4776 H   0  0  0  0  0  0  0  0  0  0  0  0
    2.5014   -2.5850    5.0875 H   0  0  0  0  0  0  0  0  0  0  0  0
    0.4755   -1.6330    4.0954 H   0  0  0  0  0  0  0  0  0  0  0  0
    1.8963   -1.9586    3.1308 H   0  0  0  0  0  0  0  0  0  0  0  0
    1.0005   -0.5380    2.7935 H   0  0  0  0  0  0  0  0  0  0  0  0
  1  2  2  0
  1 34  1  0
  1 35  1  0
  2  6  1  0
  2  3  1  0
  3 28  1  0
  3  4  1  0
  3 36  1  1
  4 10  1  0
  4  5  1  0
  4 37  1  1
  5  6  1  0
  5 38  1  0
  5 39  1  0
  6  7  1  6
  6  8  1  0
  7 40  1  0
  8 32  1  0
  8  9  2  0
  9 10  1  0
  9 41  1  0
 10 11  1  6
 10 12  1  0
 11 42  1  0
 12 13  1  0
 12 14  1  0
 12 43  1  1
 13 44  1  0
 14 22  1  0
 14 15  1  0
 14 45  1  1
 15 16  1  0
 15 17  1  6
 15 18  1  0
 16 46  1  0
 16 47  1  0
 16 48  1  0
 17 49  1  0
 18 19  1  0
 18 20  1  0
 18 50  1  6
 19 51  1  0
 20 28  1  0
 20 21  1  0
 20 52  1  6
 21 22  1  0
 22 23  1  1
 22 26  1  0
 23 24  1  0
 23 25  1  0
 23 53  1  0
 24 54  1  0
 24 55  1  0
 24 56  1  0
 25 57  1  0
 25 58  1  0
 25 59  1  0
 26 27  1  0
 26 28  1  0
 26 60  1  1
 27 61  1  0
 27 62  1  0
 27 63  1  0
 28 29  1  6
 29 30  1  0
 29 31  1  0
 29 32  1  0
 30 64  1  0
 30 65  1  0
 30 66  1  0
 31 67  1  0
 31 68  1  0
 31 69  1  0
 32 33  2  0
M  END
>  <i_m_ct_stereo_status>  (392) 
1

>  <s_m_source_file>  (392) 
/var/tmp/pbs.5076255.sched01/tmpu61_44ix/12937f0afz8.sdf

>  <i_m_source_file_index>  (392) 
37

>  <i_lp_mmshare_version>  (392) 
48012

>  <i_f3d_flags>  (392) 
0

>  <s_epik_input>  (392) 
W0NIMl09QzFbQ0BAXShbQ0gyXTIpKFtPSF0pQyhDKD1PKUMzKFtDSDNdKVtDSDNdKT1bQ0hdW0NAXShbT0hdKShbQ0BIXTJbQ0BIXTFbQ0BdMzQ1KVtDQEBIXShbT0hdKVtDQEBIXTZbQ0BdKFtDSF0oW0NIM10pW0NIM10pKFtDQEhdNVtDSDNdKU9bQ0BIXTRbQ0BIXShbT0hdKVtDQF02KFtDSDNdKVtPSF0=

>  <s_epik_cmdline>  (392) 
J2VwaWtfcHl0aG9uJywgJy1waHQnLCAnMi4wJywgJy1waCcsICc3LjAnLCAnLXRuJywgJzgnLCAnLW1hJywgJzIwMCcsICctaW1hZScsICc8aW5maWxlLm1hZT4nLCAnLW9tYWUnLCAnPG91dGZpbGUubWFlPic=

>  <r_lp_tautomer_probability>  (392) 
1

>  <r_epik_Ionization_Penalty>  (392) 
1.48216e-06

>  <r_epik_Ionization_Penalty_Charging>  (392) 
0

>  <r_epik_Ionization_Penalty_Neutral>  (392) 
1.48216e-06

>  <r_epik_State_Penalty>  (392) 
-0

>  <r_epik_Charging_Adjusted_Penalty>  (392) 
0

>  <i_epik_Tot_Q>  (392) 
0

>  <i_epik_Tot_abs_Q>  (392) 
0

>  <s_lp_Force_Field>  (392) 
OPLS3e

>  <r_lp_Energy>  (392) 
295.478

>  <b_lp_Chiralities_Consistent>  (392) 
1

>  <s_lp_Variant>  (392) 
117:0-1

>  <s_i_glide_gridfile>  (392) 
pfpi4k_grid

>  <i_i_glide_lignum>  (392) 
37

>  <i_i_glide_rotatable_bonds>  (392) 
6

>  <r_i_docking_score>  (392) 
-2.54218

>  <r_i_glide_ligand_efficiency>  (392) 
-0.0770356

>  <r_i_glide_ligand_efficiency_sa>  (392) 
-0.247094

>  <r_i_glide_ligand_efficiency_ln>  (392) 
-0.565367

>  <r_i_glide_gscore>  (392) 
-2.54218

>  <r_i_glide_lipo>  (392) 
-0.0300414

>  <r_i_glide_hbond>  (392) 
0

>  <r_i_glide_metal>  (392) 
-0

>  <r_i_glide_rewards>  (392) 
-0.76891

>  <r_i_glide_evdw>  (392) 
-16.083

>  <r_i_glide_ecoul>  (392) 
-6.2526

>  <r_i_glide_erotb>  (392) 
0

>  <r_i_glide_esite>  (392) 
-0.00118205

>  <r_i_glide_emodel>  (392) 
-31.2007

>  <r_i_glide_energy>  (392) 
-22.3356

>  <r_i_glide_einternal>  (392) 
0.678806

>  <r_i_glide_intrahb_reward>  (392) 
-0.5

>  <i_i_glide_confnum>  (392) 
2

>  <i_i_glide_posenum>  (392) 
39

>  <r_i_glide_eff_state_penalty>  (392) 
0

>  <ligand_id>  (392) 
117

>  <original_smiles>  (392) 
C=C1C2C3CC1(O)C1=CC3(O)C(O)C3C(C)(O)C(O)C4OC3(C(C)C)C(C)C42C(C)(C)C1=O

>  <smiles>  (392) 
[H]OC12C3=C([H])C4(O[H])C([H])(O[H])C5([H])C(O[H])(C([H])([H])[H])C([H])(O[H])C6([H])OC5(C([H])(C([H])([H])[H])C([H])([H])[H])C([H])(C([H])([H])[H])C6(C([H])(C1=C([H])[H])C4([H])C2([H])[H])C(C([H])([H])[H])(C([H])([H])[H])C3=O

$$$$
117:0:2
     RDKit          3D

 69 74  0  0  1  0  0  0  0  0999 V2000
   -2.1689    2.6970    5.2889 C   0  0  0  0  0  0  0  0  0  0  0  0
   -0.9276    2.4851    4.8300 C   0  0  0  0  0  0  0  0  0  0  0  0
   -0.0530    1.3098    5.1436 C   0  0  1  0  0  0  0  0  0  0  0  0
    0.0835    0.9064    3.6058 C   0  0  1  0  0  0  0  0  0  0  0  0
   -0.5198    2.0391    2.7362 C   0  0  0  0  0  0  0  0  0  0  0  0
   -0.2262    3.1624    3.6824 C   0  0  1  0  0  0  0  0  0  0  0  0
   -0.8269    4.3722    3.2750 O   0  0  0  0  0  0  0  0  0  0  0  0
    1.3082    3.2227    3.9303 C   0  0  0  0  0  0  0  0  0  0  0  0
    2.1170    2.1628    3.5893 C   0  0  0  0  0  0  0  0  0  0  0  0
    1.5202    0.7505    3.2594 C   0  0  2  0  0  0  0  0  0  0  0  0
    1.6645    0.4880    1.8733 O   0  0  0  0  0  0  0  0  0  0  0  0
    1.8627   -0.6200    4.0142 C   0  0  1  0  0  0  0  0  0  0  0  0
    2.5706   -1.4872    3.1484 O   0  0  0  0  0  0  0  0  0  0  0  0
    2.4781   -0.7195    5.4357 C   0  0  1  0  0  0  0  0  0  0  0  0
    3.9602   -0.1210    5.4668 C   0  0  1  0  0  0  0  0  0  0  0  0
    4.9478   -1.1100    6.1373 C   0  0  0  0  0  0  0  0  0  0  0  0
    4.6202    0.1154    4.2267 O   0  0  0  0  0  0  0  0  0  0  0  0
    3.9220    1.2001    6.2395 C   0  0  1  0  0  0  0  0  0  0  0  0
    4.4702    2.3563    5.6664 O   0  0  0  0  0  0  0  0  0  0  0  0
    2.5727    1.3427    6.9311 C   0  0  2  0  0  0  0  0  0  0  0  0
    2.5332    0.0832    7.5799 O   0  0  0  0  0  0  0  0  0  0  0  0
    1.5819   -0.5515    6.8423 C   0  0  2  0  0  0  0  0  0  0  0  0
    1.2360   -1.9033    7.5428 C   0  0  0  0  0  0  0  0  0  0  0  0
    2.4573   -2.7225    8.0161 C   0  0  0  0  0  0  0  0  0  0  0  0
    0.3295   -2.8074    6.6858 C   0  0  0  0  0  0  0  0  0  0  0  0
    0.6146    0.6804    7.3031 C   0  0  1  0  0  0  0  0  0  0  0  0
    0.5173    1.0975    8.8104 C   0  0  0  0  0  0  0  0  0  0  0  0
    1.0958    1.7939    6.3397 C   0  0  2  0  0  0  0  0  0  0  0  0
    1.1787    3.4434    6.5196 C   0  0  0  0  0  0  0  0  0  0  0  0
   -0.1393    4.1562    6.9757 C   0  0  0  0  0  0  0  0  0  0  0  0
    2.1588    4.0626    7.5832 C   0  0  0  0  0  0  0  0  0  0  0  0
    1.6968    3.9985    5.1384 C   0  0  0  0  0  0  0  0  0  0  0  0
    2.3478    5.0322    5.0745 O   0  0  0  0  0  0  0  0  0  0  0  0
   -2.7388    3.5309    4.8972 H   0  0  0  0  0  0  0  0  0  0  0  0
   -2.5746    2.0708    6.0846 H   0  0  0  0  0  0  0  0  0  0  0  0
   -0.7748    0.5395    5.4084 H   0  0  0  0  0  0  0  0  0  0  0  0
   -0.5006    0.0106    3.3713 H   0  0  0  0  0  0  0  0  0  0  0  0
   -0.0666    2.1808    1.7641 H   0  0  0  0  0  0  0  0  0  0  0  0
   -1.5865    1.8898    2.5861 H   0  0  0  0  0  0  0  0  0  0  0  0
   -0.5527    4.5084    2.3571 H   0  0  0  0  0  0  0  0  0  0  0  0
    3.1452    2.1752    3.8284 H   0  0  0  0  0  0  0  0  0  0  0  0
    1.0787    1.0394    1.3629 H   0  0  0  0  0  0  0  0  0  0  0  0
    0.9460   -1.2056    4.1126 H   0  0  0  0  0  0  0  0  0  0  0  0
    2.1952   -1.3168    2.2862 H   0  0  0  0  0  0  0  0  0  0  0  0
    2.6693   -1.7911    5.4466 H   0  0  0  0  0  0  0  0  0  0  0  0
    4.6769   -1.3170    7.1734 H   0  0  0  0  0  0  0  0  0  0  0  0
    5.9702   -0.7192    6.1329 H   0  0  0  0  0  0  0  0  0  0  0  0
    4.9552   -2.0492    5.5848 H   0  0  0  0  0  0  0  0  0  0  0  0
    4.0476    0.6347    3.6723 H   0  0  0  0  0  0  0  0  0  0  0  0
    4.6213    1.0741    7.0706 H   0  0  0  0  0  0  0  0  0  0  0  0
    5.3526    2.1313    5.3863 H   0  0  0  0  0  0  0  0  0  0  0  0
    2.8344    1.8830    7.8262 H   0  0  0  0  0  0  0  0  0  0  0  0
    0.6888   -1.6483    8.4517 H   0  0  0  0  0  0  0  0  0  0  0  0
    3.0885   -3.0306    7.1850 H   0  0  0  0  0  0  0  0  0  0  0  0
    2.1550   -3.6354    8.5354 H   0  0  0  0  0  0  0  0  0  0  0  0
    3.0656   -2.1481    8.7145 H   0  0  0  0  0  0  0  0  0  0  0  0
    0.8988   -3.2554    5.8712 H   0  0  0  0  0  0  0  0  0  0  0  0
   -0.5118   -2.2708    6.2428 H   0  0  0  0  0  0  0  0  0  0  0  0
   -0.0603   -3.6287    7.2939 H   0  0  0  0  0  0  0  0  0  0  0  0
   -0.4299    0.3846    7.2534 H   0  0  0  0  0  0  0  0  0  0  0  0
    1.4677    1.2364    9.3265 H   0  0  0  0  0  0  0  0  0  0  0  0
   -0.0434    0.3533    9.3753 H   0  0  0  0  0  0  0  0  0  0  0  0
   -0.0180    2.0421    8.8993 H   0  0  0  0  0  0  0  0  0  0  0  0
   -0.8630    3.4453    7.3748 H   0  0  0  0  0  0  0  0  0  0  0  0
   -0.5960    4.7292    6.1673 H   0  0  0  0  0  0  0  0  0  0  0  0
   -0.0219    4.8897    7.7813 H   0  0  0  0  0  0  0  0  0  0  0  0
    1.9470    3.7077    8.6020 H   0  0  0  0  0  0  0  0  0  0  0  0
    2.0807    5.1566    7.6184 H   0  0  0  0  0  0  0  0  0  0  0  0
    3.2143    3.8923    7.3509 H   0  0  0  0  0  0  0  0  0  0  0  0
  1  2  2  0
  1 34  1  0
  1 35  1  0
  2  6  1  0
  2  3  1  0
  3 28  1  0
  3  4  1  0
  3 36  1  1
  4 10  1  0
  4  5  1  0
  4 37  1  1
  5  6  1  0
  5 38  1  0
  5 39  1  0
  6  7  1  6
  6  8  1  0
  7 40  1  0
  8 32  1  0
  8  9  2  0
  9 10  1  0
  9 41  1  0
 10 11  1  6
 10 12  1  0
 11 42  1  0
 12 13  1  0
 12 14  1  0
 12 43  1  1
 13 44  1  0
 14 22  1  0
 14 15  1  0
 14 45  1  1
 15 16  1  0
 15 17  1  6
 15 18  1  0
 16 46  1  0
 16 47  1  0
 16 48  1  0
 17 49  1  0
 18 19  1  0
 18 20  1  0
 18 50  1  1
 19 51  1  0
 20 28  1  0
 20 21  1  0
 20 52  1  1
 21 22  1  0
 22 23  1  1
 22 26  1  0
 23 24  1  0
 23 25  1  0
 23 53  1  0
 24 54  1  0
 24 55  1  0
 24 56  1  0
 25 57  1  0
 25 58  1  0
 25 59  1  0
 26 27  1  0
 26 28  1  0
 26 60  1  6
 27 61  1  0
 27 62  1  0
 27 63  1  0
 28 29  1  1
 29 30  1  0
 29 31  1  0
 29 32  1  0
 30 64  1  0
 30 65  1  0
 30 66  1  0
 31 67  1  0
 31 68  1  0
 31 69  1  0
 32 33  2  0
M  END
>  <i_m_ct_stereo_status>  (393) 
1

>  <s_m_source_file>  (393) 
/var/tmp/pbs.5076255.sched01/tmpu61_44ix/12937f0afz8.sdf

>  <i_m_source_file_index>  (393) 
37

>  <i_lp_mmshare_version>  (393) 
48012

>  <i_f3d_flags>  (393) 
0

>  <s_epik_input>  (393) 
W0NIMl09QzFbQ0BAXShbQ0gyXTIpKFtPSF0pQyhDKD1PKUMzKFtDSDNdKVtDSDNdKT1bQ0hdW0NAXShbT0hdKShbQ0BIXTJbQ0BIXTFbQ0BdMzQ1KVtDQEBIXShbT0hdKVtDQEBIXTZbQ0BdKFtDSF0oW0NIM10pW0NIM10pKFtDQEhdNVtDSDNdKU9bQ0BIXTRbQ0BIXShbT0hdKVtDQF02KFtDSDNdKVtPSF0=

>  <s_epik_cmdline>  (393) 
J2VwaWtfcHl0aG9uJywgJy1waHQnLCAnMi4wJywgJy1waCcsICc3LjAnLCAnLXRuJywgJzgnLCAnLW1hJywgJzIwMCcsICctaW1hZScsICc8aW5maWxlLm1hZT4nLCAnLW9tYWUnLCAnPG91dGZpbGUubWFlPic=

>  <r_lp_tautomer_probability>  (393) 
1

>  <r_epik_Ionization_Penalty>  (393) 
1.48216e-06

>  <r_epik_Ionization_Penalty_Charging>  (393) 
0

>  <r_epik_Ionization_Penalty_Neutral>  (393) 
1.48216e-06

>  <r_epik_State_Penalty>  (393) 
-0

>  <r_epik_Charging_Adjusted_Penalty>  (393) 
0

>  <i_epik_Tot_Q>  (393) 
0

>  <i_epik_Tot_abs_Q>  (393) 
0

>  <s_lp_Force_Field>  (393) 
OPLS3e

>  <r_lp_Energy>  (393) 
295.478

>  <b_lp_Chiralities_Consistent>  (393) 
1

>  <s_lp_Variant>  (393) 
117:0-1

>  <s_i_glide_gridfile>  (393) 
pfpi4k_grid

>  <i_i_glide_lignum>  (393) 
37

>  <i_i_glide_rotatable_bonds>  (393) 
6

>  <r_i_docking_score>  (393) 
-2.18103

>  <r_i_glide_ligand_efficiency>  (393) 
-0.0660919

>  <r_i_glide_ligand_efficiency_sa>  (393) 
-0.211992

>  <r_i_glide_ligand_efficiency_ln>  (393) 
-0.48505

>  <r_i_glide_gscore>  (393) 
-2.18103

>  <r_i_glide_lipo>  (393) 
-0.0261371

>  <r_i_glide_hbond>  (393) 
-0.16

>  <r_i_glide_metal>  (393) 
-0

>  <r_i_glide_rewards>  (393) 
-0.26891

>  <r_i_glide_evdw>  (393) 
-18.2288

>  <r_i_glide_ecoul>  (393) 
-5.3968

>  <r_i_glide_erotb>  (393) 
0

>  <r_i_glide_esite>  (393) 
-0.00502248

>  <r_i_glide_emodel>  (393) 
-25.5284

>  <r_i_glide_energy>  (393) 
-23.6256

>  <r_i_glide_einternal>  (393) 
2.32804

>  <r_i_glide_intrahb_reward>  (393) 
-0

>  <i_i_glide_confnum>  (393) 
1

>  <i_i_glide_posenum>  (393) 
27

>  <r_i_glide_eff_state_penalty>  (393) 
0

>  <ligand_id>  (393) 
117

>  <original_smiles>  (393) 
C=C1C2C3CC1(O)C1=CC3(O)C(O)C3C(C)(O)C(O)C4OC3(C(C)C)C(C)C42C(C)(C)C1=O

>  <smiles>  (393) 
[H]OC12C3=C([H])C4(O[H])C([H])(O[H])C5([H])C(O[H])(C([H])([H])[H])C([H])(O[H])C6([H])OC5(C([H])(C([H])([H])[H])C([H])([H])[H])C([H])(C([H])([H])[H])C6(C([H])(C1=C([H])[H])C4([H])C2([H])[H])C(C([H])([H])[H])(C([H])([H])[H])C3=O

$$$$
118:0:0
     RDKit          3D

 68 76  0  0  1  0  0  0  0  0999 V2000
   -2.0008    2.5719    9.9915 C   0  0  0  0  0  0  0  0  0  0  0  0
   -1.2867    2.0527    8.8771 O   0  0  0  0  0  0  0  0  0  0  0  0
   -0.6306    3.0579    8.0917 C   0  0  2  0  0  0  0  0  0  0  0  0
   -1.5124    3.6933    6.9510 C   0  0  2  0  0  0  0  0  0  0  0  0
   -2.1103    2.5677    6.0737 C   0  0  2  0  0  0  0  0  0  0  0  0
   -1.0862    1.7826    6.5133 O   0  0  0  0  0  0  0  0  0  0  0  0
    0.0136    2.6338    6.7500 C   0  0  1  0  0  0  0  0  0  0  0  0
   -0.1806    4.1811    6.4400 C   0  0  1  0  0  0  0  0  0  0  0  0
   -0.0586    5.0119    5.1575 C   0  0  0  0  0  0  0  0  0  0  0  0
   -0.7416    4.5237    3.8952 C   0  0  0  0  0  0  0  0  0  0  0  0
   -0.7864    3.0205    3.7186 C   0  0  1  0  0  0  0  0  0  0  0  0
    0.5145    2.1694    3.6032 C   0  0  1  0  0  0  0  0  0  0  0  0
    1.8779    2.7562    4.0319 C   0  0  0  0  0  0  0  0  0  0  0  0
    2.2408    2.6181    5.5248 C   0  0  0  0  0  0  0  0  0  0  0  0
    3.5769    2.0510    5.5980 O   0  0  0  0  0  0  0  0  0  0  0  0
    4.1139    3.3924    5.7169 C   0  0  0  0  0  0  0  0  0  0  0  0
    2.7879    3.8405    6.1074 O   0  0  0  0  0  0  0  0  0  0  0  0
    1.2655    1.8019    6.4010 C   0  0  2  0  0  0  0  0  0  0  0  0
    0.9349    0.5172    5.5487 C   0  0  1  0  0  0  0  0  0  0  0  0
    0.1903   -0.4678    6.2642 O   0  0  0  0  0  0  0  0  0  0  0  0
    0.5970   -1.7910    6.2012 C   0  0  2  0  0  0  0  0  0  0  0  0
    0.3894   -2.3478    4.9142 O   0  0  0  0  0  0  0  0  0  0  0  0
    0.8504   -3.6956    4.6802 C   0  0  1  0  0  0  0  0  0  0  0  0
    2.3919   -3.7758    4.5788 C   0  0  0  0  0  0  0  0  0  0  0  0
    0.2656   -4.6329    5.6967 C   0  0  1  0  0  0  0  0  0  0  0  0
    1.0513   -4.6521    6.9281 O   0  0  0  0  0  0  0  0  0  0  0  0
   -0.2678   -4.0326    6.9991 C   0  0  2  0  0  0  0  0  0  0  0  0
   -1.2122   -4.8386    7.6488 O   0  0  0  0  0  0  0  0  0  0  0  0
   -2.4564   -4.8863    6.9765 C   0  0  0  0  0  0  0  0  0  0  0  0
   -0.3110   -2.5548    7.1804 C   0  0  1  0  0  0  0  0  0  0  0  0
   -0.0170   -2.2759    8.5508 O   0  0  0  0  0  0  0  0  0  0  0  0
    0.1607    0.8001    4.2135 C   0  0  1  0  0  0  0  0  0  0  0  0
   -1.4023    0.8190    4.2639 C   0  0  0  0  0  0  0  0  0  0  0  0
   -1.8650    2.2816    4.5336 C   0  0  1  0  0  0  0  0  0  0  0  0
   -2.4106    1.7579   10.5900 H   0  0  0  0  0  0  0  0  0  0  0  0
   -2.8317    3.2052    9.6783 H   0  0  0  0  0  0  0  0  0  0  0  0
   -1.3538    3.1460   10.6546 H   0  0  0  0  0  0  0  0  0  0  0  0
   -0.0595    3.7362    8.7362 H   0  0  0  0  0  0  0  0  0  0  0  0
   -2.1774    4.4801    7.2885 H   0  0  0  0  0  0  0  0  0  0  0  0
   -3.0600    2.1816    6.4483 H   0  0  0  0  0  0  0  0  0  0  0  0
    0.3524    4.8228    7.1475 H   0  0  0  0  0  0  0  0  0  0  0  0
   -0.4428    6.0162    5.3548 H   0  0  0  0  0  0  0  0  0  0  0  0
    0.9924    5.2073    4.9583 H   0  0  0  0  0  0  0  0  0  0  0  0
   -1.7744    4.8760    3.8758 H   0  0  0  0  0  0  0  0  0  0  0  0
   -0.2588    4.9853    3.0308 H   0  0  0  0  0  0  0  0  0  0  0  0
   -1.1763    2.9400    2.7065 H   0  0  0  0  0  0  0  0  0  0  0  0
    0.6341    2.0045    2.5383 H   0  0  0  0  0  0  0  0  0  0  0  0
    2.6470    2.2438    3.4456 H   0  0  0  0  0  0  0  0  0  0  0  0
    1.9677    3.7841    3.6953 H   0  0  0  0  0  0  0  0  0  0  0  0
    4.8422    3.4651    6.5194 H   0  0  0  0  0  0  0  0  0  0  0  0
    4.4432    3.8057    4.7611 H   0  0  0  0  0  0  0  0  0  0  0  0
    1.7485    1.4797    7.3327 H   0  0  0  0  0  0  0  0  0  0  0  0
    1.9144    0.1160    5.2740 H   0  0  0  0  0  0  0  0  0  0  0  0
    1.6510   -1.8517    6.4659 H   0  0  0  0  0  0  0  0  0  0  0  0
    0.4243   -3.9985    3.7174 H   0  0  0  0  0  0  0  0  0  0  0  0
    2.7217   -4.8104    4.4743 H   0  0  0  0  0  0  0  0  0  0  0  0
    2.9092   -3.3826    5.4525 H   0  0  0  0  0  0  0  0  0  0  0  0
    2.7589   -3.2222    3.7156 H   0  0  0  0  0  0  0  0  0  0  0  0
   -0.0366   -5.6288    5.4057 H   0  0  0  0  0  0  0  0  0  0  0  0
   -3.1937   -5.3268    7.6402 H   0  0  0  0  0  0  0  0  0  0  0  0
   -2.3757   -5.5001    6.0879 H   0  0  0  0  0  0  0  0  0  0  0  0
   -2.8235   -3.8925    6.7249 H   0  0  0  0  0  0  0  0  0  0  0  0
   -1.3184   -2.1959    6.9180 H   0  0  0  0  0  0  0  0  0  0  0  0
    0.9263   -2.2959    8.6677 H   0  0  0  0  0  0  0  0  0  0  0  0
    0.4534    0.0033    3.5303 H   0  0  0  0  0  0  0  0  0  0  0  0
   -1.7614    0.5394    3.2748 H   0  0  0  0  0  0  0  0  0  0  0  0
   -1.8423    0.0952    4.9524 H   0  0  0  0  0  0  0  0  0  0  0  0
   -2.8261    2.4460    4.0400 H   0  0  0  0  0  0  0  0  0  0  0  0
  1  2  1  0
  1 35  1  0
  1 36  1  0
  1 37  1  0
  2  3  1  0
  3  7  1  0
  3  4  1  0
  3 38  1  1
  4  8  1  0
  4  5  1  0
  4 39  1  1
  5 34  1  0
  5  6  1  0
  5 40  1  1
  7  6  1  6
  7 18  1  0
  7  8  1  0
  8  9  1  0
  8 41  1  1
  9 10  1  0
  9 42  1  0
  9 43  1  0
 10 11  1  0
 10 44  1  0
 10 45  1  0
 11 34  1  0
 11 12  1  0
 11 46  1  6
 12 32  1  0
 12 13  1  0
 12 47  1  6
 13 14  1  0
 13 48  1  0
 13 49  1  0
 14 17  1  0
 14 15  1  0
 14 18  1  0
 15 16  1  0
 16 17  1  0
 16 50  1  0
 16 51  1  0
 18 19  1  0
 18 52  1  1
 19 20  1  0
 19 32  1  0
 19 53  1  6
 20 21  1  0
 21 30  1  0
 21 22  1  0
 21 54  1  1
 22 23  1  0
 23 24  1  0
 23 25  1  0
 23 55  1  6
 24 56  1  0
 24 57  1  0
 24 58  1  0
 25 27  1  0
 25 26  1  0
 25 59  1  6
 26 27  1  0
 27 28  1  1
 27 30  1  0
 28 29  1  0
 29 60  1  0
 29 61  1  0
 29 62  1  0
 30 31  1  0
 30 63  1  6
 31 64  1  0
 32 33  1  0
 32 65  1  6
 33 34  1  0
 33 66  1  0
 33 67  1  0
 34 68  1  6
M  END
>  <i_m_ct_stereo_status>  (394) 
1

>  <s_m_source_file>  (394) 
/var/tmp/pbs.5076255.sched01/tmpu61_44ix/12937f0afz8.sdf

>  <i_m_source_file_index>  (394) 
38

>  <i_lp_mmshare_version>  (394) 
48012

>  <i_f3d_flags>  (394) 
0

>  <s_epik_input>  (394) 
W0NIM11PW0NAQEhdMVtDQEBIXShbQ0BIXTJbQ0BAXTEzNClbQ0BIXShPMylbQ0BIXTVbQ0BASF0oW0NIMl1bQ0gyXTIpW0NAQEhdNltDQEhdKFtDSDJdNSlbQ0BASF0oW0NASF00QzcoW0NIMl02KU9bQ0gyXU83KU9bQ0BASF0oW0NAQEhdOFtPSF0pT1tDQEBIXShbQ0gzXSlbQ0BASF0oTzkpW0NAXTg5T1tDSDNd

>  <s_epik_cmdline>  (394) 
J2VwaWtfcHl0aG9uJywgJy1waHQnLCAnMi4wJywgJy1waCcsICc3LjAnLCAnLXRuJywgJzgnLCAnLW1hJywgJzIwMCcsICctaW1hZScsICc8aW5maWxlLm1hZT4nLCAnLW9tYWUnLCAnPG91dGZpbGUubWFlPic=

>  <r_lp_tautomer_probability>  (394) 
1

>  <r_epik_Ionization_Penalty>  (394) 
7.72993e-05

>  <r_epik_Ionization_Penalty_Charging>  (394) 
0

>  <r_epik_Ionization_Penalty_Neutral>  (394) 
7.72993e-05

>  <r_epik_State_Penalty>  (394) 
-0

>  <r_epik_Charging_Adjusted_Penalty>  (394) 
0

>  <i_epik_Tot_Q>  (394) 
0

>  <i_epik_Tot_abs_Q>  (394) 
0

>  <s_epik_Chemistry_Notes>  (394) 
This compound contains an acetal/aminal-like group ( X-CH(R)-Y where X, Y are N, S, or O) that may be acid/base labile, releasing an aldehyde.

>  <s_lp_Force_Field>  (394) 
OPLS3e

>  <r_lp_Energy>  (394) 
138.688

>  <b_lp_Chiralities_Consistent>  (394) 
1

>  <s_lp_Variant>  (394) 
118:0-1

>  <s_i_glide_gridfile>  (394) 
pfpi4k_grid

>  <i_i_glide_lignum>  (394) 
38

>  <i_i_glide_rotatable_bonds>  (394) 
5

>  <r_i_docking_score>  (394) 
-1.76811

>  <r_i_glide_ligand_efficiency>  (394) 
-0.0520032

>  <r_i_glide_ligand_efficiency_sa>  (394) 
-0.16847

>  <r_i_glide_ligand_efficiency_ln>  (394) 
-0.390625

>  <r_i_glide_gscore>  (394) 
-1.76811

>  <r_i_glide_lipo>  (394) 
-0.119113

>  <r_i_glide_hbond>  (394) 
0

>  <r_i_glide_metal>  (394) 
-0

>  <r_i_glide_rewards>  (394) 
-0.146372

>  <r_i_glide_evdw>  (394) 
-18.5969

>  <r_i_glide_ecoul>  (394) 
-4.80226

>  <r_i_glide_erotb>  (394) 
0.176994

>  <r_i_glide_esite>  (394) 
-0.0294326

>  <r_i_glide_emodel>  (394) 
-22.9175

>  <r_i_glide_energy>  (394) 
-23.3992

>  <r_i_glide_einternal>  (394) 
4.22016

>  <r_i_glide_intrahb_reward>  (394) 
-0

>  <i_i_glide_confnum>  (394) 
4

>  <i_i_glide_posenum>  (394) 
12

>  <r_i_glide_eff_state_penalty>  (394) 
0

>  <ligand_id>  (394) 
118

>  <original_smiles>  (394) 
COC1C2C3OC14C2CCC1C2CC5(OCO5)C4C(OC4OC(C)C5OC5(OC)C4O)C2CC13

>  <smiles>  (394) 
[H]OC1([H])C([H])(OC2([H])C3([H])C([H])([H])C4([H])C5([H])OC67C([H])(OC([H])([H])[H])C5([H])C6([H])C([H])([H])C([H])([H])C4([H])C3([H])C([H])([H])C3(OC([H])([H])O3)C27[H])OC([H])(C([H])([H])[H])C2([H])OC12OC([H])([H])[H]

$$$$
118:0:1
     RDKit          3D

 68 76  0  0  1  0  0  0  0  0999 V2000
   -1.8755    2.6033    9.9756 C   0  0  0  0  0  0  0  0  0  0  0  0
   -1.1747    2.1383    8.8308 O   0  0  0  0  0  0  0  0  0  0  0  0
   -0.6390    3.1942    8.0203 C   0  0  2  0  0  0  0  0  0  0  0  0
   -1.6139    3.7659    6.9203 C   0  0  2  0  0  0  0  0  0  0  0  0
   -2.1538    2.6032    6.0577 C   0  0  2  0  0  0  0  0  0  0  0  0
   -1.0633    1.8908    6.4600 O   0  0  0  0  0  0  0  0  0  0  0  0
   -0.0153    2.8234    6.6491 C   0  0  1  0  0  0  0  0  0  0  0  0
   -0.3425    4.3574    6.3571 C   0  0  1  0  0  0  0  0  0  0  0  0
   -0.3252    5.1866    5.0728 C   0  0  0  0  0  0  0  0  0  0  0  0
   -1.0268    4.6590    3.8331 C   0  0  0  0  0  0  0  0  0  0  0  0
   -0.9696    3.1595    3.6483 C   0  0  1  0  0  0  0  0  0  0  0  0
    0.3927    2.4158    3.4756 C   0  0  1  0  0  0  0  0  0  0  0  0
    1.7186    3.1089    3.8621 C   0  0  0  0  0  0  0  0  0  0  0  0
    2.1580    2.9845    5.3372 C   0  0  0  0  0  0  0  0  0  0  0  0
    3.5351    2.5407    5.3553 O   0  0  0  0  0  0  0  0  0  0  0  0
    3.9662    3.9089    5.4612 C   0  0  0  0  0  0  0  0  0  0  0  0
    2.6333    4.2323    5.9019 O   0  0  0  0  0  0  0  0  0  0  0  0
    1.2820    2.0945    6.2387 C   0  0  2  0  0  0  0  0  0  0  0  0
    1.0178    0.7923    5.3964 C   0  0  1  0  0  0  0  0  0  0  0  0
    0.3706   -0.2392    6.1357 O   0  0  0  0  0  0  0  0  0  0  0  0
    0.7761   -1.5504    5.9150 C   0  0  2  0  0  0  0  0  0  0  0  0
    0.5456   -1.9810    4.5976 O   0  0  0  0  0  0  0  0  0  0  0  0
    1.0125   -3.2993    4.2461 C   0  0  1  0  0  0  0  0  0  0  0  0
    2.5518   -3.3752    4.1243 C   0  0  0  0  0  0  0  0  0  0  0  0
    0.4726   -4.3349    5.2292 C   0  0  1  0  0  0  0  0  0  0  0  0
    1.2715   -4.4856    6.4171 O   0  0  0  0  0  0  0  0  0  0  0  0
   -0.0098   -3.8798    6.5754 C   0  0  2  0  0  0  0  0  0  0  0  0
   -1.0264   -4.7344    7.0834 O   0  0  0  0  0  0  0  0  0  0  0  0
   -1.0286   -4.7924    8.5070 C   0  0  0  0  0  0  0  0  0  0  0  0
   -0.1078   -2.3869    6.8432 C   0  0  1  0  0  0  0  0  0  0  0  0
    0.2352   -2.1259    8.1909 O   0  0  0  0  0  0  0  0  0  0  0  0
    0.1711    1.0253    4.0907 C   0  0  1  0  0  0  0  0  0  0  0  0
   -1.3853    0.9167    4.2028 C   0  0  0  0  0  0  0  0  0  0  0  0
   -1.9511    2.3390    4.5034 C   0  0  1  0  0  0  0  0  0  0  0  0
   -2.1977    1.7489   10.5801 H   0  0  0  0  0  0  0  0  0  0  0  0
   -2.7649    3.1754    9.7090 H   0  0  0  0  0  0  0  0  0  0  0  0
   -1.2407    3.2160   10.6147 H   0  0  0  0  0  0  0  0  0  0  0  0
   -0.0963    3.9059    8.6501 H   0  0  0  0  0  0  0  0  0  0  0  0
   -2.3365    4.4951    7.2889 H   0  0  0  0  0  0  0  0  0  0  0  0
   -3.0477    2.1380    6.4637 H   0  0  0  0  0  0  0  0  0  0  0  0
    0.1741    5.0423    7.0385 H   0  0  0  0  0  0  0  0  0  0  0  0
   -0.7576    6.1578    5.3048 H   0  0  0  0  0  0  0  0  0  0  0  0
    0.6965    5.4613    4.8324 H   0  0  0  0  0  0  0  0  0  0  0  0
   -2.0838    4.9282    3.8578 H   0  0  0  0  0  0  0  0  0  0  0  0
   -0.6148    5.1572    2.9521 H   0  0  0  0  0  0  0  0  0  0  0  0
   -1.3911    3.0514    2.6500 H   0  0  0  0  0  0  0  0  0  0  0  0
    0.4856    2.2605    2.4004 H   0  0  0  0  0  0  0  0  0  0  0  0
    2.4990    2.6571    3.2408 H   0  0  0  0  0  0  0  0  0  0  0  0
    1.7218    4.1422    3.5183 H   0  0  0  0  0  0  0  0  0  0  0  0
    4.7326    4.0457    6.2234 H   0  0  0  0  0  0  0  0  0  0  0  0
    4.2171    4.3522    4.4998 H   0  0  0  0  0  0  0  0  0  0  0  0
    1.8273    1.8193    7.1507 H   0  0  0  0  0  0  0  0  0  0  0  0
    2.0149    0.4525    5.0915 H   0  0  0  0  0  0  0  0  0  0  0  0
    1.8327   -1.6360    6.1643 H   0  0  0  0  0  0  0  0  0  0  0  0
    0.5895   -3.5372    3.2671 H   0  0  0  0  0  0  0  0  0  0  0  0
    2.9012   -4.3873    3.9089 H   0  0  0  0  0  0  0  0  0  0  0  0
    3.0875   -3.0613    5.0240 H   0  0  0  0  0  0  0  0  0  0  0  0
    2.9192   -2.7378    3.3171 H   0  0  0  0  0  0  0  0  0  0  0  0
    0.0984   -5.2742    4.8240 H   0  0  0  0  0  0  0  0  0  0  0  0
   -1.7864   -5.4536    8.8441 H   0  0  0  0  0  0  0  0  0  0  0  0
   -1.3345   -3.8422    8.9419 H   0  0  0  0  0  0  0  0  0  0  0  0
   -0.0576   -5.0906    8.9222 H   0  0  0  0  0  0  0  0  0  0  0  0
   -1.1439   -2.0856    6.6440 H   0  0  0  0  0  0  0  0  0  0  0  0
    1.1677   -2.2754    8.3160 H   0  0  0  0  0  0  0  0  0  0  0  0
    0.5000    0.2696    3.3842 H   0  0  0  0  0  0  0  0  0  0  0  0
   -1.7654    0.6038    3.2271 H   0  0  0  0  0  0  0  0  0  0  0  0
   -1.7357    0.1608    4.9079 H   0  0  0  0  0  0  0  0  0  0  0  0
   -2.9425    2.4281    4.0510 H   0  0  0  0  0  0  0  0  0  0  0  0
  1  2  1  0
  1 35  1  0
  1 36  1  0
  1 37  1  0
  2  3  1  0
  3  7  1  0
  3  4  1  0
  3 38  1  1
  4  8  1  0
  4  5  1  0
  4 39  1  1
  5 34  1  0
  5  6  1  0
  5 40  1  1
  7  6  1  6
  7 18  1  0
  7  8  1  0
  8  9  1  0
  8 41  1  1
  9 10  1  0
  9 42  1  0
  9 43  1  0
 10 11  1  0
 10 44  1  0
 10 45  1  0
 11 34  1  0
 11 12  1  0
 11 46  1  6
 12 32  1  0
 12 13  1  0
 12 47  1  6
 13 14  1  0
 13 48  1  0
 13 49  1  0
 14 17  1  0
 14 15  1  0
 14 18  1  0
 15 16  1  0
 16 17  1  0
 16 50  1  0
 16 51  1  0
 18 19  1  0
 18 52  1  1
 19 20  1  0
 19 32  1  0
 19 53  1  6
 20 21  1  0
 21 30  1  0
 21 22  1  0
 21 54  1  1
 22 23  1  0
 23 24  1  0
 23 25  1  0
 23 55  1  6
 24 56  1  0
 24 57  1  0
 24 58  1  0
 25 27  1  0
 25 26  1  0
 25 59  1  6
 26 27  1  0
 27 28  1  1
 27 30  1  0
 28 29  1  0
 29 60  1  0
 29 61  1  0
 29 62  1  0
 30 31  1  0
 30 63  1  1
 31 64  1  0
 32 33  1  0
 32 65  1  6
 33 34  1  0
 33 66  1  0
 33 67  1  0
 34 68  1  6
M  END
>  <i_m_ct_stereo_status>  (395) 
1

>  <s_m_source_file>  (395) 
/var/tmp/pbs.5076255.sched01/tmpu61_44ix/12937f0afz8.sdf

>  <i_m_source_file_index>  (395) 
38

>  <i_lp_mmshare_version>  (395) 
48012

>  <i_f3d_flags>  (395) 
0

>  <s_epik_input>  (395) 
W0NIM11PW0NAQEhdMVtDQEBIXShbQ0BIXTJbQ0BAXTEzNClbQ0BIXShPMylbQ0BIXTVbQ0BASF0oW0NIMl1bQ0gyXTIpW0NAQEhdNltDQEhdKFtDSDJdNSlbQ0BASF0oW0NASF00QzcoW0NIMl02KU9bQ0gyXU83KU9bQ0BASF0oW0NAQEhdOFtPSF0pT1tDQEBIXShbQ0gzXSlbQ0BASF0oTzkpW0NAXTg5T1tDSDNd

>  <s_epik_cmdline>  (395) 
J2VwaWtfcHl0aG9uJywgJy1waHQnLCAnMi4wJywgJy1waCcsICc3LjAnLCAnLXRuJywgJzgnLCAnLW1hJywgJzIwMCcsICctaW1hZScsICc8aW5maWxlLm1hZT4nLCAnLW9tYWUnLCAnPG91dGZpbGUubWFlPic=

>  <r_lp_tautomer_probability>  (395) 
1

>  <r_epik_Ionization_Penalty>  (395) 
7.72993e-05

>  <r_epik_Ionization_Penalty_Charging>  (395) 
0

>  <r_epik_Ionization_Penalty_Neutral>  (395) 
7.72993e-05

>  <r_epik_State_Penalty>  (395) 
-0

>  <r_epik_Charging_Adjusted_Penalty>  (395) 
0

>  <i_epik_Tot_Q>  (395) 
0

>  <i_epik_Tot_abs_Q>  (395) 
0

>  <s_epik_Chemistry_Notes>  (395) 
This compound contains an acetal/aminal-like group ( X-CH(R)-Y where X, Y are N, S, or O) that may be acid/base labile, releasing an aldehyde.

>  <s_lp_Force_Field>  (395) 
OPLS3e

>  <r_lp_Energy>  (395) 
138.688

>  <b_lp_Chiralities_Consistent>  (395) 
1

>  <s_lp_Variant>  (395) 
118:0-1

>  <s_i_glide_gridfile>  (395) 
pfpi4k_grid

>  <i_i_glide_lignum>  (395) 
38

>  <i_i_glide_rotatable_bonds>  (395) 
5

>  <r_i_docking_score>  (395) 
-1.61207

>  <r_i_glide_ligand_efficiency>  (395) 
-0.0474138

>  <r_i_glide_ligand_efficiency_sa>  (395) 
-0.153602

>  <r_i_glide_ligand_efficiency_ln>  (395) 
-0.356152

>  <r_i_glide_gscore>  (395) 
-1.61207

>  <r_i_glide_lipo>  (395) 
-0.147387

>  <r_i_glide_hbond>  (395) 
0

>  <r_i_glide_metal>  (395) 
-0

>  <r_i_glide_rewards>  (395) 
-0.146372

>  <r_i_glide_evdw>  (395) 
-20.3792

>  <r_i_glide_ecoul>  (395) 
-3.04496

>  <r_i_glide_erotb>  (395) 
0.176994

>  <r_i_glide_esite>  (395) 
-0.0195993

>  <r_i_glide_emodel>  (395) 
-22.9883

>  <r_i_glide_energy>  (395) 
-23.4242

>  <r_i_glide_einternal>  (395) 
2.3595

>  <r_i_glide_intrahb_reward>  (395) 
-0

>  <i_i_glide_confnum>  (395) 
4

>  <i_i_glide_posenum>  (395) 
16

>  <r_i_glide_eff_state_penalty>  (395) 
0

>  <ligand_id>  (395) 
118

>  <original_smiles>  (395) 
COC1C2C3OC14C2CCC1C2CC5(OCO5)C4C(OC4OC(C)C5OC5(OC)C4O)C2CC13

>  <smiles>  (395) 
[H]OC1([H])C([H])(OC2([H])C3([H])C([H])([H])C4([H])C5([H])OC67C([H])(OC([H])([H])[H])C5([H])C6([H])C([H])([H])C([H])([H])C4([H])C3([H])C([H])([H])C3(OC([H])([H])O3)C27[H])OC([H])(C([H])([H])[H])C2([H])OC12OC([H])([H])[H]

$$$$
118:0:2
     RDKit          3D

 68 76  0  0  1  0  0  0  0  0999 V2000
    0.6220   -1.7516    7.0812 C   0  0  0  0  0  0  0  0  0  0  0  0
   -0.5737   -1.0604    6.7827 O   0  0  0  0  0  0  0  0  0  0  0  0
   -0.4666    0.3568    6.9516 C   0  0  2  0  0  0  0  0  0  0  0  0
   -1.5686    1.1925    6.1987 C   0  0  2  0  0  0  0  0  0  0  0  0
   -1.5958    0.8103    4.7013 C   0  0  2  0  0  0  0  0  0  0  0  0
   -0.3229    0.3635    4.8825 O   0  0  0  0  0  0  0  0  0  0  0  0
    0.2615    1.1744    5.8697 C   0  0  1  0  0  0  0  0  0  0  0  0
   -0.6357    2.3386    6.5003 C   0  0  1  0  0  0  0  0  0  0  0  0
   -0.9342    3.7749    6.0725 C   0  0  0  0  0  0  0  0  0  0  0  0
   -1.3166    4.0365    4.6339 C   0  0  0  0  0  0  0  0  0  0  0  0
   -0.6474    3.1365    3.6228 C   0  0  1  0  0  0  0  0  0  0  0  0
    0.9082    3.1255    3.4512 C   0  0  1  0  0  0  0  0  0  0  0  0
    1.8583    3.6836    4.5475 C   0  0  0  0  0  0  0  0  0  0  0  0
    2.2323    2.6907    5.6782 C   0  0  0  0  0  0  0  0  0  0  0  0
    3.6627    2.6971    5.8408 O   0  0  0  0  0  0  0  0  0  0  0  0
    3.4937    2.7917    7.2590 C   0  0  0  0  0  0  0  0  0  0  0  0
    2.1498    3.2326    7.0195 O   0  0  0  0  0  0  0  0  0  0  0  0
    1.7348    1.2561    5.4815 C   0  0  2  0  0  0  0  0  0  0  0  0
    2.0504    0.8868    3.9998 C   0  0  1  0  0  0  0  0  0  0  0  0
    1.8544   -0.4985    3.7743 O   0  0  0  0  0  0  0  0  0  0  0  0
    2.6917   -1.1376    2.8791 C   0  0  2  0  0  0  0  0  0  0  0  0
    2.6043   -0.6031    1.5665 O   0  0  0  0  0  0  0  0  0  0  0  0
    3.4709   -1.1081    0.5536 C   0  0  1  0  0  0  0  0  0  0  0  0
    4.9205   -0.6003    0.7244 C   0  0  0  0  0  0  0  0  0  0  0  0
    3.3463   -2.6065    0.4685 C   0  0  1  0  0  0  0  0  0  0  0  0
    4.2297   -3.2504    1.4278 O   0  0  0  0  0  0  0  0  0  0  0  0
    2.8024   -3.3762    1.6694 C   0  0  2  0  0  0  0  0  0  0  0  0
    2.2778   -4.6146    1.2247 O   0  0  0  0  0  0  0  0  0  0  0  0
    2.5598   -5.6901    2.1209 C   0  0  0  0  0  0  0  0  0  0  0  0
    2.2133   -2.6071    2.8382 C   0  0  1  0  0  0  0  0  0  0  0  0
    2.5306   -3.2927    4.0536 O   0  0  0  0  0  0  0  0  0  0  0  0
    1.2254    1.7065    2.9527 C   0  0  1  0  0  0  0  0  0  0  0  0
   -0.1583    1.1186    2.5320 C   0  0  0  0  0  0  0  0  0  0  0  0
   -1.2502    1.7320    3.4575 C   0  0  1  0  0  0  0  0  0  0  0  0
    0.4808   -2.8200    6.9267 H   0  0  0  0  0  0  0  0  0  0  0  0
    0.9196   -1.5934    8.1188 H   0  0  0  0  0  0  0  0  0  0  0  0
    1.4393   -1.4482    6.4288 H   0  0  0  0  0  0  0  0  0  0  0  0
   -0.3092    0.5856    8.0128 H   0  0  0  0  0  0  0  0  0  0  0  0
   -2.5182    1.2702    6.7222 H   0  0  0  0  0  0  0  0  0  0  0  0
   -2.2482   -0.0290    4.4637 H   0  0  0  0  0  0  0  0  0  0  0  0
   -0.4630    2.4926    7.5710 H   0  0  0  0  0  0  0  0  0  0  0  0
   -1.7460    4.1648    6.6928 H   0  0  0  0  0  0  0  0  0  0  0  0
   -0.0987    4.4085    6.3600 H   0  0  0  0  0  0  0  0  0  0  0  0
   -2.3973    3.9173    4.5171 H   0  0  0  0  0  0  0  0  0  0  0  0
   -1.0886    5.0730    4.3901 H   0  0  0  0  0  0  0  0  0  0  0  0
   -0.9659    3.5968    2.6938 H   0  0  0  0  0  0  0  0  0  0  0  0
    1.0987    3.7676    2.5982 H   0  0  0  0  0  0  0  0  0  0  0  0
    2.7830    3.9923    4.0441 H   0  0  0  0  0  0  0  0  0  0  0  0
    1.4665    4.6231    4.9356 H   0  0  0  0  0  0  0  0  0  0  0  0
    3.5354    1.8285    7.7431 H   0  0  0  0  0  0  0  0  0  0  0  0
    4.1406    3.5484    7.6934 H   0  0  0  0  0  0  0  0  0  0  0  0
    2.2936    0.5518    6.1059 H   0  0  0  0  0  0  0  0  0  0  0  0
    3.1048    1.1526    3.8742 H   0  0  0  0  0  0  0  0  0  0  0  0
    3.7146   -1.0483    3.2391 H   0  0  0  0  0  0  0  0  0  0  0  0
    3.0623   -0.7093   -0.3836 H   0  0  0  0  0  0  0  0  0  0  0  0
    5.5859   -1.0251   -0.0221 H   0  0  0  0  0  0  0  0  0  0  0  0
    5.3636   -0.8374    1.6878 H   0  0  0  0  0  0  0  0  0  0  0  0
    4.9714    0.4805    0.6244 H   0  0  0  0  0  0  0  0  0  0  0  0
    3.3571   -3.0905   -0.4893 H   0  0  0  0  0  0  0  0  0  0  0  0
    2.0767   -6.6010    1.7712 H   0  0  0  0  0  0  0  0  0  0  0  0
    2.1563   -5.5026    3.1136 H   0  0  0  0  0  0  0  0  0  0  0  0
    3.6359   -5.8666    2.2102 H   0  0  0  0  0  0  0  0  0  0  0  0
    1.1212   -2.5529    2.7040 H   0  0  0  0  0  0  0  0  0  0  0  0
    3.4433   -3.1586    4.2411 H   0  0  0  0  0  0  0  0  0  0  0  0
    1.8463    1.7849    2.0612 H   0  0  0  0  0  0  0  0  0  0  0  0
   -0.3499    1.4489    1.5096 H   0  0  0  0  0  0  0  0  0  0  0  0
   -0.1817    0.0293    2.4964 H   0  0  0  0  0  0  0  0  0  0  0  0
   -2.1782    1.8238    2.8881 H   0  0  0  0  0  0  0  0  0  0  0  0
  1  2  1  0
  1 35  1  0
  1 36  1  0
  1 37  1  0
  2  3  1  0
  3  7  1  0
  3  4  1  0
  3 38  1  1
  4  8  1  0
  4  5  1  0
  4 39  1  1
  5 34  1  0
  5  6  1  0
  5 40  1  6
  7  6  1  6
  7 18  1  0
  7  8  1  0
  8  9  1  0
  8 41  1  1
  9 10  1  0
  9 42  1  0
  9 43  1  0
 10 11  1  0
 10 44  1  0
 10 45  1  0
 11 34  1  0
 11 12  1  0
 11 46  1  6
 12 32  1  0
 12 13  1  0
 12 47  1  6
 13 14  1  0
 13 48  1  0
 13 49  1  0
 14 17  1  0
 14 15  1  0
 14 18  1  0
 15 16  1  0
 16 17  1  0
 16 50  1  0
 16 51  1  0
 18 19  1  0
 18 52  1  1
 19 20  1  0
 19 32  1  0
 19 53  1  6
 20 21  1  0
 21 30  1  0
 21 22  1  0
 21 54  1  1
 22 23  1  0
 23 24  1  0
 23 25  1  0
 23 55  1  6
 24 56  1  0
 24 57  1  0
 24 58  1  0
 25 27  1  0
 25 26  1  0
 25 59  1  6
 26 27  1  0
 27 28  1  6
 27 30  1  0
 28 29  1  0
 29 60  1  0
 29 61  1  0
 29 62  1  0
 30 31  1  0
 30 63  1  6
 31 64  1  0
 32 33  1  0
 32 65  1  6
 33 34  1  0
 33 66  1  0
 33 67  1  0
 34 68  1  6
M  END
>  <i_m_ct_stereo_status>  (396) 
1

>  <s_m_source_file>  (396) 
/var/tmp/pbs.5076255.sched01/tmpu61_44ix/12937f0afz8.sdf

>  <i_m_source_file_index>  (396) 
38

>  <i_lp_mmshare_version>  (396) 
48012

>  <i_f3d_flags>  (396) 
0

>  <s_epik_input>  (396) 
W0NIM11PW0NAQEhdMVtDQEBIXShbQ0BIXTJbQ0BAXTEzNClbQ0BIXShPMylbQ0BIXTVbQ0BASF0oW0NIMl1bQ0gyXTIpW0NAQEhdNltDQEhdKFtDSDJdNSlbQ0BASF0oW0NASF00QzcoW0NIMl02KU9bQ0gyXU83KU9bQ0BASF0oW0NAQEhdOFtPSF0pT1tDQEBIXShbQ0gzXSlbQ0BASF0oTzkpW0NAXTg5T1tDSDNd

>  <s_epik_cmdline>  (396) 
J2VwaWtfcHl0aG9uJywgJy1waHQnLCAnMi4wJywgJy1waCcsICc3LjAnLCAnLXRuJywgJzgnLCAnLW1hJywgJzIwMCcsICctaW1hZScsICc8aW5maWxlLm1hZT4nLCAnLW9tYWUnLCAnPG91dGZpbGUubWFlPic=

>  <r_lp_tautomer_probability>  (396) 
1

>  <r_epik_Ionization_Penalty>  (396) 
7.72993e-05

>  <r_epik_Ionization_Penalty_Charging>  (396) 
0

>  <r_epik_Ionization_Penalty_Neutral>  (396) 
7.72993e-05

>  <r_epik_State_Penalty>  (396) 
-0

>  <r_epik_Charging_Adjusted_Penalty>  (396) 
0

>  <i_epik_Tot_Q>  (396) 
0

>  <i_epik_Tot_abs_Q>  (396) 
0

>  <s_epik_Chemistry_Notes>  (396) 
This compound contains an acetal/aminal-like group ( X-CH(R)-Y where X, Y are N, S, or O) that may be acid/base labile, releasing an aldehyde.

>  <s_lp_Force_Field>  (396) 
OPLS3e

>  <r_lp_Energy>  (396) 
138.688

>  <b_lp_Chiralities_Consistent>  (396) 
1

>  <s_lp_Variant>  (396) 
118:0-1

>  <s_i_glide_gridfile>  (396) 
pfpi4k_grid

>  <i_i_glide_lignum>  (396) 
38

>  <i_i_glide_rotatable_bonds>  (396) 
5

>  <r_i_docking_score>  (396) 
-1.49155

>  <r_i_glide_ligand_efficiency>  (396) 
-0.043869

>  <r_i_glide_ligand_efficiency_sa>  (396) 
-0.142118

>  <r_i_glide_ligand_efficiency_ln>  (396) 
-0.329524

>  <r_i_glide_gscore>  (396) 
-1.49155

>  <r_i_glide_lipo>  (396) 
-0.143524

>  <r_i_glide_hbond>  (396) 
-0.0170952

>  <r_i_glide_metal>  (396) 
-0

>  <r_i_glide_rewards>  (396) 
-0.146372

>  <r_i_glide_evdw>  (396) 
-20.6474

>  <r_i_glide_ecoul>  (396) 
-2.12196

>  <r_i_glide_erotb>  (396) 
0.176994

>  <r_i_glide_esite>  (396) 
-0.0108814

>  <r_i_glide_emodel>  (396) 
-22.9395

>  <r_i_glide_energy>  (396) 
-22.7694

>  <r_i_glide_einternal>  (396) 
2.0289

>  <r_i_glide_intrahb_reward>  (396) 
-0

>  <i_i_glide_confnum>  (396) 
2

>  <i_i_glide_posenum>  (396) 
2

>  <r_i_glide_eff_state_penalty>  (396) 
0

>  <ligand_id>  (396) 
118

>  <original_smiles>  (396) 
COC1C2C3OC14C2CCC1C2CC5(OCO5)C4C(OC4OC(C)C5OC5(OC)C4O)C2CC13

>  <smiles>  (396) 
[H]OC1([H])C([H])(OC2([H])C3([H])C([H])([H])C4([H])C5([H])OC67C([H])(OC([H])([H])[H])C5([H])C6([H])C([H])([H])C([H])([H])C4([H])C3([H])C([H])([H])C3(OC([H])([H])O3)C27[H])OC([H])(C([H])([H])[H])C2([H])OC12OC([H])([H])[H]

$$$$
119:0:0
     RDKit          3D

 33 37  0  0  1  0  0  0  0  0999 V2000
    4.2443   -1.5577    2.2524 C   0  0  0  0  0  0  0  0  0  0  0  0
    4.8758   -1.3023    0.8673 C   0  0  2  0  0  0  0  0  0  0  0  0
    3.8410   -1.4667   -0.2942 C   0  0  1  0  0  0  0  0  0  0  0  0
    4.4623   -1.0848   -1.6788 C   0  0  0  0  0  0  0  0  0  0  0  0
    5.0682   -2.3229   -2.4523 C   0  0  2  0  0  0  0  0  0  0  0  0
    3.8579   -3.2078   -2.8474 C   0  0  0  0  0  0  0  0  0  0  0  0
    2.7469   -3.2400   -1.7576 C   0  0  0  0  0  0  0  0  0  0  0  0
    3.3225   -2.9437   -0.3584 C   0  0  1  0  0  0  0  0  0  0  0  0
    4.4824   -3.8994   -0.1528 C   0  0  0  0  0  0  0  0  0  0  0  0
    5.6828   -3.3377   -0.2493 C   0  0  0  0  0  0  0  0  0  0  0  0
    6.2154   -3.1095   -1.6497 C   0  0  1  0  0  0  0  0  0  0  0  0
    7.7107   -2.9244   -1.2674 C   0  0  0  0  0  0  0  0  0  0  0  0
    7.6079   -2.2253    0.0907 C   0  0  1  0  0  0  0  0  0  0  0  0
    6.9473   -1.0588    0.0770 O   0  0  0  0  0  0  0  0  0  0  0  0
    6.1256   -2.1747    0.6032 C   0  0  2  0  0  0  0  0  0  0  0  0
    3.9007   -2.5823    2.4054 H   0  0  0  0  0  0  0  0  0  0  0  0
    3.3882   -0.8982    2.3862 H   0  0  0  0  0  0  0  0  0  0  0  0
    4.9496   -1.3144    3.0466 H   0  0  0  0  0  0  0  0  0  0  0  0
    5.1666   -0.2538    0.8962 H   0  0  0  0  0  0  0  0  0  0  0  0
    3.0051   -0.8017   -0.1070 H   0  0  0  0  0  0  0  0  0  0  0  0
    3.6731   -0.6525   -2.2943 H   0  0  0  0  0  0  0  0  0  0  0  0
    5.1883   -0.2792   -1.5641 H   0  0  0  0  0  0  0  0  0  0  0  0
    5.4230   -1.9704   -3.4178 H   0  0  0  0  0  0  0  0  0  0  0  0
    3.4107   -2.8421   -3.7715 H   0  0  0  0  0  0  0  0  0  0  0  0
    4.2182   -4.2112   -3.0754 H   0  0  0  0  0  0  0  0  0  0  0  0
    1.9768   -2.5116   -2.0005 H   0  0  0  0  0  0  0  0  0  0  0  0
    2.2429   -4.2058   -1.7703 H   0  0  0  0  0  0  0  0  0  0  0  0
    2.5713   -3.1362    0.4012 H   0  0  0  0  0  0  0  0  0  0  0  0
    4.3049   -4.7639   -0.7885 H   0  0  0  0  0  0  0  0  0  0  0  0
    6.4868   -2.0904   -1.8544 H   0  0  0  0  0  0  0  0  0  0  0  0
    8.1913   -3.8950   -1.0973 H   0  0  0  0  0  0  0  0  0  0  0  0
    8.3723   -2.3628   -1.9440 H   0  0  0  0  0  0  0  0  0  0  0  0
    8.4340   -2.2772    0.7777 H   0  0  0  0  0  0  0  0  0  0  0  0
  1  2  1  0
  1 16  1  0
  1 17  1  0
  1 18  1  0
  2 15  1  0
  2  3  1  0
  2 19  1  1
  3  8  1  0
  3  4  1  0
  3 20  1  1
  4  5  1  0
  4 21  1  0
  4 22  1  0
  5 11  1  0
  5  6  1  0
  5 23  1  6
  6  7  1  0
  6 24  1  0
  6 25  1  0
  7  8  1  0
  7 26  1  0
  7 27  1  0
  8  9  1  0
  8 28  1  1
  9 10  2  0
  9 29  1  0
 10 15  1  0
 10 11  1  0
 11 12  1  0
 11 30  1  6
 12 13  1  0
 12 31  1  0
 12 32  1  0
 13 15  1  0
 13 14  1  0
 13 33  1  1
 15 14  1  1
M  END
>  <i_m_ct_stereo_status>  (397) 
1

>  <s_m_source_file>  (397) 
/var/tmp/pbs.5076255.sched01/tmpu61_44ix/12937f0afz8.sdf

>  <i_m_source_file_index>  (397) 
39

>  <i_lp_mmshare_version>  (397) 
48012

>  <i_f3d_flags>  (397) 
0

>  <s_epik_input>  (397) 
W0NIMl0xW0NIMl1bQ0BASF0oW0NIXT0yKVtDQEBIXShbQ0BIXTNbQ0gzXSlbQ0gyXVtDQEhdMVtDSF0oQzJbQ0BAXTM0NSlbQ0gyXVtDQEhdNE81

>  <s_epik_cmdline>  (397) 
J2VwaWtfcHl0aG9uJywgJy1waHQnLCAnMi4wJywgJy1waCcsICc3LjAnLCAnLXRuJywgJzgnLCAnLW1hJywgJzIwMCcsICctaW1hZScsICc8aW5maWxlLm1hZT4nLCAnLW9tYWUnLCAnPG91dGZpbGUubWFlPic=

>  <r_lp_tautomer_probability>  (397) 
1

>  <r_epik_Ionization_Penalty>  (397) 
4.40557e-11

>  <r_epik_Ionization_Penalty_Charging>  (397) 
0

>  <r_epik_Ionization_Penalty_Neutral>  (397) 
4.40557e-11

>  <r_epik_State_Penalty>  (397) 
-0

>  <r_epik_Charging_Adjusted_Penalty>  (397) 
0

>  <i_epik_Tot_Q>  (397) 
0

>  <i_epik_Tot_abs_Q>  (397) 
0

>  <s_lp_Force_Field>  (397) 
OPLS3e

>  <r_lp_Energy>  (397) 
181.151

>  <b_lp_Chiralities_Consistent>  (397) 
1

>  <s_lp_Variant>  (397) 
119:0-1

>  <s_i_glide_gridfile>  (397) 
pfpi4k_grid

>  <i_i_glide_lignum>  (397) 
39

>  <i_i_glide_rotatable_bonds>  (397) 
0

>  <r_i_docking_score>  (397) 
-3.8737

>  <r_i_glide_ligand_efficiency>  (397) 
-0.258247

>  <r_i_glide_ligand_efficiency_sa>  (397) 
-0.636891

>  <r_i_glide_ligand_efficiency_ln>  (397) 
-1.04467

>  <r_i_glide_gscore>  (397) 
-3.8737

>  <r_i_glide_lipo>  (397) 
-0.570832

>  <r_i_glide_hbond>  (397) 
-0.070137

>  <r_i_glide_metal>  (397) 
-0

>  <r_i_glide_rewards>  (397) 
-2.02983

>  <r_i_glide_evdw>  (397) 
-20.5823

>  <r_i_glide_ecoul>  (397) 
-1.15861

>  <r_i_glide_erotb>  (397) 
0

>  <r_i_glide_esite>  (397) 
0

>  <r_i_glide_emodel>  (397) 
-27.1987

>  <r_i_glide_energy>  (397) 
-21.7409

>  <r_i_glide_einternal>  (397) 
0

>  <r_i_glide_intrahb_reward>  (397) 
-0

>  <i_i_glide_confnum>  (397) 
2

>  <i_i_glide_posenum>  (397) 
17

>  <r_i_glide_eff_state_penalty>  (397) 
0

>  <ligand_id>  (397) 
119

>  <original_smiles>  (397) 
CC1C2CC3CCC2C=C2C3CC3OC231

>  <smiles>  (397) 
[H]C1=C2C3([H])C([H])([H])C4([H])OC24C([H])(C([H])([H])[H])C2([H])C([H])([H])C3([H])C([H])([H])C([H])([H])C12[H]

$$$$
119:0:1
     RDKit          3D

 33 37  0  0  1  0  0  0  0  0999 V2000
    5.3512   -0.8457    2.2424 C   0  0  0  0  0  0  0  0  0  0  0  0
    5.8664   -1.8690    1.2265 C   0  0  2  0  0  0  0  0  0  0  0  0
    5.6298   -1.4410   -0.2555 C   0  0  1  0  0  0  0  0  0  0  0  0
    6.2628   -2.4497   -1.2738 C   0  0  0  0  0  0  0  0  0  0  0  0
    5.2547   -3.5629   -1.7627 C   0  0  2  0  0  0  0  0  0  0  0  0
    4.1934   -2.8218   -2.6189 C   0  0  0  0  0  0  0  0  0  0  0  0
    3.8329   -1.4143   -2.0603 C   0  0  0  0  0  0  0  0  0  0  0  0
    4.1036   -1.3270   -0.5381 C   0  0  1  0  0  0  0  0  0  0  0  0
    3.3782   -2.4902    0.0896 C   0  0  0  0  0  0  0  0  0  0  0  0
    4.1698   -3.4706    0.5115 C   0  0  0  0  0  0  0  0  0  0  0  0
    4.6208   -4.4458   -0.5679 C   0  0  1  0  0  0  0  0  0  0  0  0
    5.0599   -5.6067    0.3815 C   0  0  0  0  0  0  0  0  0  0  0  0
    5.5866   -4.8283    1.5797 C   0  0  1  0  0  0  0  0  0  0  0  0
    6.6113   -3.9902    1.3015 O   0  0  0  0  0  0  0  0  0  0  0  0
    5.3130   -3.2846    1.4335 C   0  0  2  0  0  0  0  0  0  0  0  0
    4.2783   -0.7117    2.2265 H   0  0  0  0  0  0  0  0  0  0  0  0
    5.8039    0.1196    2.0235 H   0  0  0  0  0  0  0  0  0  0  0  0
    5.6555   -1.1110    3.2517 H   0  0  0  0  0  0  0  0  0  0  0  0
    6.9509   -1.8887    1.3846 H   0  0  0  0  0  0  0  0  0  0  0  0
    6.0831   -0.4603   -0.3997 H   0  0  0  0  0  0  0  0  0  0  0  0
    6.5942   -1.8929   -2.1493 H   0  0  0  0  0  0  0  0  0  0  0  0
    7.1783   -2.8808   -0.8671 H   0  0  0  0  0  0  0  0  0  0  0  0
    5.7771   -4.2076   -2.4856 H   0  0  0  0  0  0  0  0  0  0  0  0
    4.5562   -2.7041   -3.6408 H   0  0  0  0  0  0  0  0  0  0  0  0
    3.3008   -3.4522   -2.7001 H   0  0  0  0  0  0  0  0  0  0  0  0
    4.4125   -0.6433   -2.5752 H   0  0  0  0  0  0  0  0  0  0  0  0
    2.7830   -1.1940   -2.2928 H   0  0  0  0  0  0  0  0  0  0  0  0
    3.6847   -0.4019   -0.1419 H   0  0  0  0  0  0  0  0  0  0  0  0
    2.5563   -2.7602   -0.5615 H   0  0  0  0  0  0  0  0  0  0  0  0
    5.6951   -4.5542   -0.6490 H   0  0  0  0  0  0  0  0  0  0  0  0
    4.1891   -6.1674    0.7007 H   0  0  0  0  0  0  0  0  0  0  0  0
    5.8109   -6.3159    0.0297 H   0  0  0  0  0  0  0  0  0  0  0  0
    5.6518   -5.3080    2.5640 H   0  0  0  0  0  0  0  0  0  0  0  0
  1  2  1  0
  1 16  1  0
  1 17  1  0
  1 18  1  0
  2 15  1  0
  2  3  1  0
  2 19  1  6
  3  8  1  0
  3  4  1  0
  3 20  1  1
  4  5  1  0
  4 21  1  0
  4 22  1  0
  5 11  1  0
  5  6  1  0
  5 23  1  6
  6  7  1  0
  6 24  1  0
  6 25  1  0
  7  8  1  0
  7 26  1  0
  7 27  1  0
  8  9  1  0
  8 28  1  1
  9 10  2  0
  9 29  1  0
 10 15  1  0
 10 11  1  0
 11 12  1  0
 11 30  1  6
 12 13  1  0
 12 31  1  0
 12 32  1  0
 13 15  1  0
 13 14  1  0
 13 33  1  1
 15 14  1  1
M  END
>  <i_m_ct_stereo_status>  (398) 
1

>  <s_m_source_file>  (398) 
/var/tmp/pbs.5076255.sched01/tmpu61_44ix/12937f0afz8.sdf

>  <i_m_source_file_index>  (398) 
39

>  <i_lp_mmshare_version>  (398) 
48012

>  <i_f3d_flags>  (398) 
0

>  <s_epik_input>  (398) 
W0NIMl0xW0NIMl1bQ0BASF0oW0NIXT0yKVtDQEBIXShbQ0BIXTNbQ0gzXSlbQ0gyXVtDQEhdMVtDSF0oQzJbQ0BAXTM0NSlbQ0gyXVtDQEhdNE81

>  <s_epik_cmdline>  (398) 
J2VwaWtfcHl0aG9uJywgJy1waHQnLCAnMi4wJywgJy1waCcsICc3LjAnLCAnLXRuJywgJzgnLCAnLW1hJywgJzIwMCcsICctaW1hZScsICc8aW5maWxlLm1hZT4nLCAnLW9tYWUnLCAnPG91dGZpbGUubWFlPic=

>  <r_lp_tautomer_probability>  (398) 
1

>  <r_epik_Ionization_Penalty>  (398) 
4.40557e-11

>  <r_epik_Ionization_Penalty_Charging>  (398) 
0

>  <r_epik_Ionization_Penalty_Neutral>  (398) 
4.40557e-11

>  <r_epik_State_Penalty>  (398) 
-0

>  <r_epik_Charging_Adjusted_Penalty>  (398) 
0

>  <i_epik_Tot_Q>  (398) 
0

>  <i_epik_Tot_abs_Q>  (398) 
0

>  <s_lp_Force_Field>  (398) 
OPLS3e

>  <r_lp_Energy>  (398) 
181.151

>  <b_lp_Chiralities_Consistent>  (398) 
1

>  <s_lp_Variant>  (398) 
119:0-1

>  <s_i_glide_gridfile>  (398) 
pfpi4k_grid

>  <i_i_glide_lignum>  (398) 
39

>  <i_i_glide_rotatable_bonds>  (398) 
0

>  <r_i_docking_score>  (398) 
-3.59803

>  <r_i_glide_ligand_efficiency>  (398) 
-0.239868

>  <r_i_glide_ligand_efficiency_sa>  (398) 
-0.591566

>  <r_i_glide_ligand_efficiency_ln>  (398) 
-0.970328

>  <r_i_glide_gscore>  (398) 
-3.59803

>  <r_i_glide_lipo>  (398) 
-0.5655

>  <r_i_glide_hbond>  (398) 
0

>  <r_i_glide_metal>  (398) 
-0

>  <r_i_glide_rewards>  (398) 
-2.02983

>  <r_i_glide_evdw>  (398) 
-20.6081

>  <r_i_glide_ecoul>  (398) 
0.184705

>  <r_i_glide_erotb>  (398) 
0

>  <r_i_glide_esite>  (398) 
0

>  <r_i_glide_emodel>  (398) 
-25.4681

>  <r_i_glide_energy>  (398) 
-20.4234

>  <r_i_glide_einternal>  (398) 
0

>  <r_i_glide_intrahb_reward>  (398) 
-0

>  <i_i_glide_confnum>  (398) 
1

>  <i_i_glide_posenum>  (398) 
40

>  <r_i_glide_eff_state_penalty>  (398) 
0

>  <ligand_id>  (398) 
119

>  <original_smiles>  (398) 
CC1C2CC3CCC2C=C2C3CC3OC231

>  <smiles>  (398) 
[H]C1=C2C3([H])C([H])([H])C4([H])OC24C([H])(C([H])([H])[H])C2([H])C([H])([H])C3([H])C([H])([H])C([H])([H])C12[H]

$$$$
119:0:2
     RDKit          3D

 33 37  0  0  1  0  0  0  0  0999 V2000
    3.3527   -5.1110    0.6304 C   0  0  0  0  0  0  0  0  0  0  0  0
    4.1767   -3.8105    0.5647 C   0  0  2  0  0  0  0  0  0  0  0  0
    3.4617   -2.6917   -0.2719 C   0  0  1  0  0  0  0  0  0  0  0  0
    4.2556   -1.3521   -0.2049 C   0  0  0  0  0  0  0  0  0  0  0  0
    5.2742   -1.1781   -1.4014 C   0  0  2  0  0  0  0  0  0  0  0  0
    4.4002   -1.0031   -2.6801 C   0  0  0  0  0  0  0  0  0  0  0  0
    3.1277   -1.8971   -2.6786 C   0  0  0  0  0  0  0  0  0  0  0  0
    3.3211   -3.1269   -1.7704 C   0  0  1  0  0  0  0  0  0  0  0  0
    4.6115   -3.7982   -2.2256 C   0  0  0  0  0  0  0  0  0  0  0  0
    5.6393   -3.6328   -1.4041 C   0  0  0  0  0  0  0  0  0  0  0  0
    6.3848   -2.3204   -1.5207 C   0  0  1  0  0  0  0  0  0  0  0  0
    7.6886   -2.7704   -0.7897 C   0  0  0  0  0  0  0  0  0  0  0  0
    7.1479   -3.7394    0.2622 C   0  0  1  0  0  0  0  0  0  0  0  0
    6.2605   -3.1919    1.1165 O   0  0  0  0  0  0  0  0  0  0  0  0
    5.6280   -4.0284    0.0541 C   0  0  2  0  0  0  0  0  0  0  0  0
    3.2314   -5.6130   -0.3268 H   0  0  0  0  0  0  0  0  0  0  0  0
    2.3557   -4.8959    1.0108 H   0  0  0  0  0  0  0  0  0  0  0  0
    3.8104   -5.8296    1.3122 H   0  0  0  0  0  0  0  0  0  0  0  0
    4.2056   -3.4745    1.6018 H   0  0  0  0  0  0  0  0  0  0  0  0
    2.4676   -2.5233    0.1454 H   0  0  0  0  0  0  0  0  0  0  0  0
    3.5330   -0.5405   -0.2392 H   0  0  0  0  0  0  0  0  0  0  0  0
    4.7458   -1.2304    0.7610 H   0  0  0  0  0  0  0  0  0  0  0  0
    5.7671   -0.2187   -1.2850 H   0  0  0  0  0  0  0  0  0  0  0  0
    4.0794    0.0380   -2.7746 H   0  0  0  0  0  0  0  0  0  0  0  0
    5.0140   -1.2056   -3.5619 H   0  0  0  0  0  0  0  0  0  0  0  0
    2.2755   -1.3260   -2.3239 H   0  0  0  0  0  0  0  0  0  0  0  0
    2.8839   -2.1912   -3.7012 H   0  0  0  0  0  0  0  0  0  0  0  0
    2.5030   -3.8248   -1.9094 H   0  0  0  0  0  0  0  0  0  0  0  0
    4.7745   -3.5297   -3.2624 H   0  0  0  0  0  0  0  0  0  0  0  0
    6.4546   -1.7906   -0.5867 H   0  0  0  0  0  0  0  0  0  0  0  0
    8.3260   -3.3256   -1.4907 H   0  0  0  0  0  0  0  0  0  0  0  0
    8.3246   -1.9970   -0.3260 H   0  0  0  0  0  0  0  0  0  0  0  0
    7.8084   -4.4858    0.6834 H   0  0  0  0  0  0  0  0  0  0  0  0
  1  2  1  0
  1 16  1  0
  1 17  1  0
  1 18  1  0
  2 15  1  0
  2  3  1  0
  2 19  1  1
  3  8  1  0
  3  4  1  0
  3 20  1  1
  4  5  1  0
  4 21  1  0
  4 22  1  0
  5 11  1  0
  5  6  1  0
  5 23  1  1
  6  7  1  0
  6 24  1  0
  6 25  1  0
  7  8  1  0
  7 26  1  0
  7 27  1  0
  8  9  1  0
  8 28  1  1
  9 10  2  0
  9 29  1  0
 10 15  1  0
 10 11  1  0
 11 12  1  0
 11 30  1  6
 12 13  1  0
 12 31  1  0
 12 32  1  0
 13 15  1  0
 13 14  1  0
 13 33  1  1
 15 14  1  6
M  END
>  <i_m_ct_stereo_status>  (399) 
1

>  <s_m_source_file>  (399) 
/var/tmp/pbs.5076255.sched01/tmpu61_44ix/12937f0afz8.sdf

>  <i_m_source_file_index>  (399) 
39

>  <i_lp_mmshare_version>  (399) 
48012

>  <i_f3d_flags>  (399) 
0

>  <s_epik_input>  (399) 
W0NIMl0xW0NIMl1bQ0BASF0oW0NIXT0yKVtDQEBIXShbQ0BIXTNbQ0gzXSlbQ0gyXVtDQEhdMVtDSF0oQzJbQ0BAXTM0NSlbQ0gyXVtDQEhdNE81

>  <s_epik_cmdline>  (399) 
J2VwaWtfcHl0aG9uJywgJy1waHQnLCAnMi4wJywgJy1waCcsICc3LjAnLCAnLXRuJywgJzgnLCAnLW1hJywgJzIwMCcsICctaW1hZScsICc8aW5maWxlLm1hZT4nLCAnLW9tYWUnLCAnPG91dGZpbGUubWFlPic=

>  <r_lp_tautomer_probability>  (399) 
1

>  <r_epik_Ionization_Penalty>  (399) 
4.40557e-11

>  <r_epik_Ionization_Penalty_Charging>  (399) 
0

>  <r_epik_Ionization_Penalty_Neutral>  (399) 
4.40557e-11

>  <r_epik_State_Penalty>  (399) 
-0

>  <r_epik_Charging_Adjusted_Penalty>  (399) 
0

>  <i_epik_Tot_Q>  (399) 
0

>  <i_epik_Tot_abs_Q>  (399) 
0

>  <s_lp_Force_Field>  (399) 
OPLS3e

>  <r_lp_Energy>  (399) 
181.151

>  <b_lp_Chiralities_Consistent>  (399) 
1

>  <s_lp_Variant>  (399) 
119:0-1

>  <s_i_glide_gridfile>  (399) 
pfpi4k_grid

>  <i_i_glide_lignum>  (399) 
39

>  <i_i_glide_rotatable_bonds>  (399) 
0

>  <r_i_docking_score>  (399) 
-3.36393

>  <r_i_glide_ligand_efficiency>  (399) 
-0.224262

>  <r_i_glide_ligand_efficiency_sa>  (399) 
-0.553077

>  <r_i_glide_ligand_efficiency_ln>  (399) 
-0.907196

>  <r_i_glide_gscore>  (399) 
-3.36393

>  <r_i_glide_lipo>  (399) 
-0.303277

>  <r_i_glide_hbond>  (399) 
0

>  <r_i_glide_metal>  (399) 
-0

>  <r_i_glide_rewards>  (399) 
-2.02983

>  <r_i_glide_evdw>  (399) 
-20.257

>  <r_i_glide_ecoul>  (399) 
-0.119836

>  <r_i_glide_erotb>  (399) 
0

>  <r_i_glide_esite>  (399) 
0

>  <r_i_glide_emodel>  (399) 
-25.0548

>  <r_i_glide_energy>  (399) 
-20.3768

>  <r_i_glide_einternal>  (399) 
0

>  <r_i_glide_intrahb_reward>  (399) 
-0

>  <i_i_glide_confnum>  (399) 
1

>  <i_i_glide_posenum>  (399) 
12

>  <r_i_glide_eff_state_penalty>  (399) 
0

>  <ligand_id>  (399) 
119

>  <original_smiles>  (399) 
CC1C2CC3CCC2C=C2C3CC3OC231

>  <smiles>  (399) 
[H]C1=C2C3([H])C([H])([H])C4([H])OC24C([H])(C([H])([H])[H])C2([H])C([H])([H])C3([H])C([H])([H])C([H])([H])C12[H]

$$$$
120:0:0
     RDKit          3D

 46 49  0  0  1  0  0  0  0  0999 V2000
    4.2470   -8.2888    0.8855 C   0  0  0  0  0  0  0  0  0  0  0  0
    4.5490   -7.1206    1.6281 O   0  0  0  0  0  0  0  0  0  0  0  0
    3.7363   -6.0520    1.5592 C   0  0  0  0  0  0  0  0  0  0  0  0
    2.7111   -5.9768    0.8863 O   0  0  0  0  0  0  0  0  0  0  0  0
    4.2607   -4.8808    2.4254 C   0  0  2  0  0  0  0  0  0  0  0  0
    3.0738   -4.1519    3.0469 C   0  0  0  0  0  0  0  0  0  0  0  0
    2.6765   -4.4098    4.1880 O   0  0  0  0  0  0  0  0  0  0  0  0
    2.3846   -3.1071    2.1797 C   0  0  0  0  0  0  0  0  0  0  0  0
    3.3965   -2.0943    1.6503 C   0  0  0  0  0  0  0  0  0  0  0  0
    2.9375   -0.6657    1.4044 C   0  0  0  0  0  0  0  0  0  0  0  0
    3.7188   -0.9912    2.6436 C   0  0  0  0  0  0  0  0  0  0  0  0
    4.4673   -2.8194    0.7916 C   0  0  2  0  0  0  0  0  0  0  0  0
    5.2137   -3.8786    1.6838 C   0  0  2  0  0  0  0  0  0  0  0  0
    6.3360   -4.6343    0.9288 C   0  0  0  0  0  0  0  0  0  0  0  0
    7.2777   -3.7013    0.1794 C   0  0  0  0  0  0  0  0  0  0  0  0
    6.5118   -2.7925   -0.7944 C   0  0  1  0  0  0  0  0  0  0  0  0
    5.8356   -3.4650   -1.9873 C   0  0  0  0  0  0  0  0  0  0  0  0
    4.8215   -2.4351   -2.4155 C   0  0  0  0  0  0  0  0  0  0  0  0
    4.2220   -2.4489   -3.4935 O   0  0  0  0  0  0  0  0  0  0  0  0
    4.6642   -1.3700   -1.3458 C   0  0  0  0  0  0  0  0  0  0  0  0
    5.4230   -1.9255   -0.1084 C   0  0  1  0  0  0  0  0  0  0  0  0
    6.1764   -0.7887    0.6423 C   0  0  0  0  0  0  0  0  0  0  0  0
    5.0151   -9.0435    1.0659 H   0  0  0  0  0  0  0  0  0  0  0  0
    4.2154   -8.0795   -0.1844 H   0  0  0  0  0  0  0  0  0  0  0  0
    3.2818   -8.7060    1.1889 H   0  0  0  0  0  0  0  0  0  0  0  0
    4.8212   -5.3393    3.2457 H   0  0  0  0  0  0  0  0  0  0  0  0
    1.8762   -3.5963    1.3533 H   0  0  0  0  0  0  0  0  0  0  0  0
    1.6454   -2.5819    2.7743 H   0  0  0  0  0  0  0  0  0  0  0  0
    3.4105   -0.0657    0.6323 H   0  0  0  0  0  0  0  0  0  0  0  0
    1.8666   -0.4731    1.5111 H   0  0  0  0  0  0  0  0  0  0  0  0
    3.1635   -0.9636    3.5807 H   0  0  0  0  0  0  0  0  0  0  0  0
    4.7685   -0.7083    2.7436 H   0  0  0  0  0  0  0  0  0  0  0  0
    3.8974   -3.4370    0.0871 H   0  0  0  0  0  0  0  0  0  0  0  0
    5.7144   -3.3052    2.4713 H   0  0  0  0  0  0  0  0  0  0  0  0
    6.9080   -5.2319    1.6380 H   0  0  0  0  0  0  0  0  0  0  0  0
    5.9134   -5.3261    0.2102 H   0  0  0  0  0  0  0  0  0  0  0  0
    7.8294   -3.0951    0.8917 H   0  0  0  0  0  0  0  0  0  0  0  0
    8.0255   -4.2864   -0.3640 H   0  0  0  0  0  0  0  0  0  0  0  0
    7.2688   -2.1433   -1.2323 H   0  0  0  0  0  0  0  0  0  0  0  0
    6.5316   -3.7022   -2.7937 H   0  0  0  0  0  0  0  0  0  0  0  0
    5.3043   -4.3736   -1.7022 H   0  0  0  0  0  0  0  0  0  0  0  0
    5.1262   -0.4535   -1.7142 H   0  0  0  0  0  0  0  0  0  0  0  0
    3.6008   -1.1825   -1.1843 H   0  0  0  0  0  0  0  0  0  0  0  0
    7.0134   -0.3949    0.0600 H   0  0  0  0  0  0  0  0  0  0  0  0
    6.6272   -1.1397    1.5698 H   0  0  0  0  0  0  0  0  0  0  0  0
    5.5624    0.0795    0.8427 H   0  0  0  0  0  0  0  0  0  0  0  0
  1  2  1  0
  1 23  1  0
  1 24  1  0
  1 25  1  0
  2  3  1  0
  3  4  2  0
  3  5  1  0
  5 13  1  0
  5  6  1  0
  5 26  1  1
  6  7  2  0
  6  8  1  0
  8  9  1  0
  8 27  1  0
  8 28  1  0
  9 11  1  0
  9 10  1  0
  9 12  1  0
 10 11  1  0
 10 29  1  0
 10 30  1  0
 11 31  1  0
 11 32  1  0
 12 21  1  0
 12 13  1  0
 12 33  1  6
 13 14  1  0
 13 34  1  1
 14 15  1  0
 14 35  1  0
 14 36  1  0
 15 16  1  0
 15 37  1  0
 15 38  1  0
 16 21  1  0
 16 17  1  0
 16 39  1  6
 17 18  1  0
 17 40  1  0
 17 41  1  0
 18 19  2  0
 18 20  1  0
 20 21  1  0
 20 42  1  0
 20 43  1  0
 21 22  1  1
 22 44  1  0
 22 45  1  0
 22 46  1  0
M  END
>  <i_m_ct_stereo_status>  (400) 
1

>  <s_m_source_file>  (400) 
/var/tmp/pbs.5076255.sched01/tmpu61_44ix/12937f0afz8.sdf

>  <i_m_source_file_index>  (400) 
40

>  <i_lp_mmshare_version>  (400) 
48012

>  <i_f3d_flags>  (400) 
0

>  <s_epik_input>  (400) 
W0NIM11PQyg9TylbQ0BIXShDKD1PKVtDSDJdMSlbQ0BIXShbQ0BIXTJDMTNbQ0gyXVtDSDJdMylbQ0gyXVtDSDJdW0NAQEhdNFtDQEBdMihbQ0gzXSlbQ0gyXUMoPU8pW0NIMl00

>  <s_epik_cmdline>  (400) 
J2VwaWtfcHl0aG9uJywgJy1waHQnLCAnMi4wJywgJy1waCcsICc3LjAnLCAnLXRuJywgJzgnLCAnLW1hJywgJzIwMCcsICctaW1hZScsICc8aW5maWxlLm1hZT4nLCAnLW9tYWUnLCAnPG91dGZpbGUubWFlPic=

>  <r_lp_tautomer_probability>  (400) 
1

>  <r_epik_Ionization_Penalty>  (400) 
2.71141e-07

>  <r_epik_Ionization_Penalty_Charging>  (400) 
0

>  <r_epik_Ionization_Penalty_Neutral>  (400) 
2.71141e-07

>  <r_epik_State_Penalty>  (400) 
-0

>  <r_epik_Charging_Adjusted_Penalty>  (400) 
0

>  <i_epik_Tot_Q>  (400) 
0

>  <i_epik_Tot_abs_Q>  (400) 
0

>  <s_epik_Chemistry_Notes>  (400) 
This compound has an ester and may undergo hydrolysis at high or low pH.

>  <s_lp_Force_Field>  (400) 
OPLS3e

>  <r_lp_Energy>  (400) 
14.3303

>  <b_lp_Chiralities_Consistent>  (400) 
1

>  <s_lp_Variant>  (400) 
120:0-1

>  <s_i_glide_gridfile>  (400) 
pfpi4k_grid

>  <i_i_glide_lignum>  (400) 
40

>  <i_i_glide_rotatable_bonds>  (400) 
2

>  <r_i_docking_score>  (400) 
-3.45827

>  <r_i_glide_ligand_efficiency>  (400) 
-0.157194

>  <r_i_glide_ligand_efficiency_sa>  (400) 
-0.440464

>  <r_i_glide_ligand_efficiency_ln>  (400) 
-0.845327

>  <r_i_glide_gscore>  (400) 
-3.45827

>  <r_i_glide_lipo>  (400) 
-0.584386

>  <r_i_glide_hbond>  (400) 
0

>  <r_i_glide_metal>  (400) 
-0

>  <r_i_glide_rewards>  (400) 
-1.54174

>  <r_i_glide_evdw>  (400) 
-27.3695

>  <r_i_glide_ecoul>  (400) 
-1.08393

>  <r_i_glide_erotb>  (400) 
0.199048

>  <r_i_glide_esite>  (400) 
-0.000130241

>  <r_i_glide_emodel>  (400) 
-34.0032

>  <r_i_glide_energy>  (400) 
-28.4534

>  <r_i_glide_einternal>  (400) 
0.816896

>  <r_i_glide_intrahb_reward>  (400) 
-0

>  <i_i_glide_confnum>  (400) 
5

>  <i_i_glide_posenum>  (400) 
39

>  <r_i_glide_eff_state_penalty>  (400) 
0

>  <ligand_id>  (400) 
120

>  <original_smiles>  (400) 
COC(=O)C1C(=O)CC2(CC2)C2C1CCC1CC(=O)CC12C

>  <smiles>  (400) 
[H]C([H])([H])OC(=O)C1([H])C(=O)C([H])([H])C2(C([H])([H])C2([H])[H])C2([H])C1([H])C([H])([H])C([H])([H])C1([H])C([H])([H])C(=O)C([H])([H])C12C([H])([H])[H]

$$$$
120:0:1
     RDKit          3D

 46 49  0  0  1  0  0  0  0  0999 V2000
    1.2841   -7.3256    1.7823 C   0  0  0  0  0  0  0  0  0  0  0  0
    1.9971   -6.2889    2.4314 O   0  0  0  0  0  0  0  0  0  0  0  0
    2.4531   -5.2533    1.7108 C   0  0  0  0  0  0  0  0  0  0  0  0
    2.1942   -5.0557    0.5216 O   0  0  0  0  0  0  0  0  0  0  0  0
    3.3360   -4.2928    2.5318 C   0  0  2  0  0  0  0  0  0  0  0  0
    2.4365   -3.1973    3.1044 C   0  0  0  0  0  0  0  0  0  0  0  0
    1.9612   -3.2882    4.2317 O   0  0  0  0  0  0  0  0  0  0  0  0
    2.1272   -2.0217    2.1907 C   0  0  0  0  0  0  0  0  0  0  0  0
    3.4110   -1.3940    1.6577 C   0  0  0  0  0  0  0  0  0  0  0  0
    3.4277    0.0972    1.3566 C   0  0  0  0  0  0  0  0  0  0  0  0
    4.0630   -0.4189    2.6186 C   0  0  0  0  0  0  0  0  0  0  0  0
    4.1974   -2.4453    0.8311 C   0  0  2  0  0  0  0  0  0  0  0  0
    4.5566   -3.6607    1.7682 C   0  0  2  0  0  0  0  0  0  0  0  0
    5.3827   -4.7732    1.0663 C   0  0  0  0  0  0  0  0  0  0  0  0
    6.5746   -4.2111    0.3049 C   0  0  0  0  0  0  0  0  0  0  0  0
    6.1439   -3.1531   -0.7187 C   0  0  1  0  0  0  0  0  0  0  0  0
    5.2861   -3.6301   -1.8915 C   0  0  0  0  0  0  0  0  0  0  0  0
    4.6632   -2.3354   -2.3732 C   0  0  0  0  0  0  0  0  0  0  0  0
    4.1039   -2.1892   -3.4603 O   0  0  0  0  0  0  0  0  0  0  0  0
    4.8534   -1.2352   -1.3416 C   0  0  0  0  0  0  0  0  0  0  0  0
    5.3955   -1.9503   -0.0789 C   0  0  1  0  0  0  0  0  0  0  0  0
    6.4735   -1.0913    0.6372 C   0  0  0  0  0  0  0  0  0  0  0  0
    0.9912   -8.0833    2.5068 H   0  0  0  0  0  0  0  0  0  0  0  0
    1.9010   -7.8082    1.0230 H   0  0  0  0  0  0  0  0  0  0  0  0
    0.3777   -6.9484    1.2958 H   0  0  0  0  0  0  0  0  0  0  0  0
    3.7299   -4.8741    3.3771 H   0  0  0  0  0  0  0  0  0  0  0  0
    1.4904   -2.3289    1.3720 H   0  0  0  0  0  0  0  0  0  0  0  0
    1.6004   -1.2628    2.7633 H   0  0  0  0  0  0  0  0  0  0  0  0
    4.0798    0.5007    0.5753 H   0  0  0  0  0  0  0  0  0  0  0  0
    2.4691    0.6321    1.4479 H   0  0  0  0  0  0  0  0  0  0  0  0
    3.5366   -0.1771    3.5526 H   0  0  0  0  0  0  0  0  0  0  0  0
    5.1497   -0.4836    2.7256 H   0  0  0  0  0  0  0  0  0  0  0  0
    3.4617   -2.8634    0.1359 H   0  0  0  0  0  0  0  0  0  0  0  0
    5.2145   -3.2539    2.5515 H   0  0  0  0  0  0  0  0  0  0  0  0
    5.7304   -5.4907    1.8092 H   0  0  0  0  0  0  0  0  0  0  0  0
    4.7689   -5.3239    0.3658 H   0  0  0  0  0  0  0  0  0  0  0  0
    7.2862   -3.7889    1.0070 H   0  0  0  0  0  0  0  0  0  0  0  0
    7.0923   -5.0325   -0.1961 H   0  0  0  0  0  0  0  0  0  0  0  0
    7.0649   -2.7920   -1.1711 H   0  0  0  0  0  0  0  0  0  0  0  0
    5.8612   -4.1024   -2.6908 H   0  0  0  0  0  0  0  0  0  0  0  0
    4.4830   -4.3057   -1.5833 H   0  0  0  0  0  0  0  0  0  0  0  0
    5.5837   -0.5287   -1.7426 H   0  0  0  0  0  0  0  0  0  0  0  0
    3.9052   -0.7086   -1.2076 H   0  0  0  0  0  0  0  0  0  0  0  0
    7.4030   -1.0230    0.0561 H   0  0  0  0  0  0  0  0  0  0  0  0
    6.7823   -1.5329    1.5837 H   0  0  0  0  0  0  0  0  0  0  0  0
    6.1741   -0.0660    0.7979 H   0  0  0  0  0  0  0  0  0  0  0  0
  1  2  1  0
  1 23  1  0
  1 24  1  0
  1 25  1  0
  2  3  1  0
  3  4  2  0
  3  5  1  0
  5 13  1  0
  5  6  1  0
  5 26  1  1
  6  7  2  0
  6  8  1  0
  8  9  1  0
  8 27  1  0
  8 28  1  0
  9 11  1  0
  9 10  1  0
  9 12  1  0
 10 11  1  0
 10 29  1  0
 10 30  1  0
 11 31  1  0
 11 32  1  0
 12 21  1  0
 12 13  1  0
 12 33  1  6
 13 14  1  0
 13 34  1  1
 14 15  1  0
 14 35  1  0
 14 36  1  0
 15 16  1  0
 15 37  1  0
 15 38  1  0
 16 21  1  0
 16 17  1  0
 16 39  1  6
 17 18  1  0
 17 40  1  0
 17 41  1  0
 18 19  2  0
 18 20  1  0
 20 21  1  0
 20 42  1  0
 20 43  1  0
 21 22  1  1
 22 44  1  0
 22 45  1  0
 22 46  1  0
M  END
>  <i_m_ct_stereo_status>  (401) 
1

>  <s_m_source_file>  (401) 
/var/tmp/pbs.5076255.sched01/tmpu61_44ix/12937f0afz8.sdf

>  <i_m_source_file_index>  (401) 
40

>  <i_lp_mmshare_version>  (401) 
48012

>  <i_f3d_flags>  (401) 
0

>  <s_epik_input>  (401) 
W0NIM11PQyg9TylbQ0BIXShDKD1PKVtDSDJdMSlbQ0BIXShbQ0BIXTJDMTNbQ0gyXVtDSDJdMylbQ0gyXVtDSDJdW0NAQEhdNFtDQEBdMihbQ0gzXSlbQ0gyXUMoPU8pW0NIMl00

>  <s_epik_cmdline>  (401) 
J2VwaWtfcHl0aG9uJywgJy1waHQnLCAnMi4wJywgJy1waCcsICc3LjAnLCAnLXRuJywgJzgnLCAnLW1hJywgJzIwMCcsICctaW1hZScsICc8aW5maWxlLm1hZT4nLCAnLW9tYWUnLCAnPG91dGZpbGUubWFlPic=

>  <r_lp_tautomer_probability>  (401) 
1

>  <r_epik_Ionization_Penalty>  (401) 
2.71141e-07

>  <r_epik_Ionization_Penalty_Charging>  (401) 
0

>  <r_epik_Ionization_Penalty_Neutral>  (401) 
2.71141e-07

>  <r_epik_State_Penalty>  (401) 
-0

>  <r_epik_Charging_Adjusted_Penalty>  (401) 
0

>  <i_epik_Tot_Q>  (401) 
0

>  <i_epik_Tot_abs_Q>  (401) 
0

>  <s_epik_Chemistry_Notes>  (401) 
This compound has an ester and may undergo hydrolysis at high or low pH.

>  <s_lp_Force_Field>  (401) 
OPLS3e

>  <r_lp_Energy>  (401) 
14.3303

>  <b_lp_Chiralities_Consistent>  (401) 
1

>  <s_lp_Variant>  (401) 
120:0-1

>  <s_i_glide_gridfile>  (401) 
pfpi4k_grid

>  <i_i_glide_lignum>  (401) 
40

>  <i_i_glide_rotatable_bonds>  (401) 
2

>  <r_i_docking_score>  (401) 
-3.29623

>  <r_i_glide_ligand_efficiency>  (401) 
-0.149829

>  <r_i_glide_ligand_efficiency_sa>  (401) 
-0.419826

>  <r_i_glide_ligand_efficiency_ln>  (401) 
-0.80572

>  <r_i_glide_gscore>  (401) 
-3.29623

>  <r_i_glide_lipo>  (401) 
-0.425208

>  <r_i_glide_hbond>  (401) 
-0.0230663

>  <r_i_glide_metal>  (401) 
-0

>  <r_i_glide_rewards>  (401) 
-1.45833

>  <r_i_glide_evdw>  (401) 
-27.0984

>  <r_i_glide_ecoul>  (401) 
-1.41216

>  <r_i_glide_erotb>  (401) 
0.199048

>  <r_i_glide_esite>  (401) 
-0.0219281

>  <r_i_glide_emodel>  (401) 
-33.9331

>  <r_i_glide_energy>  (401) 
-28.5106

>  <r_i_glide_einternal>  (401) 
0.356897

>  <r_i_glide_intrahb_reward>  (401) 
-0

>  <i_i_glide_confnum>  (401) 
4

>  <i_i_glide_posenum>  (401) 
10

>  <r_i_glide_eff_state_penalty>  (401) 
0

>  <ligand_id>  (401) 
120

>  <original_smiles>  (401) 
COC(=O)C1C(=O)CC2(CC2)C2C1CCC1CC(=O)CC12C

>  <smiles>  (401) 
[H]C([H])([H])OC(=O)C1([H])C(=O)C([H])([H])C2(C([H])([H])C2([H])[H])C2([H])C1([H])C([H])([H])C([H])([H])C1([H])C([H])([H])C(=O)C([H])([H])C12C([H])([H])[H]

$$$$
120:0:2
     RDKit          3D

 46 49  0  0  1  0  0  0  0  0999 V2000
    3.1707   -7.9141    1.6842 C   0  0  0  0  0  0  0  0  0  0  0  0
    3.6153   -6.7423    2.3444 O   0  0  0  0  0  0  0  0  0  0  0  0
    3.1091   -5.5496    2.0004 C   0  0  0  0  0  0  0  0  0  0  0  0
    2.2287   -5.3598    1.1612 O   0  0  0  0  0  0  0  0  0  0  0  0
    3.7866   -4.4014    2.7762 C   0  0  2  0  0  0  0  0  0  0  0  0
    2.7049   -3.4828    3.3568 C   0  0  0  0  0  0  0  0  0  0  0  0
    2.2978   -3.6260    4.5046 O   0  0  0  0  0  0  0  0  0  0  0  0
    2.1375   -2.4298    2.4233 C   0  0  0  0  0  0  0  0  0  0  0  0
    3.2476   -1.5851    1.8173 C   0  0  0  0  0  0  0  0  0  0  0  0
    2.9538   -0.1329    1.4700 C   0  0  0  0  0  0  0  0  0  0  0  0
    3.7180   -0.4619    2.7224 C   0  0  0  0  0  0  0  0  0  0  0  0
    4.2048   -2.4880    0.9872 C   0  0  2  0  0  0  0  0  0  0  0  0
    4.8365   -3.5677    1.9517 C   0  0  2  0  0  0  0  0  0  0  0  0
    5.8463   -4.5156    1.2445 C   0  0  0  0  0  0  0  0  0  0  0  0
    6.8759   -3.7633    0.4151 C   0  0  0  0  0  0  0  0  0  0  0  0
    6.2045   -2.8436   -0.6129 C   0  0  1  0  0  0  0  0  0  0  0  0
    5.4357   -3.5246   -1.7423 C   0  0  0  0  0  0  0  0  0  0  0  0
    4.5472   -2.3990   -2.2398 C   0  0  0  0  0  0  0  0  0  0  0  0
    3.9328   -2.4101   -3.3079 O   0  0  0  0  0  0  0  0  0  0  0  0
    4.5390   -1.2443   -1.2388 C   0  0  0  0  0  0  0  0  0  0  0  0
    5.2453   -1.7905    0.0182 C   0  0  1  0  0  0  0  0  0  0  0  0
    6.1461   -0.7167    0.6704 C   0  0  0  0  0  0  0  0  0  0  0  0
    3.6666   -8.7845    2.1133 H   0  0  0  0  0  0  0  0  0  0  0  0
    3.4225   -7.8731    0.6229 H   0  0  0  0  0  0  0  0  0  0  0  0
    2.0909   -8.0482    1.7885 H   0  0  0  0  0  0  0  0  0  0  0  0
    4.3056   -4.8550    3.6224 H   0  0  0  0  0  0  0  0  0  0  0  0
    1.5601   -2.8988    1.6427 H   0  0  0  0  0  0  0  0  0  0  0  0
    1.4824   -1.7688    2.9845 H   0  0  0  0  0  0  0  0  0  0  0  0
    3.4859    0.3551    0.6494 H   0  0  0  0  0  0  0  0  0  0  0  0
    1.9070    0.1953    1.5706 H   0  0  0  0  0  0  0  0  0  0  0  0
    3.1754   -0.2988    3.6676 H   0  0  0  0  0  0  0  0  0  0  0  0
    4.7962   -0.2985    2.7899 H   0  0  0  0  0  0  0  0  0  0  0  0
    3.5507   -3.0873    0.3418 H   0  0  0  0  0  0  0  0  0  0  0  0
    5.4177   -3.0113    2.6920 H   0  0  0  0  0  0  0  0  0  0  0  0
    6.3525   -5.1215    1.9931 H   0  0  0  0  0  0  0  0  0  0  0  0
    5.3199   -5.2063    0.5886 H   0  0  0  0  0  0  0  0  0  0  0  0
    7.5059   -3.1755    1.0803 H   0  0  0  0  0  0  0  0  0  0  0  0
    7.5358   -4.4696   -0.0860 H   0  0  0  0  0  0  0  0  0  0  0  0
    7.0256   -2.3122   -1.1054 H   0  0  0  0  0  0  0  0  0  0  0  0
    6.0773   -3.8832   -2.5454 H   0  0  0  0  0  0  0  0  0  0  0  0
    4.8008   -4.3319   -1.3909 H   0  0  0  0  0  0  0  0  0  0  0  0
    5.0952   -0.4174   -1.6861 H   0  0  0  0  0  0  0  0  0  0  0  0
    3.5047   -0.9235   -1.0902 H   0  0  0  0  0  0  0  0  0  0  0  0
    7.0111   -0.4696    0.0514 H   0  0  0  0  0  0  0  0  0  0  0  0
    6.5696   -1.0462    1.6199 H   0  0  0  0  0  0  0  0  0  0  0  0
    5.6419    0.2355    0.8192 H   0  0  0  0  0  0  0  0  0  0  0  0
  1  2  1  0
  1 23  1  0
  1 24  1  0
  1 25  1  0
  2  3  1  0
  3  4  2  0
  3  5  1  0
  5 13  1  0
  5  6  1  0
  5 26  1  1
  6  7  2  0
  6  8  1  0
  8  9  1  0
  8 27  1  0
  8 28  1  0
  9 11  1  0
  9 10  1  0
  9 12  1  0
 10 11  1  0
 10 29  1  0
 10 30  1  0
 11 31  1  0
 11 32  1  0
 12 21  1  0
 12 13  1  0
 12 33  1  6
 13 14  1  0
 13 34  1  1
 14 15  1  0
 14 35  1  0
 14 36  1  0
 15 16  1  0
 15 37  1  0
 15 38  1  0
 16 21  1  0
 16 17  1  0
 16 39  1  6
 17 18  1  0
 17 40  1  0
 17 41  1  0
 18 19  2  0
 18 20  1  0
 20 21  1  0
 20 42  1  0
 20 43  1  0
 21 22  1  1
 22 44  1  0
 22 45  1  0
 22 46  1  0
M  END
>  <i_m_ct_stereo_status>  (402) 
1

>  <s_m_source_file>  (402) 
/var/tmp/pbs.5076255.sched01/tmpu61_44ix/12937f0afz8.sdf

>  <i_m_source_file_index>  (402) 
40

>  <i_lp_mmshare_version>  (402) 
48012

>  <i_f3d_flags>  (402) 
0

>  <s_epik_input>  (402) 
W0NIM11PQyg9TylbQ0BIXShDKD1PKVtDSDJdMSlbQ0BIXShbQ0BIXTJDMTNbQ0gyXVtDSDJdMylbQ0gyXVtDSDJdW0NAQEhdNFtDQEBdMihbQ0gzXSlbQ0gyXUMoPU8pW0NIMl00

>  <s_epik_cmdline>  (402) 
J2VwaWtfcHl0aG9uJywgJy1waHQnLCAnMi4wJywgJy1waCcsICc3LjAnLCAnLXRuJywgJzgnLCAnLW1hJywgJzIwMCcsICctaW1hZScsICc8aW5maWxlLm1hZT4nLCAnLW9tYWUnLCAnPG91dGZpbGUubWFlPic=

>  <r_lp_tautomer_probability>  (402) 
1

>  <r_epik_Ionization_Penalty>  (402) 
2.71141e-07

>  <r_epik_Ionization_Penalty_Charging>  (402) 
0

>  <r_epik_Ionization_Penalty_Neutral>  (402) 
2.71141e-07

>  <r_epik_State_Penalty>  (402) 
-0

>  <r_epik_Charging_Adjusted_Penalty>  (402) 
0

>  <i_epik_Tot_Q>  (402) 
0

>  <i_epik_Tot_abs_Q>  (402) 
0

>  <s_epik_Chemistry_Notes>  (402) 
This compound has an ester and may undergo hydrolysis at high or low pH.

>  <s_lp_Force_Field>  (402) 
OPLS3e

>  <r_lp_Energy>  (402) 
14.3303

>  <b_lp_Chiralities_Consistent>  (402) 
1

>  <s_lp_Variant>  (402) 
120:0-1

>  <s_i_glide_gridfile>  (402) 
pfpi4k_grid

>  <i_i_glide_lignum>  (402) 
40

>  <i_i_glide_rotatable_bonds>  (402) 
2

>  <r_i_docking_score>  (402) 
-3.15487

>  <r_i_glide_ligand_efficiency>  (402) 
-0.143403

>  <r_i_glide_ligand_efficiency_sa>  (402) 
-0.401821

>  <r_i_glide_ligand_efficiency_ln>  (402) 
-0.771164

>  <r_i_glide_gscore>  (402) 
-3.15487

>  <r_i_glide_lipo>  (402) 
-0.44965

>  <r_i_glide_hbond>  (402) 
0

>  <r_i_glide_metal>  (402) 
-0

>  <r_i_glide_rewards>  (402) 
-1.42093

>  <r_i_glide_evdw>  (402) 
-25.6308

>  <r_i_glide_ecoul>  (402) 
-1.3453

>  <r_i_glide_erotb>  (402) 
0.199048

>  <r_i_glide_esite>  (402) 
0

>  <r_i_glide_emodel>  (402) 
-32.0043

>  <r_i_glide_energy>  (402) 
-26.9761

>  <r_i_glide_einternal>  (402) 
0.734338

>  <r_i_glide_intrahb_reward>  (402) 
-0

>  <i_i_glide_confnum>  (402) 
2

>  <i_i_glide_posenum>  (402) 
25

>  <r_i_glide_eff_state_penalty>  (402) 
0

>  <ligand_id>  (402) 
120

>  <original_smiles>  (402) 
COC(=O)C1C(=O)CC2(CC2)C2C1CCC1CC(=O)CC12C

>  <smiles>  (402) 
[H]C([H])([H])OC(=O)C1([H])C(=O)C([H])([H])C2(C([H])([H])C2([H])[H])C2([H])C1([H])C([H])([H])C([H])([H])C1([H])C([H])([H])C(=O)C([H])([H])C12C([H])([H])[H]

$$$$
121:0:0
     RDKit          3D

 31 34  0  0  1  0  0  0  0  0999 V2000
    2.3957   -4.8356    2.4985 C   0  0  0  0  0  0  0  0  0  0  0  0
    1.8230   -5.6908    1.6097 N   0  0  0  0  0  0  0  0  0  0  0  0
    2.2245   -5.3029    0.4378 N   0  0  0  0  0  0  0  0  0  0  0  0
    2.9807   -4.1945    0.6420 N   0  0  0  0  0  0  0  0  0  0  0  0
    3.6302   -3.4545   -0.4465 C   0  0  1  0  0  0  0  0  0  0  0  0
    2.6550   -3.2814   -1.6408 C   0  0  0  0  0  0  0  0  0  0  0  0
    3.3208   -2.5044   -2.7926 C   0  0  2  0  0  0  0  0  0  0  0  0
    4.5535   -3.2757   -3.2647 C   0  0  0  0  0  0  0  0  0  0  0  0
    5.5396   -3.4172   -2.0867 C   0  0  1  0  0  0  0  0  0  0  0  0
    5.9643   -2.0438   -1.5489 C   0  0  0  0  0  0  0  0  0  0  0  0
    4.7239   -1.2595   -1.1069 C   0  0  1  0  0  0  0  0  0  0  0  0
    3.7505   -1.1178   -2.2945 C   0  0  0  0  0  0  0  0  0  0  0  0
    4.0501   -2.0321    0.0356 C   0  0  0  0  0  0  0  0  0  0  0  0
    4.8882   -4.2146   -0.9373 C   0  0  0  0  0  0  0  0  0  0  0  0
    3.1407   -3.9024    1.9464 N   0  0  0  0  0  0  0  0  0  0  0  0
    2.2486   -4.8959    3.5714 H   0  0  0  0  0  0  0  0  0  0  0  0
    2.2753   -4.2354   -2.0065 H   0  0  0  0  0  0  0  0  0  0  0  0
    1.7816   -2.7401   -1.3113 H   0  0  0  0  0  0  0  0  0  0  0  0
    2.6076   -2.3860   -3.6097 H   0  0  0  0  0  0  0  0  0  0  0  0
    4.2515   -4.2567   -3.6290 H   0  0  0  0  0  0  0  0  0  0  0  0
    5.0160   -2.7583   -4.1018 H   0  0  0  0  0  0  0  0  0  0  0  0
    6.4286   -3.9099   -2.4585 H   0  0  0  0  0  0  0  0  0  0  0  0
    6.6669   -2.1654   -0.7228 H   0  0  0  0  0  0  0  0  0  0  0  0
    6.4816   -1.4998   -2.3170 H   0  0  0  0  0  0  0  0  0  0  0  0
    5.0176   -0.2722   -0.7479 H   0  0  0  0  0  0  0  0  0  0  0  0
    4.1940   -0.5207   -3.0954 H   0  0  0  0  0  0  0  0  0  0  0  0
    2.8440   -0.6192   -1.9734 H   0  0  0  0  0  0  0  0  0  0  0  0
    3.1847   -1.4740    0.3946 H   0  0  0  0  0  0  0  0  0  0  0  0
    4.7532   -2.0966    0.8651 H   0  0  0  0  0  0  0  0  0  0  0  0
    5.5997   -4.3513   -0.1222 H   0  0  0  0  0  0  0  0  0  0  0  0
    4.6256   -5.2121   -1.2913 H   0  0  0  0  0  0  0  0  0  0  0  0
  1 15  2  0
  1  2  1  0
  1 16  1  0
  2  3  2  0
  3  4  1  0
  5  4  1  1
  4 15  1  0
  5 13  1  0
  5 14  1  0
  5  6  1  0
  6  7  1  0
  6 17  1  0
  6 18  1  0
  7 12  1  0
  7  8  1  0
  7 19  1  6
  8  9  1  0
  8 20  1  0
  8 21  1  0
  9 10  1  0
  9 14  1  0
  9 22  1  6
 10 11  1  0
 10 23  1  0
 10 24  1  0
 11 12  1  0
 11 13  1  0
 11 25  1  1
 12 26  1  0
 12 27  1  0
 13 28  1  0
 13 29  1  0
 14 30  1  0
 14 31  1  0
M  END
>  <i_m_ct_stereo_status>  (403) 
1

>  <s_m_source_file>  (403) 
/var/tmp/pbs.5076255.sched01/tmpu61_44ix/12937f0afz8.sdf

>  <i_m_source_file_index>  (403) 
41

>  <i_lp_mmshare_version>  (403) 
48012

>  <i_f3d_flags>  (403) 
0

>  <s_epik_input>  (403) 
bjFbY0hdbm5uMUMyM1tDSDJdW0NASF00W0NIMl1bQ0BASF0oW0NIMl0zKVtDSDJdW0NASF0oW0NIMl00KVtDSDJdMg==

>  <s_epik_cmdline>  (403) 
J2VwaWtfcHl0aG9uJywgJy1waHQnLCAnMi4wJywgJy1waCcsICc3LjAnLCAnLXRuJywgJzgnLCAnLW1hJywgJzIwMCcsICctaW1hZScsICc8aW5maWxlLm1hZT4nLCAnLW9tYWUnLCAnPG91dGZpbGUubWFlPic=

>  <r_lp_tautomer_probability>  (403) 
1

>  <r_epik_Ionization_Penalty>  (403) 
2.40438e-06

>  <r_epik_Ionization_Penalty_Charging>  (403) 
0

>  <r_epik_Ionization_Penalty_Neutral>  (403) 
2.40438e-06

>  <r_epik_State_Penalty>  (403) 
-0

>  <r_epik_Charging_Adjusted_Penalty>  (403) 
0

>  <i_epik_Tot_Q>  (403) 
0

>  <i_epik_Tot_abs_Q>  (403) 
0

>  <s_lp_Force_Field>  (403) 
OPLS3e

>  <r_lp_Energy>  (403) 
6.24452

>  <b_lp_Chiralities_Consistent>  (403) 
1

>  <s_lp_Variant>  (403) 
121:0-1

>  <s_i_glide_gridfile>  (403) 
pfpi4k_grid

>  <i_i_glide_lignum>  (403) 
41

>  <i_i_glide_rotatable_bonds>  (403) 
1

>  <r_i_docking_score>  (403) 
-3.50734

>  <r_i_glide_ligand_efficiency>  (403) 
-0.233822

>  <r_i_glide_ligand_efficiency_sa>  (403) 
-0.576656

>  <r_i_glide_ligand_efficiency_ln>  (403) 
-0.945871

>  <r_i_glide_gscore>  (403) 
-3.50734

>  <r_i_glide_lipo>  (403) 
-0.499913

>  <r_i_glide_hbond>  (403) 
0

>  <r_i_glide_metal>  (403) 
-0

>  <r_i_glide_rewards>  (403) 
-2.01633

>  <r_i_glide_evdw>  (403) 
-18.6276

>  <r_i_glide_ecoul>  (403) 
-2.0977

>  <r_i_glide_erotb>  (403) 
0.394182

>  <r_i_glide_esite>  (403) 
-0.139238

>  <r_i_glide_emodel>  (403) 
-25.8318

>  <r_i_glide_energy>  (403) 
-20.7253

>  <r_i_glide_einternal>  (403) 
0.132388

>  <r_i_glide_intrahb_reward>  (403) 
-0

>  <i_i_glide_confnum>  (403) 
4

>  <i_i_glide_posenum>  (403) 
18

>  <r_i_glide_eff_state_penalty>  (403) 
0

>  <ligand_id>  (403) 
121

>  <original_smiles>  (403) 
c1nnn(C23CC4CC(CC(C4)C2)C3)n1

>  <smiles>  (403) 
[H]c1nnn(C23C([H])([H])C4([H])C([H])([H])C([H])(C([H])([H])C([H])(C4([H])[H])C2([H])[H])C3([H])[H])n1

$$$$
121:0:1
     RDKit          3D

 31 34  0  0  1  0  0  0  0  0999 V2000
    2.8633   -6.4131    1.2849 C   0  0  0  0  0  0  0  0  0  0  0  0
    1.7810   -5.8597    0.6643 N   0  0  0  0  0  0  0  0  0  0  0  0
    2.2155   -4.7924    0.0780 N   0  0  0  0  0  0  0  0  0  0  0  0
    3.5268   -4.6967    0.3815 N   0  0  0  0  0  0  0  0  0  0  0  0
    4.3865   -3.6033   -0.1068 C   0  0  1  0  0  0  0  0  0  0  0  0
    4.5408   -3.6961   -1.6459 C   0  0  0  0  0  0  0  0  0  0  0  0
    5.4370   -2.5526   -2.1642 C   0  0  2  0  0  0  0  0  0  0  0  0
    6.8316   -2.6636   -1.5170 C   0  0  0  0  0  0  0  0  0  0  0  0
    6.6955   -2.5342    0.0129 C   0  0  1  0  0  0  0  0  0  0  0  0
    6.0524   -1.1867    0.3931 C   0  0  0  0  0  0  0  0  0  0  0  0
    4.6654   -1.0832   -0.2706 C   0  0  1  0  0  0  0  0  0  0  0  0
    4.8045   -1.1909   -1.8046 C   0  0  0  0  0  0  0  0  0  0  0  0
    3.7647   -2.2244    0.2472 C   0  0  0  0  0  0  0  0  0  0  0  0
    5.8079   -3.6785    0.5356 C   0  0  0  0  0  0  0  0  0  0  0  0
    3.9796   -5.7242    1.1270 N   0  0  0  0  0  0  0  0  0  0  0  0
    2.8286   -7.3271    1.8649 H   0  0  0  0  0  0  0  0  0  0  0  0
    4.9615   -4.6623   -1.9284 H   0  0  0  0  0  0  0  0  0  0  0  0
    3.5627   -3.6383   -2.1276 H   0  0  0  0  0  0  0  0  0  0  0  0
    5.5333   -2.6394   -3.2464 H   0  0  0  0  0  0  0  0  0  0  0  0
    7.2825   -3.6215   -1.7708 H   0  0  0  0  0  0  0  0  0  0  0  0
    7.5033   -1.9095   -1.9180 H   0  0  0  0  0  0  0  0  0  0  0  0
    7.6806   -2.6118    0.4733 H   0  0  0  0  0  0  0  0  0  0  0  0
    5.9499   -1.1156    1.4779 H   0  0  0  0  0  0  0  0  0  0  0  0
    6.6834   -0.3545    0.0861 H   0  0  0  0  0  0  0  0  0  0  0  0
    4.2165   -0.1232   -0.0157 H   0  0  0  0  0  0  0  0  0  0  0  0
    5.4144   -0.3736   -2.1881 H   0  0  0  0  0  0  0  0  0  0  0  0
    3.8261   -1.0929   -2.2771 H   0  0  0  0  0  0  0  0  0  0  0  0
    2.7721   -2.1206   -0.1962 H   0  0  0  0  0  0  0  0  0  0  0  0
    3.6278   -2.1334    1.3255 H   0  0  0  0  0  0  0  0  0  0  0  0
    5.7408   -3.6203    1.6240 H   0  0  0  0  0  0  0  0  0  0  0  0
    6.2865   -4.6296    0.3004 H   0  0  0  0  0  0  0  0  0  0  0  0
  1 15  2  0
  1  2  1  0
  1 16  1  0
  2  3  2  0
  3  4  1  0
  5  4  1  1
  4 15  1  0
  5 13  1  0
  5 14  1  0
  5  6  1  0
  6  7  1  0
  6 17  1  0
  6 18  1  0
  7 12  1  0
  7  8  1  0
  7 19  1  6
  8  9  1  0
  8 20  1  0
  8 21  1  0
  9 10  1  0
  9 14  1  0
  9 22  1  1
 10 11  1  0
 10 23  1  0
 10 24  1  0
 11 12  1  0
 11 13  1  0
 11 25  1  6
 12 26  1  0
 12 27  1  0
 13 28  1  0
 13 29  1  0
 14 30  1  0
 14 31  1  0
M  END
>  <i_m_ct_stereo_status>  (404) 
1

>  <s_m_source_file>  (404) 
/var/tmp/pbs.5076255.sched01/tmpu61_44ix/12937f0afz8.sdf

>  <i_m_source_file_index>  (404) 
41

>  <i_lp_mmshare_version>  (404) 
48012

>  <i_f3d_flags>  (404) 
0

>  <s_epik_input>  (404) 
bjFbY0hdbm5uMUMyM1tDSDJdW0NASF00W0NIMl1bQ0BASF0oW0NIMl0zKVtDSDJdW0NASF0oW0NIMl00KVtDSDJdMg==

>  <s_epik_cmdline>  (404) 
J2VwaWtfcHl0aG9uJywgJy1waHQnLCAnMi4wJywgJy1waCcsICc3LjAnLCAnLXRuJywgJzgnLCAnLW1hJywgJzIwMCcsICctaW1hZScsICc8aW5maWxlLm1hZT4nLCAnLW9tYWUnLCAnPG91dGZpbGUubWFlPic=

>  <r_lp_tautomer_probability>  (404) 
1

>  <r_epik_Ionization_Penalty>  (404) 
2.40438e-06

>  <r_epik_Ionization_Penalty_Charging>  (404) 
0

>  <r_epik_Ionization_Penalty_Neutral>  (404) 
2.40438e-06

>  <r_epik_State_Penalty>  (404) 
-0

>  <r_epik_Charging_Adjusted_Penalty>  (404) 
0

>  <i_epik_Tot_Q>  (404) 
0

>  <i_epik_Tot_abs_Q>  (404) 
0

>  <s_lp_Force_Field>  (404) 
OPLS3e

>  <r_lp_Energy>  (404) 
6.24452

>  <b_lp_Chiralities_Consistent>  (404) 
1

>  <s_lp_Variant>  (404) 
121:0-1

>  <s_i_glide_gridfile>  (404) 
pfpi4k_grid

>  <i_i_glide_lignum>  (404) 
41

>  <i_i_glide_rotatable_bonds>  (404) 
1

>  <r_i_docking_score>  (404) 
-3.39715

>  <r_i_glide_ligand_efficiency>  (404) 
-0.226476

>  <r_i_glide_ligand_efficiency_sa>  (404) 
-0.558539

>  <r_i_glide_ligand_efficiency_ln>  (404) 
-0.916155

>  <r_i_glide_gscore>  (404) 
-3.39715

>  <r_i_glide_lipo>  (404) 
-0.282913

>  <r_i_glide_hbond>  (404) 
0

>  <r_i_glide_metal>  (404) 
-0

>  <r_i_glide_rewards>  (404) 
-2.03386

>  <r_i_glide_evdw>  (404) 
-21.5202

>  <r_i_glide_ecoul>  (404) 
-1.67931

>  <r_i_glide_erotb>  (404) 
0.394182

>  <r_i_glide_esite>  (404) 
-0.146646

>  <r_i_glide_emodel>  (404) 
-28.2807

>  <r_i_glide_energy>  (404) 
-23.1995

>  <r_i_glide_einternal>  (404) 
0.0051039

>  <r_i_glide_intrahb_reward>  (404) 
-0

>  <i_i_glide_confnum>  (404) 
4

>  <i_i_glide_posenum>  (404) 
11

>  <r_i_glide_eff_state_penalty>  (404) 
0

>  <ligand_id>  (404) 
121

>  <original_smiles>  (404) 
c1nnn(C23CC4CC(CC(C4)C2)C3)n1

>  <smiles>  (404) 
[H]c1nnn(C23C([H])([H])C4([H])C([H])([H])C([H])(C([H])([H])C([H])(C4([H])[H])C2([H])[H])C3([H])[H])n1

$$$$
121:0:2
     RDKit          3D

 31 34  0  0  1  0  0  0  0  0999 V2000
    1.7631   -6.8163    1.3127 C   0  0  0  0  0  0  0  0  0  0  0  0
    2.9819   -7.2823    1.7020 N   0  0  0  0  0  0  0  0  0  0  0  0
    3.8475   -6.3959    1.3202 N   0  0  0  0  0  0  0  0  0  0  0  0
    3.1436   -5.4314    0.6853 N   0  0  0  0  0  0  0  0  0  0  0  0
    3.7610   -4.2132    0.1396 C   0  0  1  0  0  0  0  0  0  0  0  0
    2.7712   -3.4502   -0.7886 C   0  0  0  0  0  0  0  0  0  0  0  0
    3.4361   -2.1913   -1.3738 C   0  0  2  0  0  0  0  0  0  0  0  0
    4.6698   -2.5964   -2.1968 C   0  0  0  0  0  0  0  0  0  0  0  0
    5.6751   -3.3094   -1.2724 C   0  0  1  0  0  0  0  0  0  0  0  0
    6.0977   -2.3863   -0.1111 C   0  0  0  0  0  0  0  0  0  0  0  0
    4.8490   -1.9859    0.6986 C   0  0  1  0  0  0  0  0  0  0  0  0
    3.8542   -1.2529   -0.2221 C   0  0  0  0  0  0  0  0  0  0  0  0
    4.1842   -3.2539    1.2866 C   0  0  0  0  0  0  0  0  0  0  0  0
    5.0223   -4.5788   -0.6891 C   0  0  0  0  0  0  0  0  0  0  0  0
    1.8088   -5.6483    0.6956 N   0  0  0  0  0  0  0  0  0  0  0  0
    0.8341   -7.3421    1.4832 H   0  0  0  0  0  0  0  0  0  0  0  0
    2.4218   -4.0998   -1.5953 H   0  0  0  0  0  0  0  0  0  0  0  0
    1.8838   -3.1368   -0.2385 H   0  0  0  0  0  0  0  0  0  0  0  0
    2.7179   -1.6787   -2.0160 H   0  0  0  0  0  0  0  0  0  0  0  0
    4.3706   -3.2659   -3.0047 H   0  0  0  0  0  0  0  0  0  0  0  0
    5.1173   -1.7189   -2.6598 H   0  0  0  0  0  0  0  0  0  0  0  0
    6.5535   -3.5904   -1.8514 H   0  0  0  0  0  0  0  0  0  0  0  0
    6.8109   -2.8995    0.5346 H   0  0  0  0  0  0  0  0  0  0  0  0
    6.6006   -1.5002   -0.4950 H   0  0  0  0  0  0  0  0  0  0  0  0
    5.1427   -1.3194    1.5099 H   0  0  0  0  0  0  0  0  0  0  0  0
    4.2973   -0.3407   -0.6212 H   0  0  0  0  0  0  0  0  0  0  0  0
    2.9760   -0.9461    0.3461 H   0  0  0  0  0  0  0  0  0  0  0  0
    3.3192   -2.9735    1.8901 H   0  0  0  0  0  0  0  0  0  0  0  0
    4.8807   -3.7513    1.9646 H   0  0  0  0  0  0  0  0  0  0  0  0
    5.7573   -5.1051   -0.0759 H   0  0  0  0  0  0  0  0  0  0  0  0
    4.7585   -5.2609   -1.4974 H   0  0  0  0  0  0  0  0  0  0  0  0
  1 15  2  0
  1  2  1  0
  1 16  1  0
  2  3  2  0
  3  4  1  0
  5  4  1  1
  4 15  1  0
  5 13  1  0
  5 14  1  0
  5  6  1  0
  6  7  1  0
  6 17  1  0
  6 18  1  0
  7 12  1  0
  7  8  1  0
  7 19  1  6
  8  9  1  0
  8 20  1  0
  8 21  1  0
  9 10  1  0
  9 14  1  0
  9 22  1  6
 10 11  1  0
 10 23  1  0
 10 24  1  0
 11 12  1  0
 11 13  1  0
 11 25  1  1
 12 26  1  0
 12 27  1  0
 13 28  1  0
 13 29  1  0
 14 30  1  0
 14 31  1  0
M  END
>  <i_m_ct_stereo_status>  (405) 
1

>  <s_m_source_file>  (405) 
/var/tmp/pbs.5076255.sched01/tmpu61_44ix/12937f0afz8.sdf

>  <i_m_source_file_index>  (405) 
41

>  <i_lp_mmshare_version>  (405) 
48012

>  <i_f3d_flags>  (405) 
0

>  <s_epik_input>  (405) 
bjFbY0hdbm5uMUMyM1tDSDJdW0NASF00W0NIMl1bQ0BASF0oW0NIMl0zKVtDSDJdW0NASF0oW0NIMl00KVtDSDJdMg==

>  <s_epik_cmdline>  (405) 
J2VwaWtfcHl0aG9uJywgJy1waHQnLCAnMi4wJywgJy1waCcsICc3LjAnLCAnLXRuJywgJzgnLCAnLW1hJywgJzIwMCcsICctaW1hZScsICc8aW5maWxlLm1hZT4nLCAnLW9tYWUnLCAnPG91dGZpbGUubWFlPic=

>  <r_lp_tautomer_probability>  (405) 
1

>  <r_epik_Ionization_Penalty>  (405) 
2.40438e-06

>  <r_epik_Ionization_Penalty_Charging>  (405) 
0

>  <r_epik_Ionization_Penalty_Neutral>  (405) 
2.40438e-06

>  <r_epik_State_Penalty>  (405) 
-0

>  <r_epik_Charging_Adjusted_Penalty>  (405) 
0

>  <i_epik_Tot_Q>  (405) 
0

>  <i_epik_Tot_abs_Q>  (405) 
0

>  <s_lp_Force_Field>  (405) 
OPLS3e

>  <r_lp_Energy>  (405) 
6.24452

>  <b_lp_Chiralities_Consistent>  (405) 
1

>  <s_lp_Variant>  (405) 
121:0-1

>  <s_i_glide_gridfile>  (405) 
pfpi4k_grid

>  <i_i_glide_lignum>  (405) 
41

>  <i_i_glide_rotatable_bonds>  (405) 
1

>  <r_i_docking_score>  (405) 
-3.25279

>  <r_i_glide_ligand_efficiency>  (405) 
-0.216853

>  <r_i_glide_ligand_efficiency_sa>  (405) 
-0.534805

>  <r_i_glide_ligand_efficiency_ln>  (405) 
-0.877225

>  <r_i_glide_gscore>  (405) 
-3.25279

>  <r_i_glide_lipo>  (405) 
-0.203838

>  <r_i_glide_hbond>  (405) 
-0.0938493

>  <r_i_glide_metal>  (405) 
-0

>  <r_i_glide_rewards>  (405) 
-2.01633

>  <r_i_glide_evdw>  (405) 
-19.5439

>  <r_i_glide_ecoul>  (405) 
-2.0032

>  <r_i_glide_erotb>  (405) 
0.394182

>  <r_i_glide_esite>  (405) 
-0.0552817

>  <r_i_glide_emodel>  (405) 
-26.3756

>  <r_i_glide_energy>  (405) 
-21.5471

>  <r_i_glide_einternal>  (405) 
0.0843152

>  <r_i_glide_intrahb_reward>  (405) 
-0

>  <i_i_glide_confnum>  (405) 
5

>  <i_i_glide_posenum>  (405) 
12

>  <r_i_glide_eff_state_penalty>  (405) 
0

>  <ligand_id>  (405) 
121

>  <original_smiles>  (405) 
c1nnn(C23CC4CC(CC(C4)C2)C3)n1

>  <smiles>  (405) 
[H]c1nnn(C23C([H])([H])C4([H])C([H])([H])C([H])(C([H])([H])C([H])(C4([H])[H])C2([H])[H])C3([H])[H])n1

$$$$
122:0:0
     RDKit          3D

 85 92  0  0  1  0  0  0  0  0999 V2000
   -1.6792    0.8808    6.5411 C   0  0  0  0  0  0  0  0  0  0  0  0
   -1.2041    1.0232    5.0875 C   0  0  2  0  0  0  0  0  0  0  0  0
    0.3373    0.9719    4.9904 C   0  0  2  0  0  0  0  0  0  0  0  0
    0.6889    2.4139    5.3667 C   0  0  0  0  0  0  0  0  0  0  0  0
   -0.3377    3.2282    5.0685 C   0  0  0  0  0  0  0  0  0  0  0  0
   -1.4545    2.4124    4.4716 C   0  0  2  0  0  0  0  0  0  0  0  0
   -2.7146    2.9788    4.7801 O   0  0  0  0  0  0  0  0  0  0  0  0
   -1.2701    2.2702    2.9552 C   0  0  0  0  0  0  0  0  0  0  0  0
    0.1640    1.7562    2.5650 C   0  0  0  0  0  0  0  0  0  0  0  0
    0.7834    0.7029    3.5457 C   0  0  1  0  0  0  0  0  0  0  0  0
    2.1929    0.7941    3.4212 O   0  0  0  0  0  0  0  0  0  0  0  0
    2.8753   -0.2469    4.0986 C   0  0  0  0  0  0  0  0  0  0  0  0
    2.4438   -1.6485    3.6350 C   0  0  1  0  0  0  0  0  0  0  0  0
    2.7520   -1.7898    2.1416 C   0  0  0  0  0  0  0  0  0  0  0  0
    3.7339   -2.5632    1.6307 C   0  0  0  0  0  0  0  0  0  0  0  0
    4.1130   -2.5764    0.1439 C   0  0  1  0  0  0  0  0  0  0  0  0
    3.3777   -1.6949   -0.8148 C   0  0  0  0  0  0  0  0  0  0  0  0
    4.1201   -1.6872   -2.1505 C   0  0  1  0  0  0  0  0  0  0  0  0
    3.9994   -0.3081   -2.8297 C   0  0  0  0  0  0  0  0  0  0  0  0
    5.5601   -2.0278   -1.7020 C   0  0  2  0  0  0  0  0  0  0  0  0
    5.9768   -3.2400   -2.5276 C   0  0  0  0  0  0  0  0  0  0  0  0
    4.6858   -3.9375   -2.9048 C   0  0  0  0  0  0  0  0  0  0  0  0
    3.6739   -2.8219   -3.1209 C   0  0  1  0  0  0  0  0  0  0  0  0
    2.2176   -3.2998   -3.1080 C   0  0  0  0  0  0  0  0  0  0  0  0
    3.8339   -2.3909   -4.4373 O   0  0  0  0  0  0  0  0  0  0  0  0
    5.5480   -2.1966   -0.1457 C   0  0  1  0  0  0  0  0  0  0  0  0
    5.9368   -0.8281    0.4678 C   0  0  0  0  0  0  0  0  0  0  0  0
    6.3802   -3.3225    0.4919 C   0  0  0  0  0  0  0  0  0  0  0  0
    6.1054   -3.4116    2.0082 C   0  0  0  0  0  0  0  0  0  0  0  0
    4.6155   -3.5119    2.4659 C   0  0  2  0  0  0  0  0  0  0  0  0
    4.1366   -4.9568    2.1927 C   0  0  0  0  0  0  0  0  0  0  0  0
    4.5391   -3.1538    3.9942 C   0  0  2  0  0  0  0  0  0  0  0  0
    5.1242   -4.2479    4.8928 C   0  0  0  0  0  0  0  0  0  0  0  0
    4.3412   -5.1276    5.5514 C   0  0  0  0  0  0  0  0  0  0  0  0
    2.9040   -5.0912    5.3860 C   0  0  0  0  0  0  0  0  0  0  0  0
    2.3091   -3.9994    4.8661 C   0  0  0  0  0  0  0  0  0  0  0  0
    3.1090   -2.7518    4.4911 C   0  0  2  0  0  0  0  0  0  0  0  0
    1.0346   -1.6317    3.9212 O   0  0  0  0  0  0  0  0  0  0  0  0
    0.3742   -0.5836    3.0845 O   0  0  0  0  0  0  0  0  0  0  0  0
   -1.2578    1.6486    7.2033 H   0  0  0  0  0  0  0  0  0  0  0  0
   -1.3532   -0.0822    6.9327 H   0  0  0  0  0  0  0  0  0  0  0  0
   -2.7653    0.9394    6.6367 H   0  0  0  0  0  0  0  0  0  0  0  0
   -1.6765    0.2249    4.4910 H   0  0  0  0  0  0  0  0  0  0  0  0
    0.7317    0.2868    5.7387 H   0  0  0  0  0  0  0  0  0  0  0  0
    1.6217    2.7150    5.7828 H   0  0  0  0  0  0  0  0  0  0  0  0
   -0.3761    4.2897    5.2347 H   0  0  0  0  0  0  0  0  0  0  0  0
   -3.3614    2.4743    4.2928 H   0  0  0  0  0  0  0  0  0  0  0  0
   -2.0223    1.5842    2.5578 H   0  0  0  0  0  0  0  0  0  0  0  0
   -1.4527    3.2301    2.4725 H   0  0  0  0  0  0  0  0  0  0  0  0
    0.1576    1.4094    1.5428 H   0  0  0  0  0  0  0  0  0  0  0  0
    0.8089    2.6401    2.5664 H   0  0  0  0  0  0  0  0  0  0  0  0
    3.9380   -0.1159    3.8838 H   0  0  0  0  0  0  0  0  0  0  0  0
    2.7686   -0.1386    5.1751 H   0  0  0  0  0  0  0  0  0  0  0  0
    2.1885   -1.1437    1.4978 H   0  0  0  0  0  0  0  0  0  0  0  0
    3.9078   -3.5869   -0.1953 H   0  0  0  0  0  0  0  0  0  0  0  0
    2.4360   -2.1994   -0.9197 H   0  0  0  0  0  0  0  0  0  0  0  0
    3.2436   -0.6816   -0.4318 H   0  0  0  0  0  0  0  0  0  0  0  0
    4.6261   -0.2447   -3.7125 H   0  0  0  0  0  0  0  0  0  0  0  0
    4.3114    0.4824   -2.1658 H   0  0  0  0  0  0  0  0  0  0  0  0
    2.9816   -0.0911   -3.1516 H   0  0  0  0  0  0  0  0  0  0  0  0
    6.2169   -1.2103   -1.9668 H   0  0  0  0  0  0  0  0  0  0  0  0
    6.4457   -2.9311   -3.4567 H   0  0  0  0  0  0  0  0  0  0  0  0
    6.6872   -3.8544   -2.0085 H   0  0  0  0  0  0  0  0  0  0  0  0
    4.7818   -4.6075   -3.7639 H   0  0  0  0  0  0  0  0  0  0  0  0
    4.3858   -4.5459   -2.0584 H   0  0  0  0  0  0  0  0  0  0  0  0
    1.9500   -3.8125   -2.1870 H   0  0  0  0  0  0  0  0  0  0  0  0
    2.0676   -4.0209   -3.9077 H   0  0  0  0  0  0  0  0  0  0  0  0
    1.5141   -2.4843   -3.2687 H   0  0  0  0  0  0  0  0  0  0  0  0
    3.0520   -1.8902   -4.6678 H   0  0  0  0  0  0  0  0  0  0  0  0
    7.0059   -0.6532    0.3458 H   0  0  0  0  0  0  0  0  0  0  0  0
    5.7097   -0.7398    1.5291 H   0  0  0  0  0  0  0  0  0  0  0  0
    5.4155   -0.0014   -0.0131 H   0  0  0  0  0  0  0  0  0  0  0  0
    6.1185   -4.2853    0.0551 H   0  0  0  0  0  0  0  0  0  0  0  0
    7.4411   -3.1604    0.2970 H   0  0  0  0  0  0  0  0  0  0  0  0
    6.6482   -4.2698    2.4050 H   0  0  0  0  0  0  0  0  0  0  0  0
    6.5578   -2.5353    2.4643 H   0  0  0  0  0  0  0  0  0  0  0  0
    4.7014   -5.6988    2.7627 H   0  0  0  0  0  0  0  0  0  0  0  0
    4.2524   -5.2389    1.1498 H   0  0  0  0  0  0  0  0  0  0  0  0
    3.0828   -5.0745    2.4393 H   0  0  0  0  0  0  0  0  0  0  0  0
    5.1582   -2.2777    4.1782 H   0  0  0  0  0  0  0  0  0  0  0  0
    6.1958   -4.2704    5.0001 H   0  0  0  0  0  0  0  0  0  0  0  0
    4.7986   -5.8712    6.1926 H   0  0  0  0  0  0  0  0  0  0  0  0
    2.3167   -5.9576    5.6676 H   0  0  0  0  0  0  0  0  0  0  0  0
    1.2319   -3.9585    4.7443 H   0  0  0  0  0  0  0  0  0  0  0  0
    3.2544   -2.3213    5.4853 H   0  0  0  0  0  0  0  0  0  0  0  0
  1  2  1  0
  1 40  1  0
  1 41  1  0
  1 42  1  0
  2  6  1  0
  2  3  1  0
  2 43  1  6
  3 10  1  0
  3  4  1  0
  3 44  1  1
  4  5  2  0
  4 45  1  0
  5  6  1  0
  5 46  1  0
  6  7  1  6
  6  8  1  0
  7 47  1  0
  8  9  1  0
  8 48  1  0
  8 49  1  0
  9 10  1  0
  9 50  1  0
  9 51  1  0
 10 39  1  6
 10 11  1  0
 11 12  1  0
 12 13  1  0
 12 52  1  0
 12 53  1  0
 13 37  1  0
 13 14  1  0
 13 38  1  6
 14 15  2  0
 14 54  1  0
 15 30  1  0
 15 16  1  0
 16 26  1  0
 16 17  1  0
 16 55  1  6
 17 18  1  0
 17 56  1  0
 17 57  1  0
 18 23  1  0
 18 19  1  6
 18 20  1  0
 19 58  1  0
 19 59  1  0
 19 60  1  0
 20 21  1  0
 20 26  1  0
 20 61  1  1
 21 22  1  0
 21 62  1  0
 21 63  1  0
 22 23  1  0
 22 64  1  0
 22 65  1  0
 23 24  1  0
 23 25  1  6
 24 66  1  0
 24 67  1  0
 24 68  1  0
 25 69  1  0
 26 27  1  1
 26 28  1  0
 27 70  1  0
 27 71  1  0
 27 72  1  0
 28 29  1  0
 28 73  1  0
 28 74  1  0
 29 30  1  0
 29 75  1  0
 29 76  1  0
 30 31  1  1
 30 32  1  0
 31 77  1  0
 31 78  1  0
 31 79  1  0
 32 37  1  0
 32 33  1  0
 32 80  1  6
 33 34  2  0
 33 81  1  0
 34 35  1  0
 34 82  1  0
 35 36  2  0
 35 83  1  0
 36 37  1  0
 36 84  1  0
 37 85  1  1
 38 39  1  0
M  END
>  <i_m_ct_stereo_status>  (406) 
1

>  <s_m_source_file>  (406) 
/var/tmp/pbs.5076255.sched01/tmpu61_44ix/12937f0afz8.sdf

>  <i_m_source_file_index>  (406) 
42

>  <i_lp_mmshare_version>  (406) 
48012

>  <i_f3d_flags>  (406) 
0

>  <s_epik_input>  (406) 
W0NIXTE9W0NIXVtDQEBdKFtPSF0pKFtDSDJdW0NIMl0yKVtDQEhdKFtDSDNdKVtDQEhdMVtDQF0yM09bQ0gyXVtDQF00KE9PMylbQ0BASF01W0NAQEhdKFtDSF09W0NIXVtDSF09W0NIXTUpW0NAQF02KFtDSDNdKUMoPVtDSF00KVtDQEBIXTdbQ0BAXShbQ0gzXSkoW0NIMl1bQ0gyXTYpW0NAQEhdOFtDQEBdKFtDSDJdNykoW0NIM10pW0NAQF0oW0NIM10pKFtPSF0pW0NIMl1bQ0gyXTg=

>  <s_epik_cmdline>  (406) 
J2VwaWtfcHl0aG9uJywgJy1waHQnLCAnMi4wJywgJy1waCcsICc3LjAnLCAnLXRuJywgJzgnLCAnLW1hJywgJzIwMCcsICctaW1hZScsICc8aW5maWxlLm1hZT4nLCAnLW9tYWUnLCAnPG91dGZpbGUubWFlPic=

>  <r_lp_tautomer_probability>  (406) 
1

>  <r_epik_Ionization_Penalty>  (406) 
2.30229e-06

>  <r_epik_Ionization_Penalty_Charging>  (406) 
0

>  <r_epik_Ionization_Penalty_Neutral>  (406) 
2.30229e-06

>  <r_epik_State_Penalty>  (406) 
-0

>  <r_epik_Charging_Adjusted_Penalty>  (406) 
0

>  <i_epik_Tot_Q>  (406) 
0

>  <i_epik_Tot_abs_Q>  (406) 
0

>  <s_lp_Force_Field>  (406) 
OPLS3e

>  <r_lp_Energy>  (406) 
59.9625

>  <b_lp_Chiralities_Consistent>  (406) 
1

>  <s_lp_Variant>  (406) 
122:0-1

>  <s_i_glide_gridfile>  (406) 
pfpi4k_grid

>  <i_i_glide_lignum>  (406) 
42

>  <i_i_glide_rotatable_bonds>  (406) 
2

>  <r_i_docking_score>  (406) 
-3.82615

>  <r_i_glide_ligand_efficiency>  (406) 
-0.0981064

>  <r_i_glide_ligand_efficiency_sa>  (406) 
-0.3327

>  <r_i_glide_ligand_efficiency_ln>  (406) 
-0.820435

>  <r_i_glide_gscore>  (406) 
-3.82615

>  <r_i_glide_lipo>  (406) 
-1.07271

>  <r_i_glide_hbond>  (406) 
-0.354909

>  <r_i_glide_metal>  (406) 
-0

>  <r_i_glide_rewards>  (406) 
0

>  <r_i_glide_evdw>  (406) 
-29.0707

>  <r_i_glide_ecoul>  (406) 
-6.19837

>  <r_i_glide_erotb>  (406) 
0

>  <r_i_glide_esite>  (406) 
-0.015238

>  <r_i_glide_emodel>  (406) 
-43.2373

>  <r_i_glide_energy>  (406) 
-35.2691

>  <r_i_glide_einternal>  (406) 
0.414635

>  <r_i_glide_intrahb_reward>  (406) 
-0

>  <i_i_glide_confnum>  (406) 
2

>  <i_i_glide_posenum>  (406) 
12

>  <r_i_glide_eff_state_penalty>  (406) 
0

>  <ligand_id>  (406) 
122

>  <original_smiles>  (406) 
CC1C2C=CC1(O)CCC21OCC2(C=C3C4CC5(C)C(CCC5(C)O)C4(C)CCC3(C)C3C=CC=CC32)OO1

>  <smiles>  (406) 
[H]OC12C([H])=C([H])C([H])(C3(OOC4(C([H])=C5C6([H])C([H])([H])C7(C([H])([H])[H])C([H])(C([H])([H])C([H])([H])C7(O[H])C([H])([H])[H])C6(C([H])([H])[H])C([H])([H])C([H])([H])C5(C([H])([H])[H])C5([H])C([H])=C([H])C([H])=C([H])C54[H])C([H])([H])O3)C([H])([H])C1([H])[H])C2([H])C([H])([H])[H]

$$$$
122:0:1
     RDKit          3D

 85 92  0  0  1  0  0  0  0  0999 V2000
    2.1098   -9.5216    1.8503 C   0  0  0  0  0  0  0  0  0  0  0  0
    1.3864   -8.4268    2.6713 C   0  0  2  0  0  0  0  0  0  0  0  0
    2.4219   -7.5269    3.3709 C   0  0  2  0  0  0  0  0  0  0  0  0
    2.7468   -8.3761    4.5861 C   0  0  0  0  0  0  0  0  0  0  0  0
    1.7283   -9.1849    4.8872 C   0  0  0  0  0  0  0  0  0  0  0  0
    0.6053   -8.9552    3.9026 C   0  0  2  0  0  0  0  0  0  0  0  0
   -0.1520  -10.1215    3.6388 O   0  0  0  0  0  0  0  0  0  0  0  0
   -0.2958   -7.7944    4.3751 C   0  0  0  0  0  0  0  0  0  0  0  0
    0.5197   -6.5099    4.7438 C   0  0  0  0  0  0  0  0  0  0  0  0
    1.7519   -6.1990    3.8228 C   0  0  1  0  0  0  0  0  0  0  0  0
    2.6594   -5.4242    4.5752 O   0  0  0  0  0  0  0  0  0  0  0  0
    3.7471   -4.9222    3.8089 C   0  0  0  0  0  0  0  0  0  0  0  0
    3.2596   -4.0924    2.6079 C   0  0  1  0  0  0  0  0  0  0  0  0
    2.4902   -2.8878    3.1308 C   0  0  0  0  0  0  0  0  0  0  0  0
    2.8975   -1.6147    3.1204 C   0  0  0  0  0  0  0  0  0  0  0  0
    2.0999   -0.4793    3.7737 C   0  0  1  0  0  0  0  0  0  0  0  0
    0.7755   -0.7770    4.4776 C   0  0  0  0  0  0  0  0  0  0  0  0
    0.4424    0.5294    5.2640 C   0  0  1  0  0  0  0  0  0  0  0  0
   -0.2200    0.1366    6.6081 C   0  0  0  0  0  0  0  0  0  0  0  0
    1.8336    1.2127    5.4832 C   0  0  2  0  0  0  0  0  0  0  0  0
    1.7107    2.6414    4.9192 C   0  0  0  0  0  0  0  0  0  0  0  0
    0.6025    2.5894    3.8777 C   0  0  0  0  0  0  0  0  0  0  0  0
   -0.4016    1.5905    4.4607 C   0  0  1  0  0  0  0  0  0  0  0  0
   -1.3647    1.0498    3.3955 C   0  0  0  0  0  0  0  0  0  0  0  0
   -1.2265    2.3468    5.3326 O   0  0  0  0  0  0  0  0  0  0  0  0
    2.9006    0.2771    4.8334 C   0  0  1  0  0  0  0  0  0  0  0  0
    3.4532   -0.6468    5.9570 C   0  0  0  0  0  0  0  0  0  0  0  0
    4.0881    0.9284    4.0934 C   0  0  0  0  0  0  0  0  0  0  0  0
    4.9813   -0.1343    3.4065 C   0  0  0  0  0  0  0  0  0  0  0  0
    4.2319   -1.1437    2.4733 C   0  0  2  0  0  0  0  0  0  0  0  0
    3.8692   -0.4182    1.1512 C   0  0  0  0  0  0  0  0  0  0  0  0
    5.1844   -2.3609    2.2066 C   0  0  2  0  0  0  0  0  0  0  0  0
    6.3388   -2.0042    1.2516 C   0  0  0  0  0  0  0  0  0  0  0  0
    6.3553   -2.3678   -0.0260 C   0  0  0  0  0  0  0  0  0  0  0  0
    5.2154   -3.0541   -0.6089 C   0  0  0  0  0  0  0  0  0  0  0  0
    4.2996   -3.6450    0.2010 C   0  0  0  0  0  0  0  0  0  0  0  0
    4.4770   -3.6597    1.7174 C   0  0  2  0  0  0  0  0  0  0  0  0
    2.4600   -5.0198    1.8882 O   0  0  0  0  0  0  0  0  0  0  0  0
    1.2870   -5.4291    2.7369 O   0  0  0  0  0  0  0  0  0  0  0  0
    2.7676  -10.1563    2.4493 H   0  0  0  0  0  0  0  0  0  0  0  0
    2.7051   -9.0924    1.0418 H   0  0  0  0  0  0  0  0  0  0  0  0
    1.3925  -10.1930    1.3861 H   0  0  0  0  0  0  0  0  0  0  0  0
    0.7355   -7.8715    1.9876 H   0  0  0  0  0  0  0  0  0  0  0  0
    3.2917   -7.4033    2.7287 H   0  0  0  0  0  0  0  0  0  0  0  0
    3.6852   -8.3195    5.1214 H   0  0  0  0  0  0  0  0  0  0  0  0
    1.6955   -9.9140    5.6832 H   0  0  0  0  0  0  0  0  0  0  0  0
   -0.7691  -10.3038    4.3509 H   0  0  0  0  0  0  0  0  0  0  0  0
   -1.0214   -7.5701    3.5876 H   0  0  0  0  0  0  0  0  0  0  0  0
   -0.8831   -8.1202    5.2365 H   0  0  0  0  0  0  0  0  0  0  0  0
   -0.1555   -5.6575    4.7980 H   0  0  0  0  0  0  0  0  0  0  0  0
    0.8808   -6.6526    5.7648 H   0  0  0  0  0  0  0  0  0  0  0  0
    4.3400   -4.2976    4.4665 H   0  0  0  0  0  0  0  0  0  0  0  0
    4.4004   -5.7322    3.4938 H   0  0  0  0  0  0  0  0  0  0  0  0
    1.5594   -3.1411    3.6233 H   0  0  0  0  0  0  0  0  0  0  0  0
    1.8522    0.2000    2.9643 H   0  0  0  0  0  0  0  0  0  0  0  0
    0.0047   -1.0946    3.7814 H   0  0  0  0  0  0  0  0  0  0  0  0
    0.9110   -1.6062    5.1728 H   0  0  0  0  0  0  0  0  0  0  0  0
   -0.3303    0.9944    7.2731 H   0  0  0  0  0  0  0  0  0  0  0  0
    0.3773   -0.5951    7.1499 H   0  0  0  0  0  0  0  0  0  0  0  0
   -1.2080   -0.2942    6.4477 H   0  0  0  0  0  0  0  0  0  0  0  0
    2.0547    1.3143    6.5468 H   0  0  0  0  0  0  0  0  0  0  0  0
    1.3822    3.2969    5.7246 H   0  0  0  0  0  0  0  0  0  0  0  0
    2.6359    3.0744    4.5445 H   0  0  0  0  0  0  0  0  0  0  0  0
    0.1747    3.5719    3.6637 H   0  0  0  0  0  0  0  0  0  0  0  0
    1.0079    2.2157    2.9396 H   0  0  0  0  0  0  0  0  0  0  0  0
   -0.8371    0.5749    2.5672 H   0  0  0  0  0  0  0  0  0  0  0  0
   -1.9718    1.8439    2.9575 H   0  0  0  0  0  0  0  0  0  0  0  0
   -2.0432    0.3191    3.8346 H   0  0  0  0  0  0  0  0  0  0  0  0
   -1.7084    2.9563    4.8068 H   0  0  0  0  0  0  0  0  0  0  0  0
    4.1121   -0.0892    6.6259 H   0  0  0  0  0  0  0  0  0  0  0  0
    4.0259   -1.4924    5.5757 H   0  0  0  0  0  0  0  0  0  0  0  0
    2.6606   -1.0682    6.5753 H   0  0  0  0  0  0  0  0  0  0  0  0
    3.7178    1.6008    3.3221 H   0  0  0  0  0  0  0  0  0  0  0  0
    4.6777    1.5438    4.7751 H   0  0  0  0  0  0  0  0  0  0  0  0
    5.7611    0.3762    2.8406 H   0  0  0  0  0  0  0  0  0  0  0  0
    5.5313   -0.6664    4.1805 H   0  0  0  0  0  0  0  0  0  0  0  0
    4.7446   -0.0667    0.6025 H   0  0  0  0  0  0  0  0  0  0  0  0
    3.2571    0.4640    1.3164 H   0  0  0  0  0  0  0  0  0  0  0  0
    3.2999   -1.0705    0.4894 H   0  0  0  0  0  0  0  0  0  0  0  0
    5.6612   -2.6361    3.1468 H   0  0  0  0  0  0  0  0  0  0  0  0
    7.1745   -1.4629    1.6804 H   0  0  0  0  0  0  0  0  0  0  0  0
    7.2131   -2.1363   -0.6440 H   0  0  0  0  0  0  0  0  0  0  0  0
    5.0856   -3.0660   -1.6772 H   0  0  0  0  0  0  0  0  0  0  0  0
    3.4506   -4.1578   -0.2246 H   0  0  0  0  0  0  0  0  0  0  0  0
    5.2133   -4.4583    1.8128 H   0  0  0  0  0  0  0  0  0  0  0  0
  1  2  1  0
  1 40  1  0
  1 41  1  0
  1 42  1  0
  2  6  1  0
  2  3  1  0
  2 43  1  6
  3 10  1  0
  3  4  1  0
  3 44  1  6
  4  5  2  0
  4 45  1  0
  5  6  1  0
  5 46  1  0
  6  7  1  6
  6  8  1  0
  7 47  1  0
  8  9  1  0
  8 48  1  0
  8 49  1  0
  9 10  1  0
  9 50  1  0
  9 51  1  0
 10 39  1  6
 10 11  1  0
 11 12  1  0
 12 13  1  0
 12 52  1  0
 12 53  1  0
 13 37  1  0
 13 14  1  0
 13 38  1  6
 14 15  2  0
 14 54  1  0
 15 30  1  0
 15 16  1  0
 16 26  1  0
 16 17  1  0
 16 55  1  6
 17 18  1  0
 17 56  1  0
 17 57  1  0
 18 23  1  0
 18 19  1  1
 18 20  1  0
 19 58  1  0
 19 59  1  0
 19 60  1  0
 20 21  1  0
 20 26  1  0
 20 61  1  1
 21 22  1  0
 21 62  1  0
 21 63  1  0
 22 23  1  0
 22 64  1  0
 22 65  1  0
 23 24  1  0
 23 25  1  1
 24 66  1  0
 24 67  1  0
 24 68  1  0
 25 69  1  0
 26 27  1  1
 26 28  1  0
 27 70  1  0
 27 71  1  0
 27 72  1  0
 28 29  1  0
 28 73  1  0
 28 74  1  0
 29 30  1  0
 29 75  1  0
 29 76  1  0
 30 31  1  6
 30 32  1  0
 31 77  1  0
 31 78  1  0
 31 79  1  0
 32 37  1  0
 32 33  1  0
 32 80  1  1
 33 34  2  0
 33 81  1  0
 34 35  1  0
 34 82  1  0
 35 36  2  0
 35 83  1  0
 36 37  1  0
 36 84  1  0
 37 85  1  6
 38 39  1  0
M  END
>  <i_m_ct_stereo_status>  (407) 
1

>  <s_m_source_file>  (407) 
/var/tmp/pbs.5076255.sched01/tmpu61_44ix/12937f0afz8.sdf

>  <i_m_source_file_index>  (407) 
42

>  <i_lp_mmshare_version>  (407) 
48012

>  <i_f3d_flags>  (407) 
0

>  <s_epik_input>  (407) 
W0NIXTE9W0NIXVtDQEBdKFtPSF0pKFtDSDJdW0NIMl0yKVtDQEhdKFtDSDNdKVtDQEhdMVtDQF0yM09bQ0gyXVtDQF00KE9PMylbQ0BASF01W0NAQEhdKFtDSF09W0NIXVtDSF09W0NIXTUpW0NAQF02KFtDSDNdKUMoPVtDSF00KVtDQEBIXTdbQ0BAXShbQ0gzXSkoW0NIMl1bQ0gyXTYpW0NAQEhdOFtDQEBdKFtDSDJdNykoW0NIM10pW0NAQF0oW0NIM10pKFtPSF0pW0NIMl1bQ0gyXTg=

>  <s_epik_cmdline>  (407) 
J2VwaWtfcHl0aG9uJywgJy1waHQnLCAnMi4wJywgJy1waCcsICc3LjAnLCAnLXRuJywgJzgnLCAnLW1hJywgJzIwMCcsICctaW1hZScsICc8aW5maWxlLm1hZT4nLCAnLW9tYWUnLCAnPG91dGZpbGUubWFlPic=

>  <r_lp_tautomer_probability>  (407) 
1

>  <r_epik_Ionization_Penalty>  (407) 
2.30229e-06

>  <r_epik_Ionization_Penalty_Charging>  (407) 
0

>  <r_epik_Ionization_Penalty_Neutral>  (407) 
2.30229e-06

>  <r_epik_State_Penalty>  (407) 
-0

>  <r_epik_Charging_Adjusted_Penalty>  (407) 
0

>  <i_epik_Tot_Q>  (407) 
0

>  <i_epik_Tot_abs_Q>  (407) 
0

>  <s_lp_Force_Field>  (407) 
OPLS3e

>  <r_lp_Energy>  (407) 
59.9625

>  <b_lp_Chiralities_Consistent>  (407) 
1

>  <s_lp_Variant>  (407) 
122:0-1

>  <s_i_glide_gridfile>  (407) 
pfpi4k_grid

>  <i_i_glide_lignum>  (407) 
42

>  <i_i_glide_rotatable_bonds>  (407) 
2

>  <r_i_docking_score>  (407) 
-2.74867

>  <r_i_glide_ligand_efficiency>  (407) 
-0.0704788

>  <r_i_glide_ligand_efficiency_sa>  (407) 
-0.239009

>  <r_i_glide_ligand_efficiency_ln>  (407) 
-0.589394

>  <r_i_glide_gscore>  (407) 
-2.74867

>  <r_i_glide_lipo>  (407) 
-0.51043

>  <r_i_glide_hbond>  (407) 
-0.16

>  <r_i_glide_metal>  (407) 
-0

>  <r_i_glide_rewards>  (407) 
0

>  <r_i_glide_evdw>  (407) 
-31.3642

>  <r_i_glide_ecoul>  (407) 
-3.35985

>  <r_i_glide_erotb>  (407) 
0

>  <r_i_glide_esite>  (407) 
-0.00605513

>  <r_i_glide_emodel>  (407) 
-40.7275

>  <r_i_glide_energy>  (407) 
-34.7241

>  <r_i_glide_einternal>  (407) 
0.0471106

>  <r_i_glide_intrahb_reward>  (407) 
-0

>  <i_i_glide_confnum>  (407) 
4

>  <i_i_glide_posenum>  (407) 
35

>  <r_i_glide_eff_state_penalty>  (407) 
0

>  <ligand_id>  (407) 
122

>  <original_smiles>  (407) 
CC1C2C=CC1(O)CCC21OCC2(C=C3C4CC5(C)C(CCC5(C)O)C4(C)CCC3(C)C3C=CC=CC32)OO1

>  <smiles>  (407) 
[H]OC12C([H])=C([H])C([H])(C3(OOC4(C([H])=C5C6([H])C([H])([H])C7(C([H])([H])[H])C([H])(C([H])([H])C([H])([H])C7(O[H])C([H])([H])[H])C6(C([H])([H])[H])C([H])([H])C([H])([H])C5(C([H])([H])[H])C5([H])C([H])=C([H])C([H])=C([H])C54[H])C([H])([H])O3)C([H])([H])C1([H])[H])C2([H])C([H])([H])[H]

$$$$
122:0:2
     RDKit          3D

 85 92  0  0  1  0  0  0  0  0999 V2000
    2.0837   -9.5701    1.8574 C   0  0  0  0  0  0  0  0  0  0  0  0
    1.3781   -8.4695    2.6847 C   0  0  2  0  0  0  0  0  0  0  0  0
    2.4234   -7.5770    3.3746 C   0  0  2  0  0  0  0  0  0  0  0  0
    2.7602   -8.4348    4.5812 C   0  0  0  0  0  0  0  0  0  0  0  0
    1.7481   -9.2392    4.8900 C   0  0  0  0  0  0  0  0  0  0  0  0
    0.6091   -9.0049    3.9214 C   0  0  2  0  0  0  0  0  0  0  0  0
   -0.1525  -10.1570    3.6359 O   0  0  0  0  0  0  0  0  0  0  0  0
   -0.2807   -7.8431    4.4147 C   0  0  0  0  0  0  0  0  0  0  0  0
    0.5420   -6.5636    4.7789 C   0  0  0  0  0  0  0  0  0  0  0  0
    1.7614   -6.2504    3.8403 C   0  0  1  0  0  0  0  0  0  0  0  0
    2.6812   -5.4811    4.5847 O   0  0  0  0  0  0  0  0  0  0  0  0
    3.7597   -4.9769    3.8021 C   0  0  0  0  0  0  0  0  0  0  0  0
    3.2551   -4.1427    2.6097 C   0  0  1  0  0  0  0  0  0  0  0  0
    2.4954   -2.9407    3.1480 C   0  0  0  0  0  0  0  0  0  0  0  0
    2.9053   -1.6651    3.1359 C   0  0  0  0  0  0  0  0  0  0  0  0
    2.1221   -0.5332    3.8059 C   0  0  1  0  0  0  0  0  0  0  0  0
    0.8068   -0.8288    4.5286 C   0  0  0  0  0  0  0  0  0  0  0  0
    0.4873    0.4755    5.3264 C   0  0  1  0  0  0  0  0  0  0  0  0
   -0.1542    0.0767    6.6777 C   0  0  0  0  0  0  0  0  0  0  0  0
    1.8838    1.1548    5.5262 C   0  0  2  0  0  0  0  0  0  0  0  0
    1.7540    2.5862    4.9700 C   0  0  0  0  0  0  0  0  0  0  0  0
    0.6257    2.5400    3.9499 C   0  0  0  0  0  0  0  0  0  0  0  0
   -0.3739    1.5407    4.5423 C   0  0  1  0  0  0  0  0  0  0  0  0
   -1.3467    1.0051    3.4874 C   0  0  0  0  0  0  0  0  0  0  0  0
   -1.1924    2.2794    5.4405 O   0  0  0  0  0  0  0  0  0  0  0  0
    2.9399    0.2182    4.8572 C   0  0  1  0  0  0  0  0  0  0  0  0
    3.5060   -0.7114    5.9690 C   0  0  0  0  0  0  0  0  0  0  0  0
    4.1176    0.8687    4.1011 C   0  0  0  0  0  0  0  0  0  0  0  0
    4.9972   -0.1935    3.3966 C   0  0  0  0  0  0  0  0  0  0  0  0
    4.2310   -1.1979    2.4721 C   0  0  2  0  0  0  0  0  0  0  0  0
    3.8508   -0.4663    1.1575 C   0  0  0  0  0  0  0  0  0  0  0  0
    5.1776   -2.4173    2.1873 C   0  0  2  0  0  0  0  0  0  0  0  0
    6.3226   -2.0600    1.2300 C   0  0  0  0  0  0  0  0  0  0  0  0
    6.3178   -2.4187   -0.0639 C   0  0  0  0  0  0  0  0  0  0  0  0
    5.1682   -3.0978   -0.6264 C   0  0  0  0  0  0  0  0  0  0  0  0
    4.2617   -3.6907    0.1889 C   0  0  0  0  0  0  0  0  0  0  0  0
    4.4613   -3.7113    1.7054 C   0  0  2  0  0  0  0  0  0  0  0  0
    2.4424   -5.0655    1.9007 O   0  0  0  0  0  0  0  0  0  0  0  0
    1.2820   -5.4681    2.7666 O   0  0  0  0  0  0  0  0  0  0  0  0
    2.7506  -10.2063    2.4434 H   0  0  0  0  0  0  0  0  0  0  0  0
    2.6636   -9.1442    1.0364 H   0  0  0  0  0  0  0  0  0  0  0  0
    1.3531  -10.2411    1.4134 H   0  0  0  0  0  0  0  0  0  0  0  0
    0.7168   -7.9131    2.0122 H   0  0  0  0  0  0  0  0  0  0  0  0
    3.2840   -7.4543    2.7215 H   0  0  0  0  0  0  0  0  0  0  0  0
    3.7065   -8.3787    5.1053 H   0  0  0  0  0  0  0  0  0  0  0  0
    1.7213   -9.9735    5.6890 H   0  0  0  0  0  0  0  0  0  0  0  0
   -0.7829  -10.3336    4.3516 H   0  0  0  0  0  0  0  0  0  0  0  0
   -1.0170   -7.6143    3.6381 H   0  0  0  0  0  0  0  0  0  0  0  0
   -0.8570   -8.1761    5.2825 H   0  0  0  0  0  0  0  0  0  0  0  0
   -0.1311   -5.7093    4.8469 H   0  0  0  0  0  0  0  0  0  0  0  0
    0.9174   -6.7127    5.7937 H   0  0  0  0  0  0  0  0  0  0  0  0
    4.3609   -4.3578    4.4531 H   0  0  0  0  0  0  0  0  0  0  0  0
    4.4055   -5.7891    3.4761 H   0  0  0  0  0  0  0  0  0  0  0  0
    1.5729   -3.1925    3.6558 H   0  0  0  0  0  0  0  0  0  0  0  0
    1.8648    0.1501    3.0021 H   0  0  0  0  0  0  0  0  0  0  0  0
    0.0253   -1.1425    3.8417 H   0  0  0  0  0  0  0  0  0  0  0  0
    0.9504   -1.6636    5.2183 H   0  0  0  0  0  0  0  0  0  0  0  0
   -0.2517    0.9266    7.3543 H   0  0  0  0  0  0  0  0  0  0  0  0
    0.4485   -0.6622    7.2049 H   0  0  0  0  0  0  0  0  0  0  0  0
   -1.1453   -0.3493    6.5231 H   0  0  0  0  0  0  0  0  0  0  0  0
    2.1231    1.2511    6.5866 H   0  0  0  0  0  0  0  0  0  0  0  0
    1.4469    3.2431    5.7824 H   0  0  0  0  0  0  0  0  0  0  0  0
    2.6747    3.0146    4.5777 H   0  0  0  0  0  0  0  0  0  0  0  0
    0.1953    3.5229    3.7449 H   0  0  0  0  0  0  0  0  0  0  0  0
    1.0165    2.1701    3.0037 H   0  0  0  0  0  0  0  0  0  0  0  0
   -0.8318    0.5393    2.6469 H   0  0  0  0  0  0  0  0  0  0  0  0
   -1.9544    1.8077    3.0676 H   0  0  0  0  0  0  0  0  0  0  0  0
   -2.0255    0.2771    3.9298 H   0  0  0  0  0  0  0  0  0  0  0  0
   -0.6387    2.6808    6.0842 H   0  0  0  0  0  0  0  0  0  0  0  0
    4.1749   -0.1580    6.6298 H   0  0  0  0  0  0  0  0  0  0  0  0
    4.0707   -1.5560    5.5765 H   0  0  0  0  0  0  0  0  0  0  0  0
    2.7209   -1.1320    6.5962 H   0  0  0  0  0  0  0  0  0  0  0  0
    3.7396    1.5443    3.3362 H   0  0  0  0  0  0  0  0  0  0  0  0
    4.7191    1.4795    4.7750 H   0  0  0  0  0  0  0  0  0  0  0  0
    5.7695    0.3157    2.8196 H   0  0  0  0  0  0  0  0  0  0  0  0
    5.5580   -0.7292    4.1607 H   0  0  0  0  0  0  0  0  0  0  0  0
    4.7194   -0.1175    0.5962 H   0  0  0  0  0  0  0  0  0  0  0  0
    3.2434    0.4175    1.3355 H   0  0  0  0  0  0  0  0  0  0  0  0
    3.2688   -1.1144    0.5027 H   0  0  0  0  0  0  0  0  0  0  0  0
    5.6670   -2.6947    3.1222 H   0  0  0  0  0  0  0  0  0  0  0  0
    7.1594   -1.5275    1.6536 H   0  0  0  0  0  0  0  0  0  0  0  0
    7.1665   -2.1868   -0.6888 H   0  0  0  0  0  0  0  0  0  0  0  0
    5.0215   -3.1084   -1.6968 H   0  0  0  0  0  0  0  0  0  0  0  0
    3.4064   -4.2003   -0.2230 H   0  0  0  0  0  0  0  0  0  0  0  0
    5.1965   -4.5130    1.7850 H   0  0  0  0  0  0  0  0  0  0  0  0
  1  2  1  0
  1 40  1  0
  1 41  1  0
  1 42  1  0
  2  6  1  0
  2  3  1  0
  2 43  1  6
  3 10  1  0
  3  4  1  0
  3 44  1  6
  4  5  2  0
  4 45  1  0
  5  6  1  0
  5 46  1  0
  6  7  1  6
  6  8  1  0
  7 47  1  0
  8  9  1  0
  8 48  1  0
  8 49  1  0
  9 10  1  0
  9 50  1  0
  9 51  1  0
 10 39  1  6
 10 11  1  0
 11 12  1  0
 12 13  1  0
 12 52  1  0
 12 53  1  0
 13 37  1  0
 13 14  1  0
 13 38  1  6
 14 15  2  0
 14 54  1  0
 15 30  1  0
 15 16  1  0
 16 26  1  0
 16 17  1  0
 16 55  1  6
 17 18  1  0
 17 56  1  0
 17 57  1  0
 18 23  1  0
 18 19  1  1
 18 20  1  0
 19 58  1  0
 19 59  1  0
 19 60  1  0
 20 21  1  0
 20 26  1  0
 20 61  1  1
 21 22  1  0
 21 62  1  0
 21 63  1  0
 22 23  1  0
 22 64  1  0
 22 65  1  0
 23 24  1  0
 23 25  1  1
 24 66  1  0
 24 67  1  0
 24 68  1  0
 25 69  1  0
 26 27  1  1
 26 28  1  0
 27 70  1  0
 27 71  1  0
 27 72  1  0
 28 29  1  0
 28 73  1  0
 28 74  1  0
 29 30  1  0
 29 75  1  0
 29 76  1  0
 30 31  1  6
 30 32  1  0
 31 77  1  0
 31 78  1  0
 31 79  1  0
 32 37  1  0
 32 33  1  0
 32 80  1  1
 33 34  2  0
 33 81  1  0
 34 35  1  0
 34 82  1  0
 35 36  2  0
 35 83  1  0
 36 37  1  0
 36 84  1  0
 37 85  1  6
 38 39  1  0
M  END
>  <i_m_ct_stereo_status>  (408) 
1

>  <s_m_source_file>  (408) 
/var/tmp/pbs.5076255.sched01/tmpu61_44ix/12937f0afz8.sdf

>  <i_m_source_file_index>  (408) 
42

>  <i_lp_mmshare_version>  (408) 
48012

>  <i_f3d_flags>  (408) 
0

>  <s_epik_input>  (408) 
W0NIXTE9W0NIXVtDQEBdKFtPSF0pKFtDSDJdW0NIMl0yKVtDQEhdKFtDSDNdKVtDQEhdMVtDQF0yM09bQ0gyXVtDQF00KE9PMylbQ0BASF01W0NAQEhdKFtDSF09W0NIXVtDSF09W0NIXTUpW0NAQF02KFtDSDNdKUMoPVtDSF00KVtDQEBIXTdbQ0BAXShbQ0gzXSkoW0NIMl1bQ0gyXTYpW0NAQEhdOFtDQEBdKFtDSDJdNykoW0NIM10pW0NAQF0oW0NIM10pKFtPSF0pW0NIMl1bQ0gyXTg=

>  <s_epik_cmdline>  (408) 
J2VwaWtfcHl0aG9uJywgJy1waHQnLCAnMi4wJywgJy1waCcsICc3LjAnLCAnLXRuJywgJzgnLCAnLW1hJywgJzIwMCcsICctaW1hZScsICc8aW5maWxlLm1hZT4nLCAnLW9tYWUnLCAnPG91dGZpbGUubWFlPic=

>  <r_lp_tautomer_probability>  (408) 
1

>  <r_epik_Ionization_Penalty>  (408) 
2.30229e-06

>  <r_epik_Ionization_Penalty_Charging>  (408) 
0

>  <r_epik_Ionization_Penalty_Neutral>  (408) 
2.30229e-06

>  <r_epik_State_Penalty>  (408) 
-0

>  <r_epik_Charging_Adjusted_Penalty>  (408) 
0

>  <i_epik_Tot_Q>  (408) 
0

>  <i_epik_Tot_abs_Q>  (408) 
0

>  <s_lp_Force_Field>  (408) 
OPLS3e

>  <r_lp_Energy>  (408) 
59.9625

>  <b_lp_Chiralities_Consistent>  (408) 
1

>  <s_lp_Variant>  (408) 
122:0-1

>  <s_i_glide_gridfile>  (408) 
pfpi4k_grid

>  <i_i_glide_lignum>  (408) 
42

>  <i_i_glide_rotatable_bonds>  (408) 
2

>  <r_i_docking_score>  (408) 
-2.73787

>  <r_i_glide_ligand_efficiency>  (408) 
-0.0702017

>  <r_i_glide_ligand_efficiency_sa>  (408) 
-0.238069

>  <r_i_glide_ligand_efficiency_ln>  (408) 
-0.587076

>  <r_i_glide_gscore>  (408) 
-2.73787

>  <r_i_glide_lipo>  (408) 
-0.499084

>  <r_i_glide_hbond>  (408) 
-0.16

>  <r_i_glide_metal>  (408) 
-0

>  <r_i_glide_rewards>  (408) 
0

>  <r_i_glide_evdw>  (408) 
-31.1763

>  <r_i_glide_ecoul>  (408) 
-3.42766

>  <r_i_glide_erotb>  (408) 
0

>  <r_i_glide_esite>  (408) 
-0.00581884

>  <r_i_glide_emodel>  (408) 
-40.5473

>  <r_i_glide_energy>  (408) 
-34.604

>  <r_i_glide_einternal>  (408) 
0.084572

>  <r_i_glide_intrahb_reward>  (408) 
-0

>  <i_i_glide_confnum>  (408) 
2

>  <i_i_glide_posenum>  (408) 
18

>  <r_i_glide_eff_state_penalty>  (408) 
0

>  <ligand_id>  (408) 
122

>  <original_smiles>  (408) 
CC1C2C=CC1(O)CCC21OCC2(C=C3C4CC5(C)C(CCC5(C)O)C4(C)CCC3(C)C3C=CC=CC32)OO1

>  <smiles>  (408) 
[H]OC12C([H])=C([H])C([H])(C3(OOC4(C([H])=C5C6([H])C([H])([H])C7(C([H])([H])[H])C([H])(C([H])([H])C([H])([H])C7(O[H])C([H])([H])[H])C6(C([H])([H])[H])C([H])([H])C([H])([H])C5(C([H])([H])[H])C5([H])C([H])=C([H])C([H])=C([H])C54[H])C([H])([H])O3)C([H])([H])C1([H])[H])C2([H])C([H])([H])[H]

$$$$
